16

 C -2.47837360312500 -6.30764389687500 -2.52499754375000 
 C -1.32885060312500 -6.81121489687500 -1.84524054375000 
 C -2.41449260312500 -2.47373389687500 -2.41961754375000 
 C -1.28114860312500 -3.02809689687500 -1.75039554375000 
 N -0.287715603125003 -7.14881089687500 -2.62002454375000 
 N -2.34475660312500 -6.20803489687500 -3.86278254375000 
 N -3.21172060312500 -6.50362089687500 -4.519654375000060E-002
 N -0.226437603125003 -3.31274789687500 -2.50222354375000 
 N -2.24412460312500 -2.39537189687500 -3.73633154375000 
 N -3.08004160312500 -2.57129689687500 6.773456249999477E-003
 S -0.817807603125003 -6.71058589687500 -4.17861554375000 
 S -3.86816660312500 -5.97486689687500 -1.52022854375000 
 S -1.64092860312500 -6.98973189687500 -0.100348543750001 
 S -0.734030603125003 -2.84038689687500 -4.12539254375000 
 S -3.78626960312500 -2.13707089687500 -1.45708454375000 
 S -1.42246060312500 -3.00094489687500 -1.827354375000056E-002
