16

 C -2.17013110625001 -6.78326609999999 -2.52870244062500 
 C -1.00082810625001 -7.29576409999999 -1.82905344062500 
 C -2.51366010625001 -2.58117609999999 -2.54824144062500 
 C -1.35462810625001 -3.10853809999999 -1.89298844062500 
 N -5.218310625000555E-002 -7.76003609999999 -2.69135844062500 
 N -2.05640510625001 -6.85642009999999 -3.84232944062500 
 N -2.72422510625001 -6.62423809999999 3.605955937500038E-002
 N -0.357755106250005 -3.40818609999999 -2.71354844062500 
 N -2.43821410625001 -2.52175209999999 -3.88389944062500 
 N -3.15716710625001 -2.77584109999999 -3.619544062499958E-002
 S -0.584850106250006 -7.45271409999999 -4.24976044062500 
 S -3.49743810625001 -6.37445609999999 -1.45323144062500 
 S -1.26692710625001 -7.39653909999999 -2.226440624999659E-003
 S -0.886677106250006 -3.14525409999999 -4.26347144062500 
 S -3.91814910625001 -2.41293109999999 -1.49164644062500 
 S -1.49960610625001 -3.10942509999999 -0.160782440625000 
