16

 C -2.47074011250000 -6.38589061875000 -2.56018183125000 
 C -1.30887811250000 -6.74896361875000 -1.79164683125000 
 C -2.42153511250000 -2.83685861875000 -2.44263483125000 
 C -1.22750911250000 -3.20918061875000 -1.69554383125000 
 N -0.182759112499999 -7.04424461875000 -2.49124083125000 
 N -2.22424811250000 -6.46993661875000 -3.89051383125000 
 N -3.30215411250000 -6.29995261875000 -7.871583124999981E-002
 N -0.163610112499999 -3.37924361875000 -2.47655083125000 
 N -2.24850311250000 -2.65124561875000 -3.75312083125000 
 N -2.97529011250000 -2.92006461875000 0.128377168750000 
 S -0.637706112499998 -6.81773261875000 -4.06491583125000 
 S -3.91827311250000 -6.04697861875000 -1.61271783125000 
 S -1.69626311250000 -6.72479461875000 -2.179683124999987E-002
 S -0.701476112499998 -3.13910961875000 -4.04656883125000 
 S -3.67724811250000 -2.44248361875000 -1.32894283125000 
 S -1.46152811250000 -3.48290861875000 -1.675883124999999E-002
