16

 C -2.31671586875000 -6.68192418125000 -2.38636623437500 
 C -1.14808386875000 -7.20116218125000 -1.70703723437500 
 C -2.58548186875000 -2.62721418125000 -2.30277723437500 
 C -1.54642786875000 -3.50698818125000 -1.75747123437500 
 N -5.924386874999943E-002 -7.44266718125000 -2.47195223437500 
 N -2.10811686875000 -6.67902118125000 -3.70029323437500 
 N -3.08223486875000 -6.94427318125000 8.399876562500030E-002
 N -0.679655868749999 -4.01402618125000 -2.65128923437500 
 N -2.49553186875000 -2.43239118125000 -3.63780123437500 
 N -3.06255086875000 -2.84311218125000 0.223489765625000 
 S -0.525546868749999 -7.15342818125000 -4.03548623437500 
 S -3.71226486875000 -6.51437618125000 -1.34554823437500 
 S -1.45751386875000 -7.52029918125000 -4.460234374999539E-003
 S -1.10626786875000 -3.23939318125000 -4.09290523437500 
 S -3.74071186875000 -2.09548818125000 -1.13080523437500 
 S -1.75359086875000 -3.79897318125000 -0.125734234375000 
