16

 C -2.45247733437500 -6.44343086250000 -2.34488056562500 
 C -1.12419633437500 -6.84591186250000 -1.80138156562500 
 C -2.55364633437500 -2.81400686249999 -2.41701856562500 
 C -1.35523233437500 -3.22154786250000 -1.67598456562500 
 N -8.399833437499815E-002 -6.91593486250000 -2.62792756562500 
 N -2.36698133437500 -6.18732886249999 -3.63862656562500 
 N -2.75768833437500 -6.84632586250000 0.215401434375001 
 N -0.304060334374999 -3.44743686249999 -2.47108956562500 
 N -2.40306133437500 -2.63833286250000 -3.73480356562500 
 N -3.20411933437500 -2.94057086250000 2.576843437500065E-002
 S -0.814506334374999 -6.57865486250000 -4.10873356562500 
 S -3.70208933437500 -6.45225386250000 -1.10196256562500 
 S -1.15882933437500 -7.17017786249999 -9.711456562499965E-002
 S -0.828320334374999 -3.03595686250000 -4.04026156562500 
 S -3.88677133437500 -2.40665786250000 -1.36333056562500 
 S -1.60389833437500 -3.44682086249999 2.891643437500058E-002
