16

 C -2.38895109375000 -6.80024441874999 -2.19673688125000 
 C -1.12273509375000 -7.17561741874999 -1.59796188125000 
 C -2.53716109375000 -2.79893741874999 -2.44779988125000 
 C -1.22898909375000 -3.15215441874999 -1.79449188125000 
 N -0.116026093750000 -7.24627741874999 -2.45896588125000 
 N -2.30860009375000 -6.56850641874999 -3.50897588125000 
 N -2.80003709375000 -6.94850241874999 0.328594118749999 
 N -0.194696093749999 -3.32190141874999 -2.63105088125000 
 N -2.41443009375000 -2.67050041874999 -3.77768788125000 
 N -2.92891709375000 -2.95948841874999 0.123593118749999 
 S -0.765948093749999 -6.84778941874999 -3.94586788125000 
 S -3.78223809375000 -6.65989341874999 -1.02489888125000 
 S -1.23221509375000 -7.36206541874999 0.143004118749999 
 S -0.851103093749999 -3.00077841874999 -4.18624188125000 
 S -3.79345009375000 -2.58885141874999 -1.27103688125000 
 S -1.29308509375000 -3.30160641874999 -4.218088125000130E-002
