16

 C -2.48027500000000 -6.21292626250000 -2.50763611250000 
 C -1.33663000000000 -6.82757526250000 -1.86047411250000 
 C -2.69519600000000 -2.64530426250000 -2.45668311250000 
 C -1.53016400000000 -3.12464226250000 -1.72844711250000 
 N -0.327086000000003 -7.07337526250000 -2.68900211250000 
 N -2.39372400000000 -6.05157126250000 -3.83858311250000 
 N -3.20578700000000 -6.61270926250000 -4.898011249999890E-002
 N -0.431928000000004 -3.30096026250000 -2.41478911250000 
 N -2.39989400000000 -2.43714026250000 -3.73445811250000 
 N -3.46275800000000 -2.85633426250000 -5.124311249999902E-002
 S -0.864461000000003 -6.49048426250000 -4.19035411250000 
 S -3.87494000000000 -5.96453926250000 -1.44421211250000 
 S -1.71588600000000 -7.28304226250000 -0.210463112499999 
 S -0.856242000000004 -2.85233926250000 -4.01134911250000 
 S -4.07382000000000 -2.28962026250000 -1.48452111250000 
 S -1.85960900000000 -3.42318326250000 -4.557711249999929E-002
