16

 C -2.42922644687500 -6.66326118437500 -2.40278167500000 
 C -1.18144544687500 -6.93967818437500 -1.76274667500000 
 C -2.42716744687500 -2.83582118437500 -2.44270667500000 
 C -1.22071444687500 -3.07659318437500 -1.64613567500000 
 N -0.105194446875004 -6.90305218437500 -2.52486267500000 
 N -2.30152944687500 -6.45055518437500 -3.71441767500000 
 N -2.90733544687500 -7.11671518437500 8.977532499999996E-002
 N -0.138187446875003 -3.24506218437500 -2.39720367500000 
 N -2.16922444687500 -2.74999818437500 -3.74038067500000 
 N -3.10622544687500 -2.70262918437500 4.659732499999980E-002
 S -0.647048446875004 -6.54660018437500 -4.07424967500000 
 S -3.75399444687500 -6.56607118437500 -1.26394167500000 
 S -1.25717744687500 -7.30105618437500 -6.790167500000033E-002
 S -0.530430446875004 -3.06333118437500 -3.95730267500000 
 S -3.79710544687500 -2.43952618437500 -1.51659267500000 
 S -1.51798644687500 -3.19461618437500 8.361324999999864E-003
