16

 C -2.34649914687500 -6.04834085625000 -2.20806252812500 
 C -1.13727714687500 -6.64657185625000 -1.62226852812500 
 C -2.63925314687500 -2.49923485625000 -2.54793352812500 
 C -1.38324514687500 -2.83887585625000 -1.91276852812500 
 N -0.196899146874997 -6.94938485625000 -2.50260652812500 
 N -2.28890814687500 -5.83521085625000 -3.51782052812500 
 N -2.78149414687500 -6.21540285625000 0.348627471874998 
 N -0.339948146874996 -3.12047885625000 -2.72590452812500 
 N -2.52445114687500 -2.40080385625000 -3.89234052812500 
 N -3.16277014687500 -2.39060485625000 -1.601852812500182E-002
 S -0.813873146874997 -6.43254685625000 -3.97132052812500 
 S -3.63114714687500 -5.86717785625000 -0.991164528125002 
 S -1.22116214687500 -6.87205885625000 9.819747187499805E-002
 S -0.981838146874996 -2.79597285625000 -4.33765952812500 
 S -3.92534014687500 -2.06004585625000 -1.44211652812500 
 S -1.53934814687500 -2.93454285625000 -0.148231528125002 
