16

 C -2.23250925625000 -6.32937288124999 -2.38530039062500 
 C -1.04338725625000 -6.86487388124999 -1.72772839062500 
 C -2.83444225625000 -2.52539588124999 -2.52890639062500 
 C -1.58507425625000 -2.92147988124999 -1.92472939062500 
 N 4.537743750000267E-003 -7.02735988124999 -2.55398739062500 
 N -2.04636925625000 -6.13180088124999 -3.69243939062500 
 N -2.82199525625000 -6.65540788124999 0.109377609375001 
 N -0.538932256250000 -2.85503688124999 -2.77658839062500 
 N -2.79662625625000 -2.31131288124999 -3.83387339062500 
 N -3.34674925625000 -2.83313388124999 -7.801390624999627E-003
 S -0.446534256250000 -6.51087488124999 -4.04028239062500 
 S -3.54690525625000 -6.16262288124999 -1.31657339062500 
 S -1.20766825625000 -7.09534288124999 -5.804390624999378E-003
 S -1.16105525625000 -2.51091688124999 -4.17855039062500 
 S -4.17291625625000 -2.46643688124999 -1.42259839062500 
 S -1.72685525625000 -3.09539888124999 -0.236604390625000 
