16

 C -2.37293589062499 -6.31992411562501 -2.58301096562500 
 C -1.18276089062499 -6.68850511562500 -1.87766496562500 
 C -2.38679689062499 -2.73736511562500 -2.61235596562500 
 C -1.16144989062499 -3.07890311562501 -1.95237196562500 
 N -8.591689062499430E-002 -6.94013711562500 -2.63417696562500 
 N -2.22178989062499 -6.28591111562501 -3.89128896562500 
 N -3.04478589062499 -6.30360911562500 -0.113443965625000 
 N -0.146653890624994 -3.25234711562501 -2.78820996562500 
 N -2.29374189062499 -2.54757511562500 -3.96183696562500 
 N -2.85716989062499 -3.00681511562500 -5.453396562500035E-002
 S -0.607454890624994 -6.63523011562500 -4.22581296562500 
 S -3.83616589062499 -6.22101711562500 -1.58446296562500 
 S -1.48638589062499 -6.85220111562500 -0.102568965625000 
 S -0.722839890624995 -2.81560411562500 -4.29907496562500 
 S -3.70563589062499 -2.57306911562500 -1.42261896562500 
 S -1.23495389062499 -3.25558411562500 -0.195686965625000 
