16

 C -2.44629981875001 -6.49372183750000 -2.33929734375000 
 C -1.16866281875001 -6.78629183750000 -1.73208234375000 
 C -2.58827681875001 -2.84623583750000 -2.59569934375000 
 C -1.31723181875001 -3.30046583750000 -2.05298534375000 
 N -0.118161818750006 -6.74613083750000 -2.58755734375000 
 N -2.39944281875001 -6.26228183750000 -3.65760734375000 
 N -2.97368381875001 -6.81964483750000 0.160294656249997 
 N -0.265781818750006 -3.27417983750000 -2.84408834375000 
 N -2.47989381875001 -2.51729583750000 -3.83963834375000 
 N -2.89654281875001 -3.19399083750000 -5.358934375000279E-002
 S -0.823250818750006 -6.40634283750000 -4.06534234375000 
 S -3.79006081875001 -6.50277083750000 -1.22469734375000 
 S -1.30656281875001 -7.05750283750000 2.043565624999744E-002
 S -0.928254818750006 -2.72072783750000 -4.32627134375000 
 S -3.83739781875001 -2.90082783750000 -1.41571534375000 
 S -1.30858181875001 -3.44109683750000 -0.366960343750002 
