16

 C -2.57867025937500 -6.44689181875000 -2.48713249375000 
 C -1.35001025937500 -6.91039681875000 -1.84753349375000 
 C -2.63190025937500 -2.88999481875000 -2.47298549375000 
 C -1.40438425937500 -3.34472481875000 -1.84374049375000 
 N -0.283713259375000 -7.06614681875000 -2.62334649375000 
 N -2.36285325937500 -6.28774981875000 -3.77492349375000 
 N -3.10455325937500 -6.74125881875000 6.701750624999891E-002
 N -0.430890259375000 -3.64973681875000 -2.69933449375000 
 N -2.51912825937500 -2.69636881875000 -3.78285249375000 
 N -3.24680525937500 -3.18221381875000 -3.369349375000108E-002
 S -0.739220259375000 -6.63932181875000 -4.22412849375000 
 S -3.87846325937500 -6.11685881875000 -1.33409849375000 
 S -1.49519325937500 -6.97552081875000 -3.431249375000123E-002
 S -1.03224525937500 -3.10053581875000 -4.17438949375000 
 S -4.08329725937500 -2.95681081875000 -1.45403449375000 
 S -1.64929425937500 -3.71558581875000 -0.170807493750001 
