16

 C -2.50325560937500 -6.36788559687500 -2.53287885000000 
 C -1.37466460937500 -7.00767559687500 -1.98221585000000 
 C -2.38850160937500 -2.61559659687500 -2.43126085000000 
 C -1.22631760937500 -3.12465159687500 -1.79587085000000 
 N -0.292427609374998 -7.08389459687500 -2.77183785000000 
 N -2.32496760937500 -5.98370659687500 -3.80584885000000 
 N -3.16696860937500 -6.77404259687500 -6.801784999999994E-002
 N -0.245358609374998 -3.53559259687500 -2.60720285000000 
 N -2.27523760937500 -2.50255859687500 -3.73882985000000 
 N -3.03050560937500 -2.63632459687500 3.835815000000009E-002
 S -0.798662609374998 -6.46542059687500 -4.20629785000000 
 S -3.80682860937500 -6.10129059687500 -1.44701585000000 
 S -1.59876860937500 -7.33643459687500 -0.239255850000000 
 S -0.754279609374998 -2.98817059687500 -4.19517785000000 
 S -3.73315960937500 -2.15789059687500 -1.36086885000000 
 S -1.52255060937500 -3.48021059687500 -0.106022850000000 
