16

 C -2.59321351562501 -6.39690065625000 -2.19558658437500 
 C -1.39029051562501 -6.85446165625000 -1.63951158437500 
 C -2.48273251562501 -3.05195465625000 -2.29700458437500 
 C -1.22724151562501 -3.31188665625000 -1.62460858437500 
 N -0.336613515625010 -7.06436065625000 -2.42879558437500 
 N -2.50928351562501 -6.20092265625000 -3.49471958437500 
 N -3.08048851562501 -6.57976465625000 0.261551415625001 
 N -0.217501515625011 -3.36772965625000 -2.46445458437500 
 N -2.45831751562501 -2.89633265625000 -3.62351158437500 
 N -2.99909451562501 -3.15508865625000 0.253392415625001 
 S -0.949457515625011 -6.58430665625000 -3.87435258437500 
 S -3.86789251562501 -6.17617365625000 -1.12948858437500 
 S -1.48109951562501 -7.10928165625000 6.236341562500147E-002
 S -0.851999515625010 -3.27192165625000 -4.01295958437500 
 S -3.74040851562501 -2.84825165625000 -1.18277158437500 
 S -1.36767051562501 -3.32979365625000 0.108084415625001 
