16

 C -2.58191137812500 -6.27324117187500 -2.37698913437500 
 C -1.43325037812500 -7.04622217187500 -1.89009313437500 
 C -2.46574237812500 -2.70916117187500 -2.25736013437500 
 C -1.35980737812500 -3.36024617187500 -1.67678213437500 
 N -0.523397378124998 -7.21721917187500 -2.82966113437500 
 N -2.52978537812500 -5.99275417187500 -3.66392513437500 
 N -3.04463937812500 -6.61483617187500 6.626286562499817E-002
 N -0.361228378124999 -3.72312117187500 -2.49269013437500 
 N -2.28045537812500 -2.38663217187500 -3.53901213437500 
 N -3.03892937812500 -2.96170117187500 0.244543865624998 
 S -1.07142237812500 -6.51665517187500 -4.19365313437500 
 S -3.88779337812500 -5.98463717187500 -1.25008413437500 
 S -1.53490037812500 -7.31968317187500 -0.208249134375002 
 S -0.839590378124998 -3.16381917187500 -3.96840613437500 
 S -3.78569137812500 -2.42866317187500 -1.13069713437500 
 S -1.57050637812500 -3.73761617187500 6.409986562499825E-002
