16

 C -2.64731362187500 -6.51584390312500 -2.31028868125000 
 C -1.37905962187500 -6.91553990312500 -1.77765468125000 
 C -2.36532162187500 -2.92337190312500 -2.35592368125000 
 C -1.20088862187500 -3.53163790312500 -1.69663468125000 
 N -0.454866621875003 -7.10336890312500 -2.70301768125000 
 N -2.63822362187500 -6.24173390312500 -3.61010468125000 
 N -3.04204662187500 -6.76888390312500 0.237229318750000 
 N -0.182494621875003 -3.69415190312500 -2.51307268125000 
 N -2.16924162187500 -2.72028990312500 -3.63668468125000 
 N -2.98360662187500 -2.99930090312500 0.101492318750000 
 S -1.10207462187500 -6.61151890312500 -4.14286868125000 
 S -3.91028862187500 -6.22576690312500 -1.08465568125000 
 S -1.43690562187500 -7.13043890312500 -3.844068125000022E-002
 S -0.619931621875003 -3.21068390312500 -4.05554068125000 
 S -3.72267962187500 -2.81120990312500 -1.37785568125000 
 S -1.42803662187500 -3.69889690312500 -1.909068125000002E-002
