16

 C -2.57308360624999 -6.35675795937501 -2.48186226250000 
 C -1.42996760624999 -6.81987695937501 -1.72775026250000 
 C -2.44413760624999 -3.00615095937501 -2.34628226250000 
 C -1.19446760624999 -3.25393195937501 -1.70227426250000 
 N -0.446384606249994 -7.27302195937501 -2.47799726250000 
 N -2.46529460624999 -6.41520295937501 -3.79046926250000 
 N -3.26926460624999 -6.25763995937501 2.807073750000022E-002
 N -0.172946606249995 -3.32901495937501 -2.54867826250000 
 N -2.41543160624999 -2.95498895937501 -3.67408326250000 
 N -3.06015260624999 -3.11598495937501 0.140035737500000 
 S -0.873777606249995 -6.97820095937501 -4.09722226250000 
 S -3.91068960624999 -5.79529695937501 -1.45581826250000 
 S -1.64240660624999 -6.72708795937501 -2.910226249999992E-002
 S -0.790696606249995 -3.19642795937501 -4.04613126250000 
 S -3.75501260624999 -2.92315195937501 -1.29588926250000 
 S -1.40175460624999 -3.37511395937501 8.558573750000020E-002
