16

 C -2.31517501562500 -6.57093173125000 -2.42290443750000 
 C -1.10067501562500 -7.09282873125000 -1.72496143750000 
 C -2.46251901562500 -2.83243173125000 -2.22038043750000 
 C -1.21466801562500 -3.19514373125000 -1.69456343750000 
 N -0.104784015624998 -7.24884173125000 -2.56955543750000 
 N -2.25733301562500 -6.43061273125000 -3.73353343750000 
 N -2.85286001562500 -6.56772973125000 0.108789562499999 
 N -0.261229015624997 -3.51108373125000 -2.58827943750000 
 N -2.50260701562500 -2.67933973125000 -3.54851743750000 
 N -2.89090801562500 -3.01633673125000 0.276420562499999 
 S -0.722396015624997 -6.90071473125000 -4.07714243750000 
 S -3.68848701562500 -6.38406573125000 -1.26915743750000 
 S -1.27787301562500 -7.36189773125000 -2.316943750000133E-002
 S -1.01527801562500 -3.20075873125000 -4.06657043750000 
 S -3.73471601562500 -2.69593473125000 -1.09974043750000 
 S -1.24719501562500 -3.17742573125000 1.984856249999867E-002
