16

 C -2.60669377812499 -6.67200226562499 -2.14563668750000 
 C -1.41638577812499 -7.25557226562499 -1.63419268750000 
 C -2.28403277812499 -2.75583026562499 -2.35651168750000 
 C -1.13784177812499 -3.33842926562499 -1.75247768750000 
 N -0.559953778124995 -7.52397926562499 -2.57884568750000 
 N -2.58924677812499 -6.32417726562499 -3.42656968750000 
 N -2.99812677812499 -7.00564726562499 0.364578312500000 
 N -0.207952778124995 -3.71151026562499 -2.61589868750000 
 N -2.19999277812499 -2.57521526562499 -3.66059668750000 
 N -2.83597477812499 -3.01139526562499 0.145556312500000 
 S -1.17650277812499 -6.97094726562499 -4.03392468750000 
 S -3.90142577812500 -6.45223526562499 -0.906295687500000 
 S -1.43597977812500 -7.51713526562499 6.201631249999973E-002
 S -0.698378778124995 -3.11567826562499 -4.09589268750000 
 S -3.57268577812499 -2.50838526562499 -1.24634368750000 
 S -1.23395277812500 -3.45673126562499 -2.478268750000012E-002
