16

 C -2.64574430625000 -6.42577322500001 -2.42737813437500 
 C -1.38504330625000 -6.75370322500001 -1.72047313437500 
 C -2.60389130625000 -2.44895522500001 -2.43732513437500 
 C -1.41063230625000 -2.96939522500001 -1.81619513437500 
 N -0.279477306249997 -6.86075322500001 -2.46920613437500 
 N -2.45601930625000 -6.22537622500001 -3.71979413437500 
 N -3.26611830625000 -6.65211322500001 0.100215865625001 
 N -0.428616306249997 -3.32210922500001 -2.66429013437500 
 N -2.48660830625000 -2.18474022500001 -3.75238313437500 
 N -3.15669230625000 -2.76562822500001 8.423386562500079E-002
 S -0.806362306249997 -6.55433822500001 -4.02786613437500 
 S -4.04112430625000 -6.59827622500001 -1.40235213437500 
 S -1.64153530625000 -6.96615022500001 -2.615713437499911E-002
 S -1.01217830625000 -2.70918722500001 -4.15553013437500 
 S -3.97712930625000 -2.20546122500001 -1.26570213437500 
 S -1.58867930625000 -3.18429622500001 -6.624613437499893E-002
