16

 C -2.43011975937500 -6.55199634375000 -2.40068179062500 
 C -1.24007775937500 -7.16612434375000 -1.88112379062500 
 C -2.70199575937500 -2.80860934375000 -2.60206079062500 
 C -1.61167375937500 -3.34927034375000 -1.84036479062500 
 N -0.160135759374998 -7.32118234375000 -2.71240679062500 
 N -2.28752175937500 -6.26978034375000 -3.69041279062500 
 N -2.91475975937500 -6.96876334375000 0.149796209374999 
 N -0.522508759374998 -3.56159134375000 -2.55747079062500 
 N -2.43961675937500 -2.55010534375000 -3.90242079062500 
 N -3.43030775937500 -2.98383834375000 -7.565479062500091E-002
 S -0.780144759374997 -6.78853534375000 -4.20059079062500 
 S -3.69226875937500 -6.45325934375000 -1.21397979062500 
 S -1.49210375937500 -7.57852734375000 -0.166435790625001 
 S -0.918339759374998 -3.19157134375000 -4.14612279062500 
 S -4.09358475937500 -2.54130334375000 -1.56751179062500 
 S -1.83829275937500 -3.46137834375000 -0.116359790625001 
