16

 C -2.31924930000000 -6.37067790312500 -2.47850165625000 
 C -1.12858230000000 -6.73408790312500 -1.79024065625000 
 C -2.58166930000000 -2.66771490312500 -2.44591165625000 
 C -1.31707630000000 -2.92788490312500 -1.79506465625000 
 N -3.398129999999888E-002 -6.95972590312500 -2.49147065625000 
 N -2.17209930000000 -6.45056190312500 -3.77721165625000 
 N -3.06135930000000 -6.41016090312500 -4.983265624999889E-002
 N -0.277769299999999 -3.05408290312500 -2.61006065625000 
 N -2.43990930000000 -2.56694090312500 -3.76348965625000 
 N -3.18428930000000 -2.83355390312500 -1.930165624999880E-002
 S -0.609794299999999 -6.91261890312500 -4.05451765625000 
 S -3.70011830000000 -6.13931990312500 -1.52941665625000 
 S -1.42903030000000 -6.83253090312500 -3.646665624999890E-002
 S -0.831656299999999 -2.75902490312500 -4.15115665625000 
 S -3.99710030000000 -2.68961290312500 -1.49342065625000 
 S -1.55413930000000 -3.17546090312500 -0.129219656249999 
