16

 C -2.34635940937500 -6.47503862812500 -2.64323785000000 
 C -1.19237040937500 -6.88883662812500 -1.95936185000000 
 C -2.29932740937500 -2.55146862812501 -2.56915885000000 
 C -1.06100840937500 -3.07377062812501 -2.11065985000000 
 N -0.194883409375001 -7.15340562812500 -2.75692885000000 
 N -2.30549840937500 -6.31928862812500 -3.97150185000000 
 N -2.96064440937500 -6.61896462812500 -9.567785000000084E-002
 N -3.081440937500179E-002 -3.07444262812500 -2.99391485000000 
 N -2.26603040937500 -2.21515062812500 -3.86383785000000 
 N -2.72683440937500 -3.27508262812500 -5.940985000000087E-002
 S -0.726414409375002 -6.83426062812500 -4.32352385000000 
 S -3.62600340937500 -6.14547962812500 -1.54976585000000 
 S -1.34976040937500 -7.00740662812500 -0.239763850000001 
 S -0.731324409375001 -2.35845862812501 -4.36186085000000 
 S -3.52496140937500 -2.61336862812500 -1.34926585000000 
 S -1.16437440937500 -3.61163062812500 -0.428768850000001 
