16

 C -2.21845592187500 -6.13940571250000 -2.18912305000000 
 C -1.06009492187500 -6.73892571250000 -1.65015405000000 
 C -2.70718692187500 -2.34874171250000 -2.68661305000000 
 C -1.47284292187500 -2.77128971250000 -2.07655305000000 
 N -0.160201921874999 -6.99674771250000 -2.59844905000000 
 N -2.20972292187500 -5.91724971250000 -3.49196305000000 
 N -2.66198192187500 -6.37954871250000 0.310522950000001 
 N -0.495530921874999 -3.00331571250000 -2.93655505000000 
 N -2.65071092187500 -2.35177971250000 -3.99122305000000 
 N -3.20732292187500 -2.49099771250000 -0.133309049999999 
 S -0.738864921874999 -6.44006171250000 -4.04990905000000 
 S -3.44135492187500 -5.72815071250000 -1.07712405000000 
 S -1.13266992187500 -6.96310571250000 6.737395000000079E-002
 S -1.07386792187500 -2.77526671250000 -4.41816405000000 
 S -4.05772292187500 -2.08328971250000 -1.56924805000000 
 S -1.60125692187500 -2.82965871250000 -0.291082049999999 
