16

 C -2.31687146875000 -6.42975408750000 -2.46000305625000 
 C -1.12318946875000 -6.98685708750000 -1.86857505625000 
 C -2.33301346875000 -3.07513708750000 -2.36398005625000 
 C -1.14189646875000 -3.42944408750000 -1.68491305625000 
 N -7.822646875000050E-002 -7.25289908750000 -2.65549005625000 
 N -2.15070246875000 -6.27267508750000 -3.77233005625000 
 N -2.77830846875000 -6.72294208750000 5.708794375000270E-002
 N -0.141631468750001 -3.57976608750000 -2.57760905625000 
 N -2.26474146875000 -2.84483608750000 -3.64769705625000 
 N -2.95768646875000 -3.17077608750000 0.201091943750003 
 S -0.553543468750001 -6.64666808750000 -4.12569905625000 
 S -3.59205646875000 -6.22474308750000 -1.28910405625000 
 S -1.25749446875000 -7.43903308750000 -0.210753056249998 
 S -0.683952468750000 -3.18773608750000 -4.03670705625000 
 S -3.71351246875000 -2.79251208750000 -1.26614305625000 
 S -1.39402446875000 -3.59627608750000 4.732094375000262E-002
