16

 C -2.37890172500000 -6.61119480000001 -2.35969079062500 
 C -1.09146472500000 -6.97745180000001 -1.76736379062500 
 C -2.23254772500000 -3.41389580000001 -2.24046479062500 
 C -1.02661772500000 -3.60401180000001 -1.53650179062500 
 N -9.948472500000172E-002 -7.17655480000001 -2.65170979062500 
 N -2.30622872500000 -6.58664080000001 -3.67677179062500 
 N -2.83549972500000 -6.53463980000001 0.102060209375003 
 N 4.989827499999855E-002 -3.70144880000001 -2.32776979062500 
 N -2.12010772500000 -3.39851180000001 -3.58200879062500 
 N -2.81631672500000 -3.23702780000001 0.288492209375003 
 S -0.772788725000002 -6.91023680000001 -4.16542479062500 
 S -3.67086872500000 -6.35567680000001 -1.31700379062500 
 S -1.22644672500000 -6.90271980000001 -2.483479062499683E-002
 S -0.479636725000002 -3.63627880000001 -3.89195879062500 
 S -3.57377872500000 -3.17688580000001 -1.17023679062500 
 S -1.20235772500000 -3.58333280000001 0.175931209375003 
