16

 C -2.49286879687500 -6.82309391250000 -2.28916429375000 
 C -1.18130579687500 -7.17008491250000 -1.77724529375000 
 C -2.60784379687500 -2.71592591250000 -2.38246629375000 
 C -1.38923179687500 -3.35950191250000 -1.81941229375000 
 N -0.282183796874999 -7.35932291250000 -2.73299129375000 
 N -2.60393879687500 -6.71340191250000 -3.60507529375000 
 N -2.70242879687500 -6.99482691250000 0.287665706249999 
 N -0.427927796874999 -3.52716691250000 -2.72655429375000 
 N -2.51398279687500 -2.47196291250000 -3.68918529375000 
 N -3.19345679687500 -3.26982791250000 3.375670624999905E-002
 S -1.05967679687500 -7.05122991250000 -4.19983129375000 
 S -3.62295679687500 -6.79248291250000 -1.02241129375000 
 S -1.11627479687500 -7.31672091250000 -3.203929375000114E-002
 S -0.951420796874999 -2.97413991250000 -4.14434629375000 
 S -3.94147879687500 -2.62454891250000 -1.24836829375000 
 S -1.56134879687500 -3.47245291250000 -9.190529375000112E-002
