16

 C -2.56138545625000 -6.32589695312500 -2.27845875625000 
 C -1.36774645625000 -6.81534795312500 -1.69686875625000 
 C -2.53326145625000 -3.07472695312500 -2.32539075625000 
 C -1.23638445625000 -3.33147095312500 -1.70171175625000 
 N -0.353224456250001 -7.05091695312500 -2.52214275625000 
 N -2.43612045625000 -6.15633095312500 -3.59487875625000 
 N -3.07858245625000 -6.58219395312500 0.323332243750001 
 N -0.249905456250001 -3.44743895312500 -2.57185775625000 
 N -2.49483245625000 -3.09753795312500 -3.64152975625000 
 N -3.02894845625000 -3.15155695312500 0.134248243750001 
 S -0.912319456250001 -6.64665095312500 -4.04447775625000 
 S -3.87181045625000 -6.13445295312500 -1.09865475625000 
 S -1.51358145625000 -7.10652795312500 0.135192243750001 
 S -0.862419456250001 -3.15503595312500 -4.08047775625000 
 S -3.93044845625000 -2.91985395312500 -1.30122775625000 
 S -1.39150645625000 -3.41738895312500 7.953243750001615E-003
