16

 C -2.56101796249999 -6.49781747500000 -2.37819713125000 
 C -1.31388796249999 -6.89394247500000 -1.73744813125000 
 C -2.16794996249999 -2.97290447500000 -2.31409513125000 
 C -0.998864962499995 -3.49009947500000 -1.71505613125000 
 N -0.277198962499994 -7.03259647500000 -2.57559313125000 
 N -2.49322596249999 -6.36030547500000 -3.72422413125000 
 N -2.94787696249999 -6.60795647500000 0.251168868749999 
 N 8.529003750000541E-002 -3.55597147500000 -2.50992513125000 
 N -2.09418596249999 -2.68791647500000 -3.63928013125000 
 N -2.85914496249999 -3.38444847500000 0.156559868749999 
 S -0.891040962499994 -6.78405447500000 -4.11870813125000 
 S -3.82043096249999 -6.29975447500000 -1.14088013125000 
 S -1.37690196249999 -7.00434447500000 1.844686874999946E-002
 S -0.502075962499994 -3.01652647500000 -3.96154313125000 
 S -3.58579896249999 -2.84539947500000 -1.23354313125000 
 S -1.24323496249999 -3.89739547500000 -1.767913125000065E-002
