16

 C -2.55516055312500 -6.29737285000000 -2.45975799687500 
 C -1.29945155312500 -6.59058085000001 -1.80315699687500 
 C -2.77085655312500 -2.61363385000000 -2.58703899687500 
 C -1.52246655312500 -3.03341485000001 -2.01557899687500 
 N -0.261968553125001 -6.72654585000000 -2.62981599687500 
 N -2.47774855312500 -6.17288085000001 -3.78639499687500 
 N -3.14097355312500 -6.58222685000000 1.550400312499822E-002
 N -0.517881553125002 -3.06071385000001 -2.87707299687500 
 N -2.69667455312500 -2.50241285000001 -3.88870599687500 
 N -3.20484155312500 -3.12277385000001 -6.303099687500202E-002
 S -0.888309553125001 -6.42181185000000 -4.17038599687500 
 S -3.94780255312500 -6.42632885000000 -1.46055399687500 
 S -1.52921955312500 -6.89577985000001 -0.104817996875002 
 S -1.09106055312500 -2.74843985000000 -4.31947199687500 
 S -4.02114055312500 -2.43961285000000 -1.32866399687500 
 S -1.55134355312500 -3.36609985000000 -0.273875996875002 
