16

 C -2.40060551874999 -6.45279352812500 -2.64618742812500 
 C -1.19654251874999 -6.94231652812500 -1.96241042812500 
 C -2.33015151874999 -2.65402052812500 -2.56780442812500 
 C -1.04342851874999 -3.13504252812500 -2.10794342812500 
 N -0.180486518749988 -7.15067552812500 -2.79707742812500 
 N -2.29378851874999 -6.29233852812500 -3.96117942812500 
 N -2.93112551874999 -6.58107252812500 -0.164965428125000 
 N -9.000651874998766E-002 -3.07995352812500 -3.02490842812500 
 N -2.26342751874999 -2.17746752812500 -3.81576342812500 
 N -2.68618751874999 -3.23816052812500 -6.840642812499986E-002
 S -0.787339518749988 -6.85985052812500 -4.29426242812500 
 S -3.64288751874999 -6.18752552812500 -1.55292342812500 
 S -1.31968751874999 -7.08227452812500 -0.259994428125000 
 S -0.676386518749988 -2.34249552812500 -4.33290042812500 
 S -3.58202751874999 -2.57388952812500 -1.27941642812500 
 S -1.12994851874999 -3.61915552812500 -0.455024428125000 
