16

 C -2.64426594375000 -6.64364779687500 -2.17490590000000 
 C -1.40660894375000 -7.02778179687500 -1.52697090000000 
 C -2.24303994375000 -2.50196379687500 -2.44440190000000 
 C -1.14002494375000 -3.24405579687500 -1.86271590000000 
 N -0.329120943749999 -7.07061979687500 -2.30855390000000 
 N -2.40078894375000 -6.27839979687500 -3.41203190000000 
 N -3.25251694375000 -6.96478979687500 0.309131099999999 
 N -9.954994374999870E-002 -3.44660579687500 -2.70042790000000 
 N -2.10325894375000 -2.21252279687500 -3.75744790000000 
 N -2.84240594375000 -2.90741079687500 4.961909999999947E-002
 S -0.820260943749998 -6.43538679687500 -3.74571190000000 
 S -4.03621694375000 -6.64405179687500 -1.15251790000000 
 S -1.64517194375000 -7.33389079687500 0.183748099999999 
 S -0.666365943749999 -2.85677579687500 -4.15997990000000 
 S -3.60907694375000 -2.34251179687500 -1.32688390000000 
 S -1.34572694375000 -3.54968879687500 -0.167914900000001 
