16

 C -2.24146193125000 -6.50198865000000 -2.49608127812500 
 C -1.09091493125000 -7.10737865000000 -1.82836027812500 
 C -2.35077593125000 -3.00250165000000 -2.30905927812500 
 C -1.19346593125000 -3.51557665000000 -1.64478427812500 
 N -6.172993125000215E-002 -7.22379965000000 -2.65758327812500 
 N -2.06702793125000 -6.21607865000000 -3.78183227812500 
 N -2.83787693125000 -6.77670065000000 1.947672187500138E-002
 N -0.123396931250002 -3.68247165000000 -2.44926527812500 
 N -2.28399293125000 -2.79422965000000 -3.58267527812500 
 N -2.95531593125000 -2.97151065000000 0.150814721875002 
 S -0.546474931250001 -6.80008865000000 -4.18895227812500 
 S -3.58556393125000 -6.20669765000000 -1.37661127812500 
 S -1.33245993125000 -7.40307865000000 -0.159434278124999 
 S -0.753601931250002 -3.16771865000000 -4.04074727812500 
 S -3.72441193125000 -2.77165265000000 -1.28098927812500 
 S -1.34901293125000 -3.53865065000000 8.270572187500158E-002
