16

 C -2.52856850937499 -6.52730150937501 -2.45846680625000 
 C -1.31001150937499 -6.99303350937501 -1.79384580625000 
 C -2.38820350937499 -2.63827250937501 -2.25229580625000 
 C -1.18734550937499 -3.19790450937501 -1.73565780625000 
 N -0.333491509374992 -7.15602550937501 -2.65693980625000 
 N -2.48738350937499 -6.38197550937501 -3.77337280625000 
 N -3.13962450937499 -6.82119950937501 0.125113193749997 
 N -0.182491509374993 -3.43640150937501 -2.55326480625000 
 N -2.33731950937499 -2.51029850937501 -3.58578380625000 
 N -2.82033750937499 -3.09997650937501 0.252687193749997 
 S -0.871974509374993 -6.74714950937501 -4.20369680625000 
 S -3.78931250937499 -6.40025750937501 -1.28498780625000 
 S -1.52133550937499 -7.23051350937501 -8.020280625000309E-002
 S -0.825974509374992 -2.91806850937501 -4.00619280625000 
 S -3.59272250937499 -2.42592550937501 -1.03612580625000 
 S -1.23191950937499 -3.53023850937501 -2.559380625000318E-002
