16

 C -2.37139354374999 -6.56012630000000 -2.39192194062500 
 C -1.19473154374999 -6.98060630000000 -1.70358094062500 
 C -2.22223554374999 -2.54705330000000 -2.16266894062500 
 C -1.10848654374999 -3.35189930000000 -1.71900594062500 
 N -0.184315543749993 -7.12328730000000 -2.56184094062500 
 N -2.27545454374999 -6.34043030000000 -3.69315794062500 
 N -2.97583754374999 -6.63468630000000 6.978605937500193E-002
 N -4.477554374999393E-002 -3.46967030000000 -2.51429494062500 
 N -1.94225754374999 -1.95150230000000 -3.31199194062500 
 N -2.84265754374999 -3.21499230000000 0.205501059375002 
 S -0.719153543749994 -6.68106230000000 -4.04205594062500 
 S -3.78325654374999 -6.40052830000000 -1.34200194062500 
 S -1.32452254374999 -7.09620430000000 -5.684940624998136E-003
 S -0.487295543749994 -2.60846230000000 -3.89467994062500 
 S -3.58248954374999 -2.57672430000000 -1.07686994062500 
 S -1.25702554374999 -3.72469430000000 8.055059375001949E-003
