16

 C -2.66897108750000 -6.42423961562501 -2.63143860000000 
 C -1.46913108750000 -6.82558261562501 -1.90333960000000 
 C -2.32306608750000 -2.90422461562501 -2.38280860000000 
 C -1.08929108750000 -3.25648561562501 -1.81713260000000 
 N -0.443536087500005 -6.96521761562501 -2.73221760000000 
 N -2.51130208750000 -6.13726661562501 -3.90600160000000 
 N -3.33626908750000 -6.63800361562501 -0.104360600000002 
 N -6.176308750000459E-002 -3.28731961562501 -2.63672160000000 
 N -2.28717708750000 -2.72158461562501 -3.69539060000000 
 N -2.72144108750000 -3.02974661562501 0.142292399999998 
 S -0.928298087500004 -6.43017361562501 -4.26279060000000 
 S -4.08571608750000 -6.36725061562501 -1.59786960000000 
 S -1.79422708750000 -7.27055261562501 -0.276558600000002 
 S -0.712772087500005 -3.06431661562501 -4.18571560000000 
 S -3.59621808750000 -2.68827461562501 -1.19546660000000 
 S -1.12486708750000 -3.52657361562501 -8.281260000000179E-002
