16

 C -2.69220782187500 -6.33467387187500 -2.72248116250000 
 C -1.46303882187500 -6.70291787187500 -2.05278316250000 
 C -2.44004782187500 -2.88604087187500 -2.45499916250000 
 C -1.15582282187500 -3.15021087187500 -1.89481216250000 
 N -0.429848821874996 -6.71443687187500 -2.88574916250000 
 N -2.60929682187500 -6.08376787187500 -4.06567216250000 
 N -3.35696582187500 -6.94324187187500 -0.241490162500000 
 N -0.100581821874996 -3.27420787187500 -2.73434516250000 
 N -2.41395182187500 -2.69152287187500 -3.77963516250000 
 N -2.80022282187500 -2.98701687187500 8.372783749999968E-002
 S -0.963939821874995 -6.26359787187500 -4.39905816250000 
 S -4.04441482187500 -6.23694887187500 -1.58311716250000 
 S -1.67684682187500 -6.97389387187500 -0.327136162500000 
 S -0.838407821874996 -3.00155687187500 -4.19711716250000 
 S -3.72037082187500 -2.65697987187500 -1.24840316250000 
 S -1.19538582187500 -3.20154887187500 -9.411216250000032E-002
