16

 C -2.54151227500000 -6.52368311250000 -2.12736702500000 
 C -1.34599327500000 -7.04969011250000 -1.46754702500000 
 C -2.34626027500000 -2.53065211250000 -2.44908002500000 
 C -1.14046527500000 -3.19060511250000 -1.84862502500000 
 N -0.298310274999996 -7.07060811250000 -2.28182502500000 
 N -2.42941827500000 -6.16856511250000 -3.40262002500000 
 N -3.26123527500000 -7.01398711250000 0.270208974999999 
 N -0.201440274999996 -3.40197111250000 -2.73906802500000 
 N -2.14700427500000 -2.17834211250000 -3.70936102500000 
 N -2.84279127500000 -2.93591811250000 4.069497499999875E-002
 S -0.799297274999995 -6.45224711250000 -3.78075202500000 
 S -3.97561827500000 -6.67755611250000 -1.17055602500000 
 S -1.60728527500000 -7.40583511250000 0.215527974999999 
 S -0.646878274999996 -2.87308311250000 -4.24311302500000 
 S -3.60705127500000 -2.35741611250000 -1.31964602500000 
 S -1.24106727500000 -3.50745311250000 -0.145868025000001 
