16

 C -2.22854781250000 -6.82235645312500 -2.43991680000000 
 C -1.10335181250000 -7.42024345312500 -1.80087080000000 
 C -2.55759081250000 -2.62451345312500 -2.54685580000000 
 C -1.34451281250000 -3.00691545312500 -1.84496980000000 
 N -0.114843812499999 -7.77294945312500 -2.60411580000000 
 N -2.06536981250000 -6.62075345312500 -3.74384080000000 
 N -2.69866381250000 -6.84371145312500 9.813419999999784E-002
 N -0.351486812499999 -3.34908745312500 -2.64207080000000 
 N -2.48070181250000 -2.72930445312500 -3.86071680000000 
 N -3.27439181250000 -2.86774245312500 -0.133432800000002 
 S -0.640647812499999 -7.31681645312500 -4.08427780000000 
 S -3.52988581250000 -6.38340145312500 -1.35152880000000 
 S -1.21258881250000 -7.56406145312500 -0.137739800000002 
 S -0.870851812500000 -3.19019145312500 -4.18302080000000 
 S -3.91855681250000 -2.40598245312500 -1.60870780000000 
 S -1.64011381250000 -3.06762745312500 -0.139356800000002 
