16

 C -2.37001502812499 -6.39374860000000 -2.38828765625000 
 C -1.19854502812499 -6.95239560000000 -1.65881665625000 
 C -2.51116702812499 -2.59309360000000 -2.55361265625000 
 C -1.24051502812499 -3.04221860000000 -2.00568565625000 
 N -0.106471028124994 -7.20029560000000 -2.35605765625000 
 N -2.04739902812499 -6.08976960000000 -3.62741665625000 
 N -2.93454502812499 -6.31151360000000 0.145034343750001 
 N -0.212312028124994 -3.07361960000000 -2.87732965625000 
 N -2.47038102812499 -2.40012460000000 -3.89526065625000 
 N -2.93999702812499 -2.93887560000000 4.449343750000612E-003
 S -0.469018028124993 -6.69784560000000 -3.86440165625000 
 S -3.64428802812499 -5.86963360000000 -1.28552265625000 
 S -1.35636202812499 -6.95092860000000 5.173134375000044E-002
 S -0.882837028124993 -2.54318660000000 -4.30378365625000 
 S -3.78480602812499 -2.38256960000000 -1.34670065625000 
 S -1.39800002812499 -3.38643860000000 -0.334999656250000 
