16

 C -2.24192409375000 -6.40294617187499 -2.28775520625000 
 C -1.00106309375000 -6.86801117187499 -1.80800520625000 
 C -2.66170209375000 -2.53366417187499 -2.47902620625000 
 C -1.56172109375000 -3.15957617187499 -1.81739620625000 
 N -3.826309375000037E-002 -6.88095417187499 -2.71411520625000 
 N -2.22667509375000 -6.08193217187499 -3.56087320625000 
 N -2.53327309375000 -6.67528417187499 0.255266793749998 
 N -0.508693093750000 -3.32309617187499 -2.66006020625000 
 N -2.50327209375000 -2.30541917187499 -3.80185720625000 
 N -3.35815809375000 -2.97307617187499 -3.543920625000174E-002
 S -0.701255093750000 -6.44214717187499 -4.13606420625000 
 S -3.48622209375000 -6.26856017187499 -1.09405620625000 
 S -1.01040409375000 -7.20398417187499 -0.122558206250002 
 S -0.940404093750001 -2.82980317187499 -4.12373820625000 
 S -4.07152909375000 -2.35598617187499 -1.43595120625000 
 S -1.71024009375000 -3.36052217187499 -0.110697206250002 
