16

 C -2.49311682500000 -6.36257011874999 -2.56913257812500 
 C -1.32461482500000 -6.71132211874999 -1.79632157812500 
 C -2.27625682500000 -2.59565911874999 -2.37678957812500 
 C -1.14374882500000 -3.29963311874999 -1.74113457812500 
 N -0.165835825000004 -6.93845411874999 -2.43451957812500 
 N -2.20739682500000 -6.27510911874999 -3.85491157812500 
 N -3.24698882500000 -6.59292711874999 -0.117780578125001 
 N -0.221896825000004 -3.64014211874999 -2.65788257812500 
 N -2.19849482500000 -2.48968111874999 -3.70345157812500 
 N -3.00091382500000 -2.86238211874999 4.943342187499944E-002
 S -0.591289825000004 -6.76842211874999 -4.06193357812500 
 S -3.86818582500000 -6.13071511874999 -1.63323157812500 
 S -1.63124582500000 -6.81613511874999 -9.965157812500047E-002
 S -0.674848825000004 -3.04778011874999 -4.12371857812500 
 S -3.70930282500000 -2.30953911874999 -1.36774057812500 
 S -1.43646982500000 -3.38392111874999 -1.215957812500057E-002
