16

 C -2.39457616875000 -6.34177886562500 -2.55121973437500 
 C -1.12035916875000 -6.62910886562500 -1.94518973437500 
 C -2.79192916875000 -2.77706286562500 -2.35000373437500 
 C -1.58420016875000 -3.29631786562500 -1.70255673437500 
 N -0.143628168750004 -6.84542286562500 -2.82526573437500 
 N -2.40743016875000 -6.34885886562500 -3.87214173437500 
 N -2.80544616875000 -6.33615386562500 -8.357343750016177E-004
 N -0.590131168750004 -3.48349486562500 -2.53703573437500 
 N -2.67882816875000 -2.54506786562500 -3.64726573437500 
 N -3.27808716875000 -2.88217286562500 0.212316265624998 
 S -0.822296168750004 -6.66510886562500 -4.34414573437500 
 S -3.64713216875000 -6.09771686562500 -1.39704673437500 
 S -1.16576916875000 -6.66714786562500 -0.165908734375002 
 S -1.14401616875000 -3.14463686562500 -4.05082673437500 
 S -4.04537516875000 -2.59111786562500 -1.22273673437500 
 S -1.67059916875000 -3.28114886562500 4.445265624998251E-003
