16

 C -2.39810405000000 -6.50476991875000 -2.57976682187500 
 C -1.17699105000000 -6.97185891875000 -1.91739682187500 
 C -2.64014705000000 -2.51170391875000 -2.30583482187500 
 C -1.53073805000000 -3.21133891875000 -1.66171182187500 
 N -0.186143050000002 -7.10206091875000 -2.78174682187500 
 N -2.29653905000000 -6.26988291875000 -3.88978782187500 
 N -2.97349405000000 -6.84134591875000 -3.778182187499857E-002
 N -0.489216050000001 -3.49451091875000 -2.47090682187500 
 N -2.44386205000000 -2.41907591875000 -3.62970182187500 
 N -3.32383705000000 -2.89064091875000 0.129530178125001 
 S -0.686592050000002 -6.61650391875000 -4.27934582187500 
 S -3.71798205000000 -6.37237991875000 -1.49100082187500 
 S -1.33332505000000 -7.13838691875000 -0.229718821874999 
 S -0.974182050000001 -2.95075891875000 -3.98998782187500 
 S -3.97355205000000 -2.21857891875000 -1.22313782187500 
 S -1.78109005000000 -3.30714091875000 4.066117812500125E-002
