16

 C -2.19890864062501 -6.16833312812500 -2.12158918437500 
 C -1.03796964062501 -6.85218512812500 -1.47988318437500 
 C -2.41176164062501 -2.63922912812500 -2.65103118437500 
 C -1.20496064062501 -3.07397112812500 -2.00662518437500 
 N -1.154764062500568E-002 -6.92561812812500 -2.30853818437500 
 N -2.04865564062501 -5.90045612812500 -3.43325118437500 
 N -2.85594864062501 -6.62514112812500 0.285831815625001 
 N -0.217960640625006 -3.39736612812500 -2.86541718437500 
 N -2.29045964062501 -2.57647412812500 -3.96240318437500 
 N -2.94838064062501 -2.99953912812500 -0.162613184374999 
 S -0.524294640625007 -6.50533512812500 -3.82456018437500 
 S -3.63568864062501 -6.23591112812500 -1.12167518437500 
 S -1.29521664062501 -7.32448412812500 0.119556815625001 
 S -0.731131640625006 -3.01377412812500 -4.40502318437500 
 S -3.71857764062501 -2.49507112812500 -1.55472418437500 
 S -1.34482064062501 -3.22046312812500 -0.295292184374999 
