16

 C -2.33757225937500 -6.04589366250000 -2.33554490625000 
 C -1.18711925937500 -6.78149666250000 -1.80049590625000 
 C -2.73555925937500 -2.42458966250000 -2.70910790625000 
 C -1.48941025937500 -2.86468766250000 -2.06420390625000 
 N -0.288766259374995 -7.14538466250000 -2.72597390625000 
 N -2.34334225937500 -5.88697966250000 -3.65899890625000 
 N -2.71331825937500 -6.36262666250000 0.198160093749999 
 N -0.436954259374995 -3.12203766250000 -2.88171590625000 
 N -2.60268425937500 -2.39321466250000 -4.03613390625000 
 N -3.10310225937500 -2.40855066250000 -0.201694906250001 
 S -0.921593259374995 -6.55572566250000 -4.16254590625000 
 S -3.55265625937500 -5.75311166250000 -1.09146490625000 
 S -1.24062125937500 -7.09673266250000 -0.111750906250001 
 S -1.05660425937500 -2.77741466250000 -4.44266390625000 
 S -4.01062225937500 -2.11248366250000 -1.55300490625000 
 S -1.52784925937500 -2.88868266250000 -0.340407906250001 
