16

 C -2.11395961875000 -6.46847305625000 -2.36483910937500 
 C -0.945654618750000 -7.03015305625000 -1.75116810937500 
 C -2.67825761875000 -2.53556005625000 -2.48763110937500 
 C -1.43077461875000 -2.94992805625000 -1.80073910937500 
 N 3.900838124999950E-002 -7.29585205625000 -2.59496510937500 
 N -2.05295361875000 -6.36545605625000 -3.68741610937500 
 N -2.68228361875000 -6.72062405625000 0.109439890625000 
 N -0.403526618750000 -3.16828705625000 -2.62774310937500 
 N -2.53331261875000 -2.27442605625000 -3.79296910937500 
 N -3.15001061875000 -2.68052205625000 7.015489062499980E-002
 S -0.513218618750000 -6.88381705625000 -4.10620010937500 
 S -3.39818361875000 -6.23893805625000 -1.29753410937500 
 S -1.07796261875000 -7.18991505625000 -4.257109375000345E-003
 S -1.01050761875000 -2.81585405625000 -4.14997610937500 
 S -3.93984261875000 -2.20228305625000 -1.30611810937500 
 S -1.50124161875000 -3.05986405625000 -5.334410937500023E-002
