16

 C -2.29673761875000 -6.54341898437500 -2.39747995937500 
 C -1.06347661875000 -7.04166298437500 -1.81348095937500 
 C -2.41614061875000 -2.99718898437500 -2.41677995937500 
 C -1.14729461875000 -3.28414698437500 -1.76756595937500 
 N -6.306361874999844E-002 -7.05482998437500 -2.69741795937500 
 N -2.22134261875000 -6.06782498437500 -3.64590195937500 
 N -2.83568561875000 -6.77977798437500 0.136650040624999 
 N -0.137936618749999 -3.37138998437500 -2.59661595937500 
 N -2.28751861875000 -2.86221598437500 -3.75482195937500 
 N -2.95711561875000 -3.45831998437500 3.766704062499859E-002
 S -0.727567618749998 -6.49936498437500 -4.16902495937500 
 S -3.58706761875000 -6.29091398437500 -1.24700295937500 
 S -1.24980561875000 -7.35075098437500 -5.443795937500151E-002
 S -0.693411618749998 -3.13230498437500 -4.08579095937500 
 S -3.76335661875000 -2.83304098437500 -1.33071395937500 
 S -1.32632661875000 -3.66438898437500 -0.104419959375001 
