16

 C -2.33581387812500 -6.42336004687500 -2.47634308750000 
 C -1.04878587812500 -6.88925104687500 -1.94556808750000 
 C -2.45822787812500 -2.52333404687500 -2.48493308750000 
 C -1.28991487812500 -3.18630104687500 -1.90159608750000 
 N -0.173270878124997 -7.33635304687500 -2.82262308750000 
 N -2.29161787812500 -6.51878404687500 -3.80800208750000 
 N -2.59137487812500 -6.40056204687500 0.119003912500000 
 N -0.356403878124998 -3.47565704687500 -2.79883108750000 
 N -2.39625487812500 -2.28254904687500 -3.77627908750000 
 N -2.97595787812500 -3.04754704687500 -4.853808750000033E-002
 S -0.839426878124997 -7.12082804687500 -4.34048708750000 
 S -3.55582987812500 -6.28145604687500 -1.25481008750000 
 S -1.04903987812500 -6.88785904687500 -0.116271087500000 
 S -0.976285878124997 -3.07320304687500 -4.25106808750000 
 S -3.73397587812500 -2.29197204687500 -1.34292708750000 
 S -1.40092087812500 -3.42615504687500 -0.242533087500000 
