16

 C -2.27619795937500 -6.34691050000001 -2.33167180000000 
 C -1.19493995937500 -6.94250150000001 -1.60755580000000 
 C -2.52799495937500 -2.64464250000001 -2.61488680000000 
 C -1.26463095937500 -3.01365450000001 -2.04151680000000 
 N -0.128343959375003 -7.19308750000001 -2.33680180000000 
 N -1.98416295937500 -6.11209050000001 -3.60758480000000 
 N -2.90313695937500 -6.44142950000001 0.170050200000001 
 N -0.241956959375003 -3.06928350000001 -2.86510480000000 
 N -2.48384795937500 -2.44211150000001 -3.93445680000000 
 N -2.98887395937500 -3.02049650000001 -6.798179999999920E-002
 S -0.455878959375002 -6.64422250000001 -3.88430280000000 
 S -3.60233995937500 -5.88056650000001 -1.21874480000000 
 S -1.35162495937500 -6.97466250000001 0.120195200000001 
 S -0.881291959375003 -2.65974950000001 -4.35207480000000 
 S -3.75072895937500 -2.41399650000001 -1.40138680000000 
 S -1.36318095937500 -3.38770550000001 -0.302237799999999 
