16

 C -2.54411607812499 -6.53084583750000 -2.41709641562500 
 C -1.44762907812499 -7.08586483750000 -1.68767841562500 
 C -2.32297707812499 -2.78627383750000 -2.51474841562500 
 C -1.12678107812499 -3.24295783750000 -1.82849541562500 
 N -0.398414078124993 -7.37276683750000 -2.43782541562500 
 N -2.33045707812499 -6.37531683750000 -3.70359441562500 
 N -3.33265207812499 -6.50974883750000 1.712458437499809E-002
 N -0.103219078124994 -3.46059983750000 -2.70237041562500 
 N -2.14192707812499 -2.49819883750000 -3.79212741562500 
 N -3.01929407812499 -2.96139183750000 -4.165441562500183E-002
 S -0.769876078124994 -6.96130483750000 -3.99885641562500 
 S -3.85865107812499 -6.03595583750000 -1.44896641562500 
 S -1.73667307812499 -7.03951483750000 3.182958437499828E-002
 S -0.614689078124994 -3.00446083750000 -4.15122941562500 
 S -3.69703307812499 -2.64713683750000 -1.52193441562500 
 S -1.36653107812499 -3.36395183750000 -0.128355415625002 
