16

 C -2.53419460937500 -6.25844116874999 -2.46003583750000 
 C -1.28457060937500 -6.57948416874999 -1.86663683750000 
 C -2.40966660937500 -2.92647116874999 -2.52692083750000 
 C -1.16574560937500 -3.16063616874999 -1.80698883750000 
 N -0.269569609375000 -6.65363116874999 -2.71808183750000 
 N -2.50158060937500 -6.11919916874999 -3.78871183750000 
 N -3.05663560937500 -6.51415316874999 2.584216249999916E-002
 N -0.102913609375000 -3.41422216874999 -2.55697083750000 
 N -2.31193160937500 -2.96954416874999 -3.84942283750000 
 N -3.02560560937500 -2.77641816874999 -7.504583750000071E-002
 S -0.925381609375000 -6.47653116874999 -4.23485383750000 
 S -3.75538560937500 -6.02108216875000 -1.32994783750000 
 S -1.41851560937500 -6.80522816874999 -0.143890837500001 
 S -0.731548609375000 -3.41469116874999 -4.13351283750000 
 S -3.76991860937500 -2.70288616874999 -1.52888483750000 
 S -1.44652860937500 -3.14619116874999 -0.156465837500001 
