16

 C -2.57880249375000 -6.49473175312499 -2.21484841562500 
 C -1.36311849375000 -6.96993775312499 -1.62294341562500 
 C -2.45740649375000 -2.89100675312499 -2.23611241562500 
 C -1.18958549375000 -3.23581875312499 -1.61693041562500 
 N -0.330669493749998 -7.03002175312499 -2.45025541562500 
 N -2.48260849375000 -6.21461375312499 -3.49969941562500 
 N -3.08586749375000 -6.62782475312499 0.297566584375000 
 N -0.179561493749997 -3.46537375312499 -2.45387041562500 
 N -2.34619549375000 -2.87634575312499 -3.57337241562500 
 N -2.95479249375000 -3.04962775312499 0.324631584375000 
 S -0.910582493749997 -6.56896275312499 -3.96322741562500 
 S -3.96212949375000 -6.21445475312499 -1.12393441562500 
 S -1.49258649375000 -7.10291475312499 0.139362584375000 
 S -0.804181493749997 -3.26254275312499 -3.99531641562500 
 S -3.81425649375000 -2.78087575312499 -1.05626641562500 
 S -1.30755949375000 -3.34460275312499 0.142877584375000 
