16

 C -2.63936065312500 -6.32627083750000 -2.58195968750000 
 C -1.46377665312500 -6.85727783750000 -1.94752968750000 
 C -2.69453665312500 -2.61213983750000 -2.51032668750000 
 C -1.56538565312500 -3.18311683750000 -1.79121368750000 
 N -0.346927653124996 -6.92112983750000 -2.68769768750000 
 N -2.44658265312500 -6.06986383750000 -3.90276468750000 
 N -3.18602865312500 -6.64204583750000 -4.911968749999840E-002
 N -0.549964653124996 -3.41474483750000 -2.53146268750000 
 N -2.45165365312500 -2.32618083750000 -3.79008368750000 
 N -3.41840465312500 -2.79913683750000 -2.580368749999851E-002
 S -0.878552653124996 -6.45529783750000 -4.20054868750000 
 S -3.94701965312500 -6.06281183750000 -1.45610068750000 
 S -1.61651965312500 -7.12144383750000 -0.222485687499999 
 S -0.916827653124995 -2.79945783750000 -4.10593468750000 
 S -4.11947365312500 -2.53056783750000 -1.47785068750000 
 S -1.86182065312500 -3.44605683750000 -0.110511687499999 
