16

 C -2.17269667187500 -6.52076124687499 -2.52073312187500 
 C -1.02951567187500 -7.06581724687499 -1.82250712187500 
 C -2.66600267187500 -2.36474124687499 -2.39306512187500 
 C -1.50329667187500 -2.94838124687499 -1.77051112187500 
 N -1.691667187500201E-002 -7.31683624687499 -2.60931512187500 
 N -2.07356967187500 -6.37416924687499 -3.83281312187500 
 N -2.70240067187500 -6.54361724687499 2.874487812500393E-002
 N -0.493884671875001 -3.23830824687499 -2.59400512187500 
 N -2.51920267187500 -2.19088524687499 -3.71227912187500 
 N -3.23076167187500 -2.64630724687499 3.941387812500374E-002
 S -0.468841671875002 -6.84100024687499 -4.15454112187500 
 S -3.47097067187500 -6.11216224687499 -1.38660212187500 
 S -1.26033067187500 -7.33318224687499 -0.129579121874996 
 S -1.00604867187500 -2.87191524687499 -4.14124012187500 
 S -3.88332967187500 -1.86198524687499 -1.31117412187500 
 S -1.67949267187500 -3.19142924687499 -3.438112187499609E-002
