16

 C -2.33025260937499 -6.34041879062500 -2.14390212187500 
 C -1.11915360937499 -6.94396979062500 -1.57606712187500 
 C -2.26047460937500 -2.77591479062500 -2.65770212187500 
 C -1.07219060937499 -3.10815079062500 -1.87835612187500 
 N -0.145849609374995 -7.00548579062500 -2.46340212187500 
 N -2.35831960937499 -6.09163479062500 -3.45808212187500 
 N -2.90698760937499 -6.96170779062500 0.303622878125000 
 N 5.288390625004524E-003 -3.21839879062500 -2.65023112187500 
 N -2.04476960937499 -2.66215879062500 -3.95045912187500 
 N -2.87063460937499 -2.61592479062500 -0.143606121875000 
 S -0.754287609374995 -6.41728979062500 -3.88202512187500 
 S -3.70603360937499 -6.43109179062500 -0.995201121875000 
 S -1.30252060937500 -7.44640679062500 6.795587812500026E-002
 S -0.448324609374994 -3.04639679062500 -4.25094812187500 
 S -3.57545760937500 -2.30021879062500 -1.64297112187500 
 S -1.30703160937500 -3.21104779062500 -0.162705121875000 
