16

 C -2.57590683125000 -6.31885905312500 -2.52841240000000 
 C -1.41849183125000 -7.01862705312500 -1.97203340000000 
 C -2.41612983125000 -2.61584005312500 -2.43728340000000 
 C -1.27656283125000 -3.22828105312500 -1.78619840000000 
 N -0.407566831249997 -7.14369905312500 -2.76983140000000 
 N -2.40049883125000 -5.90311005312500 -3.77768540000000 
 N -3.05531483125000 -6.79967405312500 -8.121340000000044E-002
 N -0.239503831249997 -3.35016105312500 -2.64598140000000 
 N -2.34640783125000 -2.51208205312500 -3.75814640000000 
 N -3.01847283125000 -2.69516405312500 9.647259999999958E-002
 S -0.869258831249997 -6.45837105312500 -4.23730340000000 
 S -3.82451583125000 -6.06678505312500 -1.39209340000000 
 S -1.57718183125000 -7.49464205312500 -0.340918400000001 
 S -0.812044831249997 -2.98498905312500 -4.14545940000000 
 S -3.70336983125000 -2.18048905312500 -1.38560240000000 
 S -1.60899483125000 -3.48559405312500 -7.821940000000049E-002
