16

 C -2.50989458125000 -6.40097713125001 -2.36816927187500 
 C -1.32482758125000 -6.89180713125001 -1.73352227187500 
 C -2.66139258125000 -3.00057613125001 -2.49151827187500 
 C -1.44224158125000 -3.38496313125001 -1.83904227187500 
 N -0.327326581249998 -7.13081713125001 -2.58868727187500 
 N -2.44003158125000 -6.23418013125001 -3.67157327187500 
 N -3.07249858125000 -6.65137613125001 8.393672812499919E-002
 N -0.400619581249998 -3.43027313125001 -2.63622427187500 
 N -2.54487658125000 -2.76699113125001 -3.79889227187500 
 N -3.12210058125000 -3.05941213125001 6.817472812499936E-002
 S -0.914341581249998 -6.63351113125001 -4.01705327187500 
 S -3.78538858125000 -6.14197413125001 -1.30082727187500 
 S -1.46302458125000 -7.00205113125001 -5.461827187500079E-002
 S -0.912267581249998 -3.16682113125001 -4.16842827187500 
 S -3.97495958125000 -3.02476513125001 -1.37910527187500 
 S -1.57474258125000 -3.62245013125001 -0.122536271875001 
