16

 C -2.48184914687501 -6.47698278437501 -2.21166362187500 
 C -1.22857514687501 -6.92806378437501 -1.74088562187500 
 C -2.53297814687501 -2.79002878437501 -2.50266462187500 
 C -1.39298414687501 -3.40357878437501 -1.79331862187500 
 N -0.200456146875013 -7.05342778437501 -2.61350762187500 
 N -2.44579014687501 -6.19592678437501 -3.52103962187500 
 N -2.85074814687501 -7.06476678437501 0.311079378124998 
 N -0.320647146875012 -3.60817578437501 -2.54795362187500 
 N -2.33949014687501 -2.60603178437501 -3.82613262187500 
 N -3.27784314687501 -3.08965878437501 -4.391762187500214E-002
 S -0.867288146875012 -6.55163778437501 -4.03966362187500 
 S -3.71576414687501 -6.36558878437501 -0.951445621875002 
 S -1.19802514687501 -7.38370578437501 -2.800362187500216E-002
 S -0.775188146875013 -3.16209478437501 -4.07446262187500 
 S -3.82172314687501 -2.37613778437501 -1.41210862187500 
 S -1.68106214687501 -3.60860578437501 -3.360462187500213E-002
