16

 C -2.42903795312500 -6.51413037500000 -2.34599852812500 
 C -1.17009595312500 -6.84751537500000 -1.71050552812500 
 C -2.37879895312500 -2.95334337500000 -2.26644652812500 
 C -1.04677095312500 -3.39003737500000 -1.72270052812500 
 N -0.215974953125000 -7.06014737500000 -2.59032152812500 
 N -2.45047895312500 -6.34628037500000 -3.65135352812500 
 N -2.90677995312500 -6.74231337500000 0.160260471875001 
 N -4.341795312500096E-002 -3.46002137500000 -2.61966652812500 
 N -2.32436495312500 -2.68956237500000 -3.57633152812500 
 N -2.70561995312500 -3.38784537500000 0.300200471875001 
 S -0.871436953125000 -6.65740837500000 -4.05337752812500 
 S -3.78292995312500 -6.33610237500000 -1.25146552812500 
 S -1.25334195312500 -7.01496137500000 -1.072952812499928E-002
 S -0.768226953125001 -3.09678137500000 -4.04288052812500 
 S -3.61359995312500 -3.05763337500000 -1.02407952812500 
 S -1.04293295312500 -3.63622237500000 6.839471875000669E-003
