16

 C -2.56927821250000 -6.18815988750000 -2.27362404375000 
 C -1.39928721250000 -6.88225388750000 -1.72587204375000 
 C -2.24600321250000 -2.32836988750000 -2.48459904375000 
 C -1.09066421250000 -2.91324488750000 -1.86828204375000 
 N -0.409948212500002 -7.20558588750000 -2.58981004375000 
 N -2.40945121250000 -6.01618088750000 -3.59898704375000 
 N -3.14684621250000 -6.68167388750000 0.213916956250000 
 N -4.799321250000244E-002 -3.07958988750000 -2.66939804375000 
 N -2.18753521250000 -2.22611588750000 -3.79797304375000 
 N -2.88043321250000 -2.54839888750000 -1.940437499996506E-004
 S -0.890257212500003 -6.55126188750000 -4.00127404375000 
 S -3.89303521250000 -6.05781388750000 -1.13692704375000 
 S -1.55454821250000 -7.23188988750000 -2.667404374999993E-002
 S -0.692897212500003 -2.70582588750000 -4.26067704375000 
 S -3.56846021250000 -1.99747588750000 -1.42321804375000 
 S -1.35445921250000 -3.23083888750000 -0.152641043750000 
