16

 C -2.50608980000000 -6.48810539062500 -2.50363794687500 
 C -1.31973580000000 -6.71883839062500 -1.78181094687500 
 C -2.59263980000000 -2.57613039062500 -2.46631594687500 
 C -1.36700980000000 -3.05134439062500 -1.83233094687500 
 N -0.233137799999995 -6.75491539062500 -2.53705694687500 
 N -2.43401680000000 -6.29003439062500 -3.82390494687500 
 N -3.19737680000000 -6.67013139062500 -4.570794687500213E-002
 N -0.322270799999996 -3.22376239062500 -2.63288494687500 
 N -2.48265980000000 -2.37394839062500 -3.78666494687500 
 N -2.98680680000000 -2.61883339062500 0.112176053124998 
 S -0.767658799999995 -6.45104239062500 -4.09829694687500 
 S -3.91128280000000 -6.44464339062500 -1.53473694687500 
 S -1.62371880000000 -6.92133339062500 -5.944594687500193E-002
 S -0.962258799999995 -2.80966139062500 -4.13955994687500 
 S -3.76850280000000 -2.24781539062500 -1.31047394687500 
 S -1.46851880000000 -3.19244339062500 -0.109890946875002 
