16

 C -2.51685535312500 -6.83750441562501 -2.38132879062500 
 C -1.21702335312500 -7.03848041562501 -1.77969079062500 
 C -2.17903335312500 -2.89426141562501 -2.45325979062500 
 C -1.01087135312500 -3.32905941562501 -1.70839779062500 
 N -0.138948353125000 -6.86736741562501 -2.63531979062500 
 N -2.41245435312500 -6.45968341562501 -3.65320379062500 
 N -3.10451935312500 -7.12913941562501 0.135621209374999 
 N 6.452964687500007E-002 -3.53769041562501 -2.45624779062500 
 N -1.97198235312500 -2.79680441562501 -3.77804579062500 
 N -2.87276935312500 -3.01350941562501 4.567220937499927E-002
 S -0.831137353124999 -6.51182641562501 -4.10912879062500 
 S -3.85322135312500 -6.88200941562501 -1.28205279062500 
 S -1.40419635312500 -7.18342941562501 3.012920937499919E-002
 S -0.402635353125000 -3.21135541562501 -4.03583379062500 
 S -3.58330735312500 -2.67352041562501 -1.39126979062500 
 S -1.25055235312500 -3.52074641562501 -8.446879062500079E-002
