16

 C -2.34474246875000 -6.27835371250000 -2.23440208750000 
 C -1.13616046875000 -6.74914871250000 -1.55888008750000 
 C -2.35143646875000 -2.50192371250000 -2.12521308750000 
 C -1.13535846875000 -3.14827371250000 -1.65010308750000 
 N -8.121446875000160E-002 -6.96572071250000 -2.34206408750000 
 N -2.19216946875000 -6.13160271250000 -3.52129308750000 
 N -3.03916446875000 -6.56916771250000 0.165208912500000 
 N -0.108489468750001 -3.11814771250000 -2.49694108750000 
 N -2.19656946875000 -1.96773471250000 -3.33251708750000 
 N -2.91858546875000 -3.39741271250000 0.266542912500000 
 S -0.664013468750001 -6.64161071250000 -3.89261608750000 
 S -3.72083446875000 -6.07881471250000 -1.31898508750000 
 S -1.44172646875000 -7.07958671250000 0.130843912500000 
 S -0.651197468750001 -2.46147471250000 -3.85784308750000 
 S -3.63414246875000 -2.48923071250000 -0.925719087500000 
 S -1.32925346875000 -3.76702371250000 -9.009308750000011E-002
