16

 C -2.47943189687499 -6.52347923437500 -2.51056769375000 
 C -1.21410089687499 -6.83652923437500 -1.83906069375000 
 C -2.59443989687499 -2.77385923437500 -2.42347169375000 
 C -1.40137789687499 -3.23375723437500 -1.71595769375000 
 N -9.182389687499359E-002 -6.90503723437500 -2.53666869375000 
 N -2.22865489687499 -6.27455123437500 -3.80066869375000 
 N -2.96772389687499 -6.57926623437500 9.628306249998664E-003
 N -0.283962896874994 -3.40866623437500 -2.45421669375000 
 N -2.41730189687499 -2.62847723437500 -3.74724469375000 
 N -3.33710689687499 -3.09025823437500 -4.171269375000142E-002
 S -0.596785896874994 -6.55480623437500 -4.05940669375000 
 S -3.78665689687499 -6.33688423437500 -1.43110169375000 
 S -1.31579289687499 -6.84380623437500 -0.143599693750001 
 S -0.828461896874994 -2.88427423437500 -3.95008769375000 
 S -4.01594489687499 -2.50350723437500 -1.45625269375000 
 S -1.72755389687499 -3.42314923437500 9.343062499986843E-004
