16

 C -2.28028803437501 -6.61724435312500 -2.53130415312500 
 C -1.02168803437501 -6.96144035312500 -1.95396815312500 
 C -2.49427703437501 -2.49772335312500 -2.50036215312500 
 C -1.28912903437501 -3.11548435312500 -1.94273315312500 
 N -7.119503437500541E-002 -7.40989835312500 -2.79540815312500 
 N -2.28096303437501 -6.67460035312500 -3.84216215312500 
 N -2.67112203437501 -6.40233035312500 -6.899515312499904E-002
 N -0.395778034375006 -3.37277335312500 -2.87421915312500 
 N -2.53161803437501 -2.48566635312500 -3.85460415312500 
 N -2.96475203437501 -2.90742635312500 5.397084687500109E-002
 S -0.849047034375006 -7.34535135312500 -4.26657515312500 
 S -3.54588403437501 -6.30306935312500 -1.47155315312500 
 S -1.06769303437501 -6.92031935312500 -0.232933153124999 
 S -0.969318034375005 -2.99691635312500 -4.36351715312500 
 S -3.71621303437501 -2.21411335312500 -1.28997515312500 
 S -1.41971303437501 -3.45725035312500 -0.259998153124999 
