16

 C -2.44658424375000 -6.59232918437500 -2.25212045937500 
 C -1.19023124375000 -6.77510618437500 -1.57349045937500 
 C -2.38844524375000 -2.79936418437500 -2.54725945937500 
 C -1.17768824375000 -3.23548518437500 -1.95901945937500 
 N -0.138264243749997 -6.82165818437500 -2.36437645937500 
 N -2.38208524375000 -6.47053218437500 -3.57277845937500 
 N -2.91754724375000 -6.83403218437500 0.230457540625001 
 N -0.174056243749997 -3.50873618437500 -2.78528645937500 
 N -2.26862824375000 -2.58967018437500 -3.87561145937500 
 N -2.80343324375000 -2.95577918437500 -6.412459374999235E-003
 S -0.747555243749997 -6.69812618437500 -3.89803145937500 
 S -3.77356024375000 -6.73581718437500 -1.18011345937500 
 S -1.32489424375000 -7.01654718437500 9.624154062500079E-002
 S -0.792941243749997 -3.08535018437500 -4.28537145937500 
 S -3.58527724375000 -2.41669218437500 -1.39454945937500 
 S -1.20466224375000 -3.40935218437500 -0.247328459374999 
