16

 C -2.51037773749999 -6.69656397812500 -2.38634041562500 
 C -1.44208073749999 -7.28565497812500 -1.65074741562500 
 C -2.50900473749999 -2.50883797812500 -2.40567441562500 
 C -1.38725773749999 -3.10470197812500 -1.80342041562500 
 N -0.449781737499994 -7.58995797812500 -2.45424441562500 
 N -2.36285273749999 -6.63752397812500 -3.67904641562500 
 N -3.07300673749999 -6.57602397812500 8.869258437499683E-002
 N -0.355145737499994 -3.35202397812500 -2.60758641562500 
 N -2.33585673749999 -2.25621697812500 -3.71107741562500 
 N -3.19710073749999 -2.97973597812500 2.359584374996837E-003
 S -0.765581737499994 -7.07760097812500 -4.00722241562500 
 S -3.82819473749999 -6.11387397812500 -1.30978341562500 
 S -1.50579373749999 -7.22779197812500 2.800958437499679E-002
 S -0.879700737499994 -2.98970897812500 -4.14552741562500 
 S -3.83749973749999 -2.26837997812500 -1.33086141562500 
 S -1.59296573749999 -3.34858997812500 -7.289341562500318E-002
