16

 C -2.52497888125000 -6.12961903124999 -2.23919198125000 
 C -1.29563588125000 -6.65620203124999 -1.67467198125000 
 C -2.52700488125000 -2.52709003124999 -2.48667498125000 
 C -1.33112988125000 -2.97535303124999 -1.80129598125000 
 N -0.300843881250003 -6.91137203124999 -2.53490198125000 
 N -2.43981088125000 -5.89090803124999 -3.54981598125000 
 N -2.98484088125000 -6.35861503124999 0.313658018749999 
 N -0.299252881250003 -3.31775403124999 -2.56964098125000 
 N -2.35966788125000 -2.31094203124999 -3.80093998125000 
 N -3.07116888125000 -2.50644903124999 2.067701874999917E-002
 S -0.961652881250003 -6.46782803124999 -4.02029398125000 
 S -3.77002588125000 -5.86563403124999 -1.05785198125000 
 S -1.33033188125000 -6.84790603124999 0.129318018749999 
 S -0.855406881250003 -2.87657003124999 -4.16366798125000 
 S -3.86732188125000 -2.21380803124999 -1.42950598125000 
 S -1.41558588125000 -2.98138403124999 -0.105825981250001 
