16

 C -2.62028396875000 -6.70859081875000 -2.33060670937500 
 C -1.36085796875000 -7.12552281875000 -1.73166270937500 
 C -2.36637696875000 -3.09356881875000 -2.38219670937500 
 C -1.10435296875000 -3.53550681875000 -1.81322670937500 
 N -0.389993968750000 -7.32469381875000 -2.61718470937500 
 N -2.52976396875000 -6.63672781875000 -3.64401470937500 
 N -2.97144896875000 -6.80740481875000 0.206791290625001 
 N -0.184694968750000 -3.66882081875000 -2.77206770937500 
 N -2.37680896875000 -2.85035781875000 -3.66036070937500 
 N -2.72626796875000 -3.31162681875000 0.178033290625001 
 S -0.953820968750000 -7.01778781875000 -4.11132970937500 
 S -3.86350396875000 -6.48287081875000 -1.14682670937500 
 S -1.38133596875000 -7.19858881875000 -3.958470937499925E-002
 S -0.818400968750000 -3.26607281875000 -4.17940270937500 
 S -3.59165596875000 -2.76958981875000 -1.13016070937500 
 S -1.22410896875000 -3.91132181875000 -9.758470937499908E-002
