16

 C -2.60500875312500 -6.51181964999999 -2.35578413437500 
 C -1.35933275312500 -6.93607464999999 -1.77741613437500 
 C -2.35753975312500 -2.98224564999999 -2.41579313437500 
 C -1.11383075312500 -3.42131264999999 -1.73198913437500 
 N -0.369592753125001 -7.06211064999999 -2.63354113437500 
 N -2.60392775312500 -6.32667964999999 -3.65777713437500 
 N -2.95387675312500 -6.69375664999999 0.169192865625001 
 N -0.105163753125002 -3.62174764999999 -2.56869513437500 
 N -2.20122675312500 -2.76557464999999 -3.72310813437500 
 N -2.90633475312500 -3.19440764999999 9.162686562500100E-002
 S -1.03270775312500 -6.65530564999999 -4.12218513437500 
 S -3.82132775312500 -6.24386464999999 -1.18379813437500 
 S -1.33506775312500 -6.99199264999999 -7.351913437499902E-002
 S -0.640891753125001 -3.19588964999999 -4.12245813437500 
 S -3.65858075312500 -2.74861464999999 -1.33940413437500 
 S -1.29543975312500 -3.55356964999999 -1.486113437499914E-002
