16

 C -2.30145087187500 -6.92135861250001 -2.62751965000000 
 C -1.06524987187500 -7.23597061250001 -1.90131865000000 
 C -2.59474887187500 -2.76382361250001 -2.50792365000000 
 C -1.37975987187500 -3.30270761250001 -1.98174065000000 
 N -8.422487187499872E-002 -7.54770961250001 -2.71718865000000 
 N -2.21884487187500 -6.98106161250001 -3.96567865000000 
 N -2.75441187187500 -6.60024661250001 -2.055965000000026E-002
 N -0.380559871874999 -3.33083561250001 -2.83907365000000 
 N -2.53769787187500 -2.50335461250001 -3.80440465000000 
 N -2.90888487187500 -2.67729661250001 -2.817650000000116E-003
 S -0.612089871874999 -7.40725861250001 -4.30619765000000 
 S -3.50316687187500 -6.18923461250001 -1.46952365000000 
 S -1.15110587187500 -7.01752461250001 -0.197804650000000 
 S -0.981585871874999 -2.93112261250001 -4.31041665000000 
 S -3.76908387187500 -2.22559761250001 -1.42727365000000 
 S -1.37728187187500 -3.34660561250001 -0.198559650000000 
