16

 C -2.51736478125000 -6.12744502187500 -2.23417400937500 
 C -1.28933378125000 -6.65413802187500 -1.67114800937500 
 C -2.53296878125000 -2.52049102187500 -2.49359200937500 
 C -1.32884978125000 -2.97771602187500 -1.80517200937500 
 N -0.294047781249999 -6.91430602187500 -2.53504600937500 
 N -2.43940578125000 -5.88591902187500 -3.54731500937500 
 N -2.98252678125000 -6.35163002187500 0.312636990625002 
 N -0.299793781249998 -3.31449302187500 -2.57519200937500 
 N -2.36791678125000 -2.31149802187500 -3.80442900937500 
 N -3.07418778125000 -2.49794002187500 1.635499062500201E-002
 S -0.960891781249998 -6.46557502187500 -4.01780100937500 
 S -3.76602278125000 -5.86732502187500 -1.05935000937500 
 S -1.32518078125000 -6.84895202187500 0.129209990625002 
 S -0.862204781249998 -2.87290802187500 -4.15859200937500 
 S -3.86428278125000 -2.21269602187500 -1.43107200937500 
 S -1.41823778125000 -2.98026802187500 -0.109128009374998 
