16

 C -2.44685286875001 -6.50487059687501 -2.33175871562500 
 C -1.16790886875001 -6.76906159687501 -1.73619171562500 
 C -2.59217286875001 -2.84675559687501 -2.59201771562500 
 C -1.31580286875001 -3.29228959687501 -2.05410871562500 
 N -0.114403868750007 -6.75276859687501 -2.58448171562500 
 N -2.40641886875001 -6.28494759687501 -3.65227271562500 
 N -2.97332286875001 -6.81389059687501 0.157204284375001 
 N -0.282364868750007 -3.25934559687501 -2.86712471562500 
 N -2.48641586875001 -2.50440159687501 -3.85214871562500 
 N -2.89912086875001 -3.19181659687501 -5.122371562499950E-002
 S -0.831501868750007 -6.39304859687501 -4.06477471562500 
 S -3.79048186875001 -6.50012159687501 -1.23744671562500 
 S -1.31402286875001 -7.05186959687501 2.371928437500070E-002
 S -0.932491868750008 -2.71992459687501 -4.32505971562500 
 S -3.84337086875001 -2.89311159687501 -1.41173871562500 
 S -1.31119386875001 -3.43258859687501 -0.373738715624999 
