16

 C -2.36853525625000 -6.53532808437500 -2.16573417500000 
 C -1.11672325625000 -7.11948708437500 -1.60880217500000 
 C -2.25897725625000 -2.73794608437500 -2.65498017500000 
 C -1.03488625625000 -3.16967908437500 -1.96788217500000 
 N -4.477025624999875E-002 -6.95818808437500 -2.42813317500000 
 N -2.25627225625000 -6.00295908437500 -3.40711017500000 
 N -2.94285825625000 -7.09906108437500 0.280212824999999 
 N 1.041074375000051E-002 -3.42599808437500 -2.75525717500000 
 N -2.14947625625000 -2.69781608437500 -3.99050517500000 
 N -2.86057325625000 -2.55099308437500 -0.173887175000002 
 S -0.648401256249999 -6.24473508437500 -3.80665217500000 
 S -3.65303025625000 -6.31874408437500 -1.02068717500000 
 S -1.25838125625000 -7.35072608437500 0.128859824999999 
 S -0.581668256249999 -3.07832108437500 -4.29030117500000 
 S -3.63479725625000 -2.37522308437500 -1.61281417500000 
 S -1.35391825625000 -3.22614208437500 -0.257187175000001 
