16

 C -2.46980657500000 -6.30917239375001 -2.53431598437500 
 C -1.32961757500000 -6.81672039375001 -1.83728298437500 
 C -2.42005557500000 -2.46665439375001 -2.42327498437500 
 C -1.26695757500000 -3.03965639375001 -1.75374898437500 
 N -0.284716574999997 -7.15189339375001 -2.60513898437500 
 N -2.34393257500000 -6.21321139375001 -3.87988798437500 
 N -3.21279157500000 -6.51776539375001 -5.417998437500104E-002
 N -0.216751574999997 -3.30136539375001 -2.49782698437500 
 N -2.24720357500000 -2.39949739375001 -3.73136198437500 
 N -3.08188757500000 -2.56444339375001 4.986015624999007E-003
 S -0.809312574999997 -6.70859639375001 -4.17031998437500 
 S -3.87217657500000 -5.97803739375001 -1.52699398437500 
 S -1.63891657500000 -6.98478539375001 -9.742898437500092E-002
 S -0.738967574999998 -2.83322939375001 -4.11361198437500 
 S -3.78969757500000 -2.14270539375001 -1.45438598437500 
 S -1.42593657500000 -3.00423939375001 -1.365198437500093E-002
