16

 C -2.60522984687500 -6.36485175937500 -2.60792378437500 
 C -1.31903984687500 -6.83246975937500 -2.08292778437500 
 C -2.65973684687500 -2.91249875937500 -2.29806478437500 
 C -1.48743184687500 -3.43293675937500 -1.61385078437500 
 N -0.405867846874997 -7.00876675937500 -3.00640778437500 
 N -2.68460884687500 -6.24985075937500 -3.93843578437500 
 N -2.82750884687500 -6.54611175937500 3.825221562499936E-002
 N -0.390679846874997 -3.59032075937500 -2.37665178437500 
 N -2.49086184687500 -2.65632175937500 -3.58388778437500 
 N -3.34414984687500 -3.16791475937500 0.181730215624999 
 S -1.13966884687500 -6.67065075937500 -4.45800578437500 
 S -3.83662984687500 -6.34219575937500 -1.20441878437500 
 S -1.26520284687500 -7.13802575937500 -0.332234784375001 
 S -0.938430846874997 -3.15874375937500 -3.90798478437500 
 S -3.98691184687500 -2.66055275937500 -1.21921378437500 
 S -1.70832184687500 -3.43924175937500 9.829721562499927E-002
