16

 C -2.41173002500001 -6.85438175625000 -2.38297507187500 
 C -1.04862402500001 -6.99454075625000 -1.87615507187500 
 C -2.48248302500001 -2.66526375625000 -2.41476607187500 
 C -1.34263102500001 -3.32857475625000 -1.72199307187500 
 N -0.113915025000007 -7.00325975625000 -2.82951407187500 
 N -2.48490202500001 -6.63532275625000 -3.70058907187500 
 N -2.67553702500001 -7.04054575625000 0.186258928125001 
 N -0.285036025000007 -3.57867575625000 -2.50674407187500 
 N -2.25831702500001 -2.49231675625000 -3.71167907187500 
 N -3.24933902500001 -2.98938975625000 3.322692812500105E-002
 S -0.928324025000007 -6.68362175625000 -4.27385507187500 
 S -3.62609202500001 -6.77916575625000 -1.12683407187500 
 S -1.04667102500001 -7.01348875625000 -0.150561071874999 
 S -0.746613025000007 -3.07782975625000 -4.03028207187500 
 S -3.87420002500001 -2.52830375625000 -1.40985307187500 
 S -1.65210402500001 -3.41758375625000 -3.350707187499902E-002
