16

 C -2.33964434687501 -6.22246959062500 -2.24486859062500 
 C -1.10148334687501 -6.72496059062500 -1.69291159062500 
 C -2.41579034687501 -2.83513359062500 -2.74568959062500 
 C -1.10890634687501 -2.95005859062500 -2.11980959062500 
 N -5.189134687500729E-002 -6.81993659062500 -2.56034259062500 
 N -2.26868934687501 -5.86770859062500 -3.51041659062500 
 N -2.86753234687501 -6.47494759062500 0.240970409374998 
 N -0.111675346875007 -2.89141659062500 -3.01751659062500 
 N -2.46398534687501 -2.59981559062500 -4.07596759062500 
 N -2.91985734687501 -3.05414159062500 -0.277339590625002 
 S -0.744606346875007 -6.27511859062500 -3.96466359062500 
 S -3.70237634687501 -6.20968159062500 -1.16030659062500 
 S -1.32217234687501 -7.22566159062500 1.549340937499788E-002
 S -0.862210346875007 -2.56844259062500 -4.52562359062500 
 S -3.77746834687501 -3.00263359062500 -1.68638759062500 
 S -1.27241734687501 -3.19586459062500 -0.459542590625002 
