16

 C -2.44247032812500 -6.41589490625000 -2.34521727500000 
 C -1.20867032812500 -6.72457290625000 -1.70533127500000 
 C -2.32560432812500 -3.06683190625000 -2.09874627500000 
 C -1.10342332812500 -3.42299690625000 -1.46783127500000 
 N -0.185273328125002 -6.91113590625000 -2.51350227500000 
 N -2.33432632812500 -6.22936890625000 -3.63408227500000 
 N -2.92997432812500 -6.93951790625000 0.161682725000000 
 N -3.746932812500248E-002 -3.45922790625000 -2.22880027500000 
 N -2.28768232812500 -2.87079790625000 -3.41565027500000 
 N -2.90115232812500 -3.33575390625000 0.453997725000000 
 S -0.760569328125002 -6.62228690625000 -4.03921927500000 
 S -3.75564532812500 -6.53325890625000 -1.27876927500000 
 S -1.31665532812500 -7.01422290625000 7.674724999999993E-003
 S -0.694200328125002 -3.22434090625000 -3.79671027500000 
 S -3.68229032812500 -3.01693690625000 -0.932746275000000 
 S -1.25198532812500 -3.54383590625000 0.216872725000000 
