16

 C -2.41647493125000 -6.71792185937501 -2.33421232187500 
 C -1.26961393125000 -7.17106285937500 -1.63376832187500 
 C -2.45259593125000 -2.46053585937501 -2.42041732187500 
 C -1.30029593125000 -2.98617385937500 -1.79854532187500 
 N -0.277748931250000 -7.50408485937500 -2.45060932187500 
 N -2.34106193125000 -6.55746685937500 -3.66746232187500 
 N -3.07209593125000 -6.47284285937500 0.220971678125002 
 N -0.291574931250000 -3.21976185937501 -2.62041632187500 
 N -2.35899293125000 -2.40606185937501 -3.73008932187500 
 N -3.17319393125000 -3.03432485937500 -6.934832187499818E-002
 S -0.854048931249999 -7.23012585937501 -4.01481132187500 
 S -3.74544993125000 -6.21392485937501 -1.31348732187500 
 S -1.60848593125000 -7.24754885937501 9.805467812500179E-002
 S -0.787802931250000 -2.74627185937501 -4.14023732187500 
 S -3.77273993125000 -2.18485285937501 -1.35257032187500 
 S -1.52272493125000 -3.37277685937500 -0.104082321874998 
