16

 C -2.31163558125000 -6.31817469687500 -2.41553883750000 
 C -1.07521958125000 -6.86219969687500 -1.82597983750000 
 C -2.26904958125000 -2.57404369687500 -2.43436883750000 
 C -1.11334158125000 -3.10664069687500 -1.70835983750000 
 N -8.887458125000158E-002 -7.13005569687500 -2.67308783750000 
 N -2.20266958125000 -6.08646669687500 -3.71948283750000 
 N -2.95833158125000 -6.70005869687500 -5.125683750000065E-002
 N -6.582858125000168E-002 -3.44637469687500 -2.48161183750000 
 N -2.08342658125000 -2.49672569687500 -3.76459283750000 
 N -3.06268358125000 -2.91985469687500 -2.090083750000082E-002
 S -0.684806581250002 -6.66612569687500 -4.17528883750000 
 S -3.71105458125000 -6.25508169687500 -1.41906483750000 
 S -1.32529958125000 -7.10647469687500 -8.864983750000066E-002
 S -0.580408581250001 -2.99196769687500 -4.02265683750000 
 S -3.74995658125000 -2.38721269687500 -1.44453683750000 
 S -1.33582758125000 -3.15355969687500 1.828216249999937E-002
