16

 C -2.28890173750001 -6.43607897500000 -2.22307339687500 
 C -1.11831173750001 -6.96792097500000 -1.67177439687500 
 C -2.32048073750001 -2.64282097500000 -2.43586539687500 
 C -1.10524673750001 -3.18772197500000 -1.92794439687500 
 N -0.141802737500008 -7.24096197500000 -2.53072839687500 
 N -2.22940573750001 -6.22140397500000 -3.52726139687500 
 N -2.74584273750001 -6.74667197500000 0.229798603124997 
 N -0.229614737500008 -3.39872397500000 -2.89315539687500 
 N -2.30842673750001 -2.25199397500000 -3.67771639687500 
 N -2.76938173750001 -3.19766097500000 -1.045439687500260E-002
 S -0.770731737500008 -6.81499597500000 -4.01860039687500 
 S -3.57322273750001 -6.29881897500000 -1.10357039687500 
 S -1.16533473750001 -7.20678697500000 6.165260312499754E-002
 S -0.811784737500008 -2.77568397500000 -4.29786139687500 
 S -3.53052773750001 -2.40074297500000 -1.29267739687500 
 S -1.17011073750001 -3.51232097500000 -0.278288396875002 
