16

 C -2.29288109687500 -6.38120960000001 -2.64152388125000 
 C -1.09611609687500 -6.82528360000001 -1.99398988125000 
 C -2.77681409687500 -2.71336560000001 -2.33355288125000 
 C -1.60680009687500 -2.98155960000001 -1.63890288125000 
 N -7.920109687500165E-002 -7.11680860000001 -2.80574888125000 
 N -2.18487309687500 -6.35369660000001 -3.97591888125000 
 N -2.80665909687500 -6.43741560000001 -7.577688125000193E-002
 N -0.568234096875002 -3.11978060000001 -2.42631988125000 
 N -2.63380809687500 -2.60797660000001 -3.64580188125000 
 N -3.44947409687500 -2.87421460000001 0.129543118749998 
 S -0.654510096875002 -6.79061760000001 -4.33290488125000 
 S -3.55084009687500 -6.08558560000001 -1.50227388125000 
 S -1.18841209687500 -6.88873460000001 -0.206451881250002 
 S -1.05417309687500 -3.03133660000001 -3.96144788125000 
 S -4.07795509687500 -2.26772960000001 -1.26181088125000 
 S -1.80572209687500 -3.10617660000001 8.290211874999809E-002
