16

 C -2.28792826875000 -6.44397931875000 -2.48523519375000 
 C -1.04184126875000 -6.90671731875000 -1.92546419375000 
 C -2.50815326875000 -2.53729031875000 -2.50025919375000 
 C -1.28200426875000 -3.15112231875000 -1.91951519375000 
 N -0.175771268749998 -7.32203231875000 -2.81418019375000 
 N -2.28530626875000 -6.52529931875000 -3.83422319375000 
 N -2.58520626875000 -6.38829431875000 8.475680624999837E-002
 N -0.341338268749998 -3.44749031875000 -2.79457819375000 
 N -2.38561126875000 -2.27828831875000 -3.80936019375000 
 N -2.96642226875000 -3.03510931875000 -5.860019375000158E-002
 S -0.858519268749999 -7.18122031875000 -4.32864719375000 
 S -3.56206726875000 -6.30023231875000 -1.30806019375000 
 S -1.05039226875000 -6.88967731875000 -0.140771193750002 
 S -0.994614268749999 -3.07549731875000 -4.26257319375000 
 S -3.74350426875000 -2.26758431875000 -1.32642219375000 
 S -1.38279926875000 -3.44849531875000 -0.239657193750002 
