16

 C -2.39146868125000 -6.25067635000000 -2.19002471562500 
 C -1.20413668125000 -6.89603735000000 -1.70642571562500 
 C -2.45405668125000 -2.73880435000000 -2.61006471562500 
 C -1.16710568125000 -3.00522235000000 -1.96583971562500 
 N -0.169377681249999 -7.01789135000000 -2.49399071562500 
 N -2.21657968125000 -5.94812535000000 -3.47196771562500 
 N -2.88764668125000 -6.91664335000000 0.192081284375000 
 N -0.172441681249999 -3.00530735000000 -2.82183771562500 
 N -2.36572568125000 -2.54653435000000 -3.91769571562500 
 N -2.94107468125000 -3.09411835000000 -5.916371562499956E-002
 S -0.681840681249999 -6.35903335000000 -3.94725971562500 
 S -3.68894168125000 -6.12130535000000 -1.11401671562500 
 S -1.22957568125000 -7.05357435000000 2.448428437500039E-002
 S -0.755445681249999 -2.59282035000000 -4.27190971562500 
 S -3.80887868125000 -2.84892935000000 -1.46714571562500 
 S -1.30702268125000 -3.39558835000000 -0.343243715624999 
