16

 C -2.24828495625000 -6.38286100625000 -2.41570543750000 
 C -1.00701495625000 -6.81317800625000 -1.83543843750000 
 C -2.55925795625000 -2.82223900625000 -2.55253843750000 
 C -1.39053995625000 -3.34958800625000 -1.80201843750000 
 N 2.516004374999881E-002 -6.96831800625000 -2.65944643750000 
 N -2.16620395625000 -6.25062900625000 -3.72019843750000 
 N -2.79308695625000 -6.78466100625000 8.750456250000083E-002
 N -0.302132956250001 -3.57691300625000 -2.54976643750000 
 N -2.34479195625000 -2.63820900625000 -3.86471243750000 
 N -3.30323995625000 -2.91138900625000 -0.128118437499999 
 S -0.564512956250002 -6.56808700625000 -4.15688843750000 
 S -3.57081195625000 -6.33569200625000 -1.29287843750000 
 S -1.16110095625000 -6.88570400625000 -7.517743749999894E-002
 S -0.792249956250001 -3.22459500625000 -4.11489243750000 
 S -3.96206195625000 -2.43235300625000 -1.55358943750000 
 S -1.70399795625000 -3.32102300625000 -0.130308437499999 
