16

 C -2.44450482812501 -6.39472659375001 -2.45081873750000 
 C -1.16082182812501 -6.60439159375001 -1.72968373750000 
 C -2.25712982812501 -2.82224959375001 -2.41671973750000 
 C -0.955785828125009 -3.22111959375001 -1.78013173750000 
 N -6.784782812500900E-002 -6.75127559375001 -2.48826973750000 
 N -2.27409082812501 -6.36992559375001 -3.74939073750000 
 N -3.10450782812501 -6.44815159375000 -3.235737500001834E-003
 N 5.179171874990729E-003 -3.33959259375001 -2.65456073750000 
 N -2.21352082812501 -2.75150959375001 -3.75702973750000 
 N -2.59612582812501 -3.25988659375001 0.166982262499998 
 S -0.624176828125009 -6.56334159375001 -4.04005173750000 
 S -3.84950482812501 -6.18794759375001 -1.45424673750000 
 S -1.41257982812501 -6.84580859375001 -2.315473750000185E-002
 S -0.615189828125009 -2.93857759375001 -4.15689773750000 
 S -3.55657182812501 -2.83098259375001 -1.19534073750000 
 S -0.959512828125009 -3.55076759375001 -6.813973750000168E-002
