16

 C -2.66646404687500 -6.36238411562500 -2.50223955625000 
 C -1.41437104687500 -6.91238411562500 -2.03488955625000 
 C -2.60872704687500 -2.87184611562500 -2.39905955625000 
 C -1.46983104687500 -3.23040511562500 -1.61317855625000 
 N -0.395330046874997 -7.12069211562500 -2.89843855625000 
 N -2.57802904687500 -6.07221211562500 -3.82723655625000 
 N -3.00205104687500 -6.75630211562500 8.738144375000023E-002
 N -0.414458046874997 -3.57414311562500 -2.35681755625000 
 N -2.51657304687500 -3.06556611562500 -3.72038655625000 
 N -3.29588904687500 -2.76162611562500 0.103673443750000 
 S -1.08032304687500 -6.61712211562500 -4.31020155625000 
 S -3.78710604687500 -5.99039011562500 -1.17879355625000 
 S -1.38640704687500 -7.22645411562500 -0.267423556250000 
 S -0.931444046874997 -3.44940411562500 -3.95097255625000 
 S -4.04863504687500 -2.58028611562500 -1.41629755625000 
 S -1.78332404687500 -3.46816111562500 0.129284443750000 
