16

 C -2.62293425625001 -6.37925256562501 -2.49535797812500 
 C -1.38655425625001 -6.92994556562501 -1.98875097812500 
 C -2.67765225625001 -3.01065356562501 -2.36110197812500 
 C -1.50433625625001 -3.31834556562501 -1.61110497812500 
 N -0.534354256250007 -7.05910456562501 -2.96490697812500 
 N -2.65514825625001 -6.16823756562501 -3.81802497812500 
 N -2.95028825625001 -6.78047156562501 3.683402187499873E-002
 N -0.393188256250007 -3.56067356562501 -2.35947497812500 
 N -2.49450225625001 -2.99325056562501 -3.68468897812500 
 N -3.39517325625001 -2.84992356562501 0.123628021874999 
 S -1.10047225625001 -6.49931656562501 -4.44136697812500 
 S -3.76972825625001 -5.98922456562501 -1.19343297812500 
 S -1.35509025625001 -7.19269156562501 -0.285873978125001 
 S -0.912880256250007 -3.49323656562501 -3.93643397812500 
 S -4.02350625625001 -2.67281556562501 -1.36848297812500 
 S -1.82657625625001 -3.40847056562501 9.046702187499855E-002
