16

 C -2.33303477187499 -6.99375521562500 -2.46014588125000 
 C -1.14922777187499 -7.43864821562500 -1.67108288125000 
 C -2.86800477187499 -2.89289421562500 -2.33475688125000 
 C -1.69371277187499 -3.60273121562500 -1.78949888125000 
 N -5.766777187499450E-002 -7.52469321562500 -2.43164988125000 
 N -2.16875777187499 -6.81086021562500 -3.78456488125000 
 N -2.94151777187499 -6.78466121562500 0.115153118750000 
 N -0.728916771874994 -3.93240421562500 -2.63252088125000 
 N -2.72741177187499 -2.72099521562500 -3.62677688125000 
 N -3.38544177187499 -3.14770521562500 0.172556118750000 
 S -0.524467771874994 -7.08296521562500 -3.97958088125000 
 S -3.68575577187499 -6.48688921562500 -1.42867688125000 
 S -1.41303377187499 -7.38943321562500 7.161011875000023E-002
 S -1.28772277187499 -3.43870521562500 -4.12867388125000 
 S -4.10960077187499 -2.52019321562500 -1.21133888125000 
 S -1.81426977187499 -3.78968321562500 -6.114388124999981E-002
