16

 C -2.31450575937500 -6.24447849687499 -2.38235815312500 
 C -1.13720375937500 -6.76667949687499 -1.67473015312500 
 C -2.49963775937500 -2.48062349687499 -2.54194815312500 
 C -1.27228475937500 -3.02469649687499 -1.94714715312500 
 N -0.137985759375002 -7.17378449687499 -2.48155515312500 
 N -2.14743275937500 -6.16547349687499 -3.70374515312500 
 N -3.02268275937500 -6.17917649687499 4.429884687500096E-002
 N -0.246989759375001 -3.03718149687499 -2.78652115312500 
 N -2.41444575937500 -2.02436949687499 -3.79617815312500 
 N -2.88284175937500 -2.80142649687499 4.899384687500086E-002
 S -0.601143759375002 -6.72372549687499 -4.03309815312500 
 S -3.67579975937500 -5.95900849687499 -1.40247615312500 
 S -1.51272475937500 -6.93226749687499 0.102349846875001 
 S -0.885460759375001 -2.47027949687499 -4.21031915312500 
 S -3.77169175937500 -2.34471049687499 -1.33148415312500 
 S -1.33860175937500 -3.37648549687499 -0.195598153124999 
