16

 C -2.48155732812499 -6.72795566562501 -2.44649455000000 
 C -1.19285232812499 -7.00491166562501 -1.85064855000000 
 C -2.58229932812499 -2.87871566562501 -2.24178855000000 
 C -1.34689732812499 -3.31466066562501 -1.67822155000000 
 N -0.245493328124994 -7.20562766562501 -2.75574555000000 
 N -2.45824932812499 -6.66490166562501 -3.76948855000000 
 N -2.90367332812499 -6.89226966562501 0.132247450000002 
 N -0.359862328124994 -3.36826666562501 -2.54536155000000 
 N -2.52539232812499 -2.64321866562501 -3.52823855000000 
 N -3.02849932812499 -3.04439466562501 0.307039450000002 
 S -0.872158328124994 -6.92727666562501 -4.28287855000000 
 S -3.70910532812499 -6.39763566562501 -1.31608255000000 
 S -1.29673532812499 -7.11054866562501 -0.110844549999998 
 S -0.997959328124995 -3.02516166562501 -4.00885455000000 
 S -3.81573332812499 -2.47027166562501 -1.03807155000000 
 S -1.45084732812499 -3.49393366562501 2.946845000000176E-002
