16

 C -2.38055227812500 -6.36357495312501 -2.62714275312500 
 C -1.19151227812500 -6.77180795312501 -1.85153375312500 
 C -2.39496727812500 -2.58873795312501 -2.58811875312500 
 C -1.15127127812500 -3.00717895312501 -2.00399775312500 
 N -0.149606278125002 -6.92038595312501 -2.62231675312500 
 N -2.19942627812500 -6.27796995312501 -3.94768675312500 
 N -3.05166527812500 -6.33047595312501 -0.126331753125000 
 N -0.158646278125001 -3.19021695312501 -2.85669175312500 
 N -2.30029227812500 -2.44795995312501 -3.88660475312500 
 N -2.84956427812500 -3.09792895312501 -4.195675312499958E-002
 S -0.638071278125001 -6.69829295312501 -4.16503875312500 
 S -3.73842527812500 -6.19730595312501 -1.59819275312500 
 S -1.43188927812500 -6.87058695312501 -0.164494753124999 
 S -0.678655278125001 -2.75542895312501 -4.32585375312500 
 S -3.63516427812500 -2.62581995312501 -1.39620975312500 
 S -1.24733227812500 -3.32548595312501 -0.295031753125000 
