16

 C -2.64695287500000 -6.42778345000001 -2.61157847187500 
 C -1.46930287500000 -6.84387945000000 -1.89373547187500 
 C -2.34404087500000 -2.87847845000000 -2.35407647187500 
 C -1.08682087500000 -3.27845545000000 -1.79511247187500 
 N -0.461382875000001 -6.97605845000000 -2.73950747187500 
 N -2.48799287500000 -6.13490045000000 -3.90492047187500 
 N -3.34928487500000 -6.64259845000000 -9.439247187500110E-002
 N -6.302487500000087E-002 -3.30289045000000 -2.63873347187500 
 N -2.24157287500000 -2.72376845000000 -3.66657547187500 
 N -2.74216687500000 -3.04931345000000 0.150327528124999 
 S -0.913021875000001 -6.46452445000000 -4.26750847187500 
 S -4.07214087500000 -6.36877045000000 -1.57609047187500 
 S -1.81222587500000 -7.28862245000000 -0.232479471875001 
 S -0.678573875000001 -3.06588045000000 -4.17742147187500 
 S -3.59160187500000 -2.69640745000000 -1.20276847187500 
 S -1.12730887500000 -3.54493445000000 -0.105978471875001 
