16

 C -2.47845380000000 -6.64123739375000 -2.42498495937500 
 C -1.19367980000000 -6.88767939375000 -1.82919295937500 
 C -2.07012780000000 -2.79693439375000 -2.30281695937500 
 C -0.938340800000001 -3.36123439375000 -1.61397795937500 
 N -0.120498800000001 -6.87833239375000 -2.58311495937500 
 N -2.35508280000000 -6.41721539375000 -3.72725095937500 
 N -2.92384680000000 -6.94888639375000 0.177588040624999 
 N 0.170936200000000 -3.34247339375000 -2.36562395937500 
 N -1.89782980000000 -2.56353439375000 -3.59657095937500 
 N -2.91678180000000 -3.17733639375000 8.388204062499938E-002
 S -0.720613800000001 -6.67655739375000 -4.16708395937500 
 S -3.81039780000000 -6.69471039375000 -1.25835295937500 
 S -1.33631480000000 -7.27392239375000 -8.537395937500070E-002
 S -0.308595800000001 -2.94449039375000 -3.90291695937500 
 S -3.48998980000000 -2.47516939375000 -1.33726095937500 
 S -1.38774280000000 -3.68760339375000 4.285204062499925E-002
