16

 C -2.80380690312500 -6.40446043437500 -2.47137800312500 
 C -1.61092990312500 -6.88145143437500 -1.81068500312500 
 C -2.25876790312500 -2.87442343437500 -2.22631100312500 
 C -1.04477690312500 -3.24165443437500 -1.62662400312500 
 N -0.519738903124998 -6.93460243437500 -2.58466200312500 
 N -2.62933890312500 -6.18391643437500 -3.77935900312500 
 N -3.40200290312500 -6.57730443437500 3.915099687499923E-002
 N -2.833190312499845E-002 -3.38478743437500 -2.47457000312500 
 N -2.17832090312500 -2.71739243437500 -3.53422100312500 
 N -2.84586290312500 -3.13218243437500 0.254202996874999 
 S -1.03672590312500 -6.45787243437500 -4.08690200312500 
 S -4.15613090312500 -6.07439643437500 -1.35171600312500 
 S -1.79607790312500 -6.99916043437500 -7.850500312500075E-002
 S -0.664117903124998 -3.12274743437500 -3.99866600312500 
 S -3.67720690312500 -2.88371743437500 -1.19099700312500 
 S -1.20076790312500 -3.50594243437500 0.120067996874999 
