16

 C -2.41930719062500 -6.35847945937500 -2.39032703125000 
 C -1.15915919062500 -6.79890745937500 -1.77669503125000 
 C -2.31818319062500 -2.96382645937500 -2.45939703125000 
 C -1.07120419062500 -3.23371945937500 -1.84941203125000 
 N -0.190442190625001 -6.97117645937500 -2.68056703125000 
 N -2.42463219062500 -6.34310645937500 -3.73317903125000 
 N -2.91653619062500 -6.43479745937500 0.146351968750002 
 N -1.016319062500148E-002 -3.41562145937500 -2.63749403125000 
 N -2.26179619062500 -2.87464045937500 -3.79338103125000 
 N -2.75414119062500 -3.12992745937500 8.783396875000182E-002
 S -0.879342190625001 -6.72552645937500 -4.24733203125000 
 S -3.78696819062500 -6.28358645937500 -1.27559403125000 
 S -1.32114319062500 -6.91450645937500 -3.254003124999794E-002
 S -0.684589190625001 -3.20679245937500 -4.16055603125000 
 S -3.61791519062500 -2.70008845937500 -1.25998603125000 
 S -1.18243619062500 -3.49455745937500 -7.894103124999785E-002
