16

 C -2.53160252812499 -6.51783517500001 -2.38988426250000 
 C -1.26069952812499 -6.82959117500001 -1.82584226250000 
 C -2.31411752812499 -2.91426717500001 -2.41233226250000 
 C -1.07952452812499 -3.35835117500001 -1.78224926250000 
 N -0.284564528124995 -6.99487717500001 -2.71490326250000 
 N -2.48435152812499 -6.29951217500001 -3.69301426250000 
 N -2.94469152812500 -6.55962717500001 0.184958737499999 
 N -7.411052812499452E-002 -3.51382117500001 -2.62333126250000 
 N -2.23526252812499 -2.88459717500001 -3.74203426250000 
 N -2.87743952812499 -3.20348017500001 0.116413737499999 
 S -0.965102528124994 -6.71155217500001 -4.18402826250000 
 S -3.77245452812500 -6.27166417500001 -1.21159326250000 
 S -1.35210252812499 -6.93889517500001 -3.210426250000076E-002
 S -0.635531528124995 -3.19502517500001 -4.15152826250000 
 S -3.64047852812499 -2.71549217500001 -1.27955326250000 
 S -1.22933252812499 -3.50098717500001 -8.279226250000082E-002
