16

 C -2.22700003750000 -6.11505735312500 -2.03293860937500 
 C -1.08553103750000 -6.75543535312500 -1.45916560937500 
 C -2.34202003750000 -2.56985835312500 -2.29506260937500 
 C -1.24371903750000 -3.17408935312500 -1.60673460937500 
 N -0.136135037500003 -6.92470935312500 -2.36153660937500 
 N -2.19617703750000 -5.75526135312500 -3.31078360937500 
 N -2.87885603750000 -6.87866535312500 0.413274390624998 
 N -0.173752037500003 -3.50662235312500 -2.29412660937500 
 N -2.06772303750000 -2.44248935312500 -3.58378160937500 
 N -3.08733303750000 -2.96433035312500 0.111728390624998 
 S -0.634530037500004 -6.17391435312500 -3.80558060937500 
 S -3.62887203750000 -6.15397435312500 -0.923791609375002 
 S -1.29899203750000 -7.22974935312500 0.218876390624998 
 S -0.559520037500004 -2.96186435312500 -3.85204460937500 
 S -3.74908703750000 -2.43928435312500 -1.33631760937500 
 S -1.45302303750000 -3.27862135312500 0.113740390624998 
