16

 C -2.12550711249999 -6.15493177812499 -2.56957943437500 
 C -1.05939411249999 -6.68321277812499 -1.79640343437500 
 C -2.41453211249999 -2.84241277812499 -2.47495843437500 
 C -1.13246611249999 -3.17425377812499 -1.85510843437500 
 N 2.338888750000567E-002 -6.89776077812499 -2.53563443437500 
 N -1.98710911249999 -6.08226677812499 -3.88200743437500 
 N -3.00899211249999 -6.47019177812499 -0.184461434375002 
 N -0.164132112499995 -3.41648777812499 -2.70326343437500 
 N -2.28031011249999 -2.67417377812499 -3.77343643437500 
 N -2.81534711249999 -2.87577477812499 -2.421434375001530E-003
 S -0.438165112499995 -6.61023577812499 -4.12207843437500 
 S -3.54923611249999 -5.89212377812499 -1.65027243437500 
 S -1.35942911249999 -6.77374077812499 -0.133967434375001 
 S -0.710232112499995 -3.06445177812499 -4.25307443437500 
 S -3.69632511249999 -2.79671777812499 -1.36309343437500 
 S -1.21941911249999 -3.28599377812499 -0.151951434375002 
