16

 C -2.44440145000000 -6.59511632500000 -2.25077106875000 
 C -1.19352445000000 -6.77275232500000 -1.57926106875000 
 C -2.38058345000000 -2.79634732500000 -2.54339406875000 
 C -1.17730445000000 -3.23444932500000 -1.95649506875000 
 N -0.137025449999999 -6.81501432500000 -2.36189206875000 
 N -2.38461245000000 -6.47265032500000 -3.56587606875000 
 N -2.92353445000000 -6.83910132500000 0.229650931250000 
 N -0.178847449999999 -3.50277532500000 -2.78844906875000 
 N -2.27315945000000 -2.59470532500000 -3.86955606875000 
 N -2.80320645000000 -2.95157032500000 -4.101068749999603E-003
 S -0.747607449999999 -6.69617832500000 -3.90007706875000 
 S -3.76850545000000 -6.73467032500000 -1.18232906875000 
 S -1.32760945000000 -7.01891432500000 9.827393125000028E-002
 S -0.791832449999999 -3.08445732500000 -4.28805306875000 
 S -3.57957945000000 -2.41817432500000 -1.39505706875000 
 S -1.20135845000000 -3.41044832500000 -0.252830068750000 
