16

 C -2.65066865312500 -6.26577045937500 -2.69975766250000 
 C -1.44367265312500 -6.67633145937500 -2.06460366250000 
 C -2.48555065312500 -2.86027645937500 -2.46785166250000 
 C -1.16896365312500 -3.14473245937500 -1.84364566250000 
 N -0.401358653124997 -6.70047445937500 -2.91522866250000 
 N -2.59088465312500 -6.10841745937500 -4.02698366250000 
 N -3.32620465312500 -6.93700845937500 -0.286102662500000 
 N -0.175116653124998 -3.23461645937500 -2.73044766250000 
 N -2.39561865312500 -2.66095045937500 -3.80238066250000 
 N -2.84992665312500 -2.97153945937500 6.582233749999955E-002
 S -0.973386653124997 -6.27406045937500 -4.39179266250000 
 S -4.02903865312500 -6.23316945937500 -1.58955666250000 
 S -1.67700965312500 -6.94867945937500 -0.339378662500000 
 S -0.811858653124998 -3.00971745937500 -4.20914266250000 
 S -3.73001665312500 -2.66591045937500 -1.26180866250000 
 S -1.20976765312500 -3.17405145937500 -0.110846662500000 
