16

 C -2.43846861875000 -6.37996764375000 -2.52275228437500 
 C -1.26958861875000 -6.73237864375000 -1.81324528437500 
 C -2.74968161875000 -2.92026964375000 -2.54008128437500 
 C -1.59641561875000 -3.54949064375000 -1.90993328437500 
 N -0.205351618749996 -6.97088364375000 -2.57756628437500 
 N -2.33716961875000 -6.30014064375000 -3.82540828437500 
 N -3.11989561875000 -6.64138664375000 -8.629028437500352E-002
 N -0.513430618749997 -3.67240264375000 -2.68211428437500 
 N -2.50923761875000 -2.58843764375000 -3.83245928437500 
 N -3.35094061875000 -3.32091864375000 3.032715624996518E-003
 S -0.757963618749996 -6.68760364375000 -4.14035528437500 
 S -3.82039561875000 -6.21135564375000 -1.59262228437500 
 S -1.54234561875000 -7.04836464375000 -0.185881284375004 
 S -1.00764561875000 -3.09907164375000 -4.20459228437500 
 S -4.07092061875000 -2.69891564375000 -1.37225828437500 
 S -1.76054161875000 -3.81894664375000 -0.170343284375003 
