16

 C -2.56462515000000 -6.52617609687500 -2.33352840625000 
 C -1.33212515000000 -6.85470909687500 -1.69914540625000 
 C -2.19646415000000 -3.02648209687500 -2.31995240625000 
 C -1.02463115000000 -3.54462909687500 -1.69947640625000 
 N -0.374364150000002 -7.11824809687500 -2.56951140625000 
 N -2.50812615000000 -6.42975709687500 -3.66294440625000 
 N -2.99426515000000 -6.52301709687500 0.198596593750000 
 N 5.638584999999896E-002 -3.55412709687500 -2.44159540625000 
 N -1.93741915000000 -2.65811809687500 -3.54954240625000 
 N -2.82826615000000 -3.34570809687500 7.289959375000032E-002
 S -0.948634150000001 -6.79594809687500 -4.06822040625000 
 S -3.85228415000000 -6.26402709687500 -1.24391340625000 
 S -1.38472215000000 -7.04550909687500 5.843593750000320E-003
 S -0.378489150000001 -3.02509109687500 -3.97929440625000 
 S -3.55607315000000 -2.80153609687500 -1.32567740625000 
 S -1.34692215000000 -3.95576609687500 -5.012940624999973E-002
