16

 C -2.30359404062500 -6.41969665000000 -2.44193403750000 
 C -1.11292904062500 -7.02586865000000 -1.83226303750000 
 C -2.35953304062500 -3.05124265000000 -2.36264803750000 
 C -1.17013204062500 -3.40830965000000 -1.69275303750000 
 N -0.116702040624997 -7.21120265000000 -2.66063703750000 
 N -2.18544604062500 -6.26419365000000 -3.75299803750000 
 N -2.75309804062500 -6.73537765000000 7.884196250000008E-002
 N -0.131280040624997 -3.54076765000000 -2.57790603750000 
 N -2.26450604062500 -2.86534465000000 -3.69179303750000 
 N -2.96450904062500 -3.23565365000000 0.180404962500000 
 S -0.562656040624997 -6.60819965000000 -4.13418003750000 
 S -3.58686904062500 -6.23139965000000 -1.27850003750000 
 S -1.25918704062500 -7.42540465000000 -0.208388037500000 
 S -0.665891040624997 -3.19072365000000 -4.04635403750000 
 S -3.72587604062500 -2.79608565000000 -1.26627603750000 
 S -1.37719804062500 -3.61589265000000 3.211296250000029E-002
