16

 C -2.45761333437500 -6.54252422187500 -2.29957948125000 
 C -1.29317733437500 -6.98291322187500 -1.60374448125000 
 C -2.43187733437500 -2.73529322187500 -2.46312248125000 
 C -1.25749333437500 -3.19259122187500 -1.79229548125000 
 N -0.217847334374996 -7.16748722187500 -2.38687048125000 
 N -2.20500833437500 -6.36955022187500 -3.60528848125000 
 N -3.10602133437500 -6.59785722187500 0.160950518750002 
 N -0.208927334374996 -3.19126922187500 -2.59025648125000 
 N -2.30785633437500 -2.49710822187500 -3.77997348125000 
 N -3.12761233437500 -3.27647922187500 -1.619448124999812E-002
 S -0.664243334374996 -6.76685922187500 -3.92968548125000 
 S -3.85705433437500 -6.29641022187500 -1.31855748125000 
 S -1.57240533437500 -7.25732122187500 0.171931518750002 
 S -0.692191334374996 -2.70490022187500 -4.10521548125000 
 S -3.87760233437500 -2.73979922187500 -1.42660748125000 
 S -1.46117533437500 -3.46085122187500 -7.063148124999818E-002
