16

 C -2.32909026562501 -6.44027665312500 -2.61764820625000 
 C -1.14776026562501 -6.87521665312500 -1.91863120625000 
 C -2.29938426562501 -2.57746865312500 -2.52427920625000 
 C -1.02605726562501 -2.98365665312500 -2.03680320625000 
 N -0.110653265625007 -7.09973665312500 -2.73635520625000 
 N -2.21783726562501 -6.39825765312500 -3.95746320625000 
 N -3.02054126562501 -6.55095565312500 -0.143946206250001 
 N -6.134126562500697E-002 -2.98077165312500 -2.98024620625000 
 N -2.25503426562501 -2.18369765312500 -3.80749320625000 
 N -2.76255526562501 -3.23750765312500 -0.187124206250001 
 S -0.629306265625007 -6.75653965312500 -4.30312120625000 
 S -3.77446726562501 -6.07136665312500 -1.50790920625000 
 S -1.36007426562501 -6.89615265312500 -0.185434206250001 
 S -0.764479265625007 -2.57226965312500 -4.38393920625000 
 S -3.64372226562501 -2.62645665312500 -1.45876020625000 
 S -1.14874226562501 -3.57128465312500 -0.334274206250001 
