16

 C -2.52003582187500 -6.62752250312500 -2.52685788437500 
 C -1.19328682187500 -6.81166850312500 -1.90128688437500 
 C -2.31863782187500 -3.17683750312500 -2.20148888437500 
 C -1.12355682187500 -3.63971350312500 -1.55782788437500 
 N -0.127483821875002 -6.95198650312500 -2.70134388437500 
 N -2.39956182187500 -6.54492150312500 -3.83164788437500 
 N -3.00077882187500 -6.59098850312500 2.272311562500096E-002
 N -0.105522821875002 -3.91662250312500 -2.37490688437500 
 N -2.22310682187500 -2.90076350312500 -3.53026288437500 
 N -2.88252782187500 -3.51893450312500 0.324565115625001 
 S -0.799914821875002 -6.84228750312500 -4.25367988437500 
 S -3.83992682187500 -6.40042150312500 -1.39942388437500 
 S -1.37357682187500 -6.78359650312500 -0.133888884374999 
 S -0.625815821875002 -3.30573050312500 -3.82416588437500 
 S -3.72343182187500 -3.24284450312500 -1.11524588437500 
 S -1.25628982187500 -3.76245050312500 0.227242115625001 
