16

 C -2.50580817187500 -6.49686822500000 -2.53094639687500 
 C -1.36331717187500 -6.83267922500000 -1.71363639687500 
 C -2.46209817187500 -2.83916122500000 -2.39078539687500 
 C -1.23981217187500 -3.23382022500000 -1.73235039687500 
 N -0.276709171874995 -7.06496322500000 -2.43665539687500 
 N -2.33673717187500 -6.44581722500000 -3.83560239687500 
 N -3.25758817187500 -6.21003722500000 -7.654339687499823E-002
 N -0.144638171874996 -3.28860922500000 -2.48042839687500 
 N -2.31531817187500 -2.83086322500000 -3.71207939687500 
 N -3.00504017187500 -2.95238222500000 0.100645603125002 
 S -0.707464171874996 -6.86171922500000 -4.07635639687500 
 S -3.88233317187500 -5.96440722500000 -1.63044839687500 
 S -1.69757917187500 -6.69713622500000 -4.864739687499831E-002
 S -0.657174171874995 -3.17862222500000 -4.01191639687500 
 S -3.78370017187500 -2.53018722500000 -1.27014339687500 
 S -1.42919517187500 -3.51447122500000 -3.057339687499838E-002
