16

 C -2.58090776562500 -6.42249763437500 -2.49674054687500 
 C -1.43341976562500 -6.87696563437500 -1.72862454687500 
 C -2.45196376562500 -2.98083363437500 -2.36831154687500 
 C -1.18456276562500 -3.14908863437500 -1.67801954687500 
 N -0.375623765625002 -7.21379463437500 -2.48774454687500 
 N -2.43025776562500 -6.44627963437500 -3.84556954687500 
 N -3.21613576562500 -6.23656463437500 -1.481546875000239E-003
 N -0.152030765625002 -3.37000063437500 -2.51806954687500 
 N -2.35187076562500 -2.99367963437500 -3.69369154687500 
 N -3.04072776562500 -3.09117963437500 0.170488453125000 
 S -0.851613765625002 -6.93788863437500 -4.05471254687500 
 S -3.90016776562500 -5.80953263437500 -1.52537754687500 
 S -1.66118576562500 -6.70614763437500 -2.685254687500005E-002
 S -0.757373765625002 -3.17287563437500 -4.03700154687500 
 S -3.79790476562500 -2.79928263437500 -1.28967354687500 
 S -1.41889576562500 -3.43597863437500 4.438645312499978E-002
