16

 C -2.55945618749999 -6.68023923437500 -2.53201860625000 
 C -1.32258618749999 -7.11827023437500 -1.95254060625000 
 C -2.27570018749999 -2.45510823437500 -2.30424560625000 
 C -1.06714118749999 -3.16929323437500 -1.84442060625000 
 N -0.283187187499987 -7.20746123437500 -2.75944360625000 
 N -2.44102118749999 -6.37809923437500 -3.82763160625000 
 N -2.98362418749999 -6.66924823437500 -5.481460624999790E-002
 N -0.129247187499987 -3.34238223437500 -2.79764660625000 
 N -2.20916518749999 -2.18452523437500 -3.60763860625000 
 N -2.80625818749999 -3.20143923437500 0.134903393750002 
 S -0.859262187499987 -6.76400323437500 -4.25670560625000 
 S -3.82905218749999 -6.31580223437500 -1.44454360625000 
 S -1.34839118749999 -7.31214023437500 -0.243866606249998 
 S -0.830910187499987 -2.74730723437500 -4.23751760625000 
 S -3.61739218749999 -2.43377223437500 -1.11584960625000 
 S -1.18026118749999 -3.60906823437500 -0.120586606249998 
