16

 C -2.36774119062500 -6.43901983125000 -2.60750623750000 
 C -1.19674919062500 -6.96260283125000 -2.00536523750000 
 C -2.38372619062500 -2.66947083125000 -2.53821823750000 
 C -1.12191819062500 -3.22279883125000 -2.10744923750000 
 N -0.194561190625000 -7.18541283125000 -2.82744623750000 
 N -2.28206419062500 -6.32239583125000 -3.90566123750000 
 N -2.84611019062500 -6.55135383125000 -0.118620237500000 
 N -0.102704190624999 -3.11580083125000 -2.94702723750000 
 N -2.27545119062500 -2.12326983125000 -3.72398223750000 
 N -2.63896019062500 -3.19648683125000 -7.184223749999963E-002
 S -0.799594190624999 -6.86198383125000 -4.34610923750000 
 S -3.75399519062500 -6.21623583125000 -1.54487423750000 
 S -1.31688619062500 -7.16573683125000 -0.272661237499999 
 S -0.665422190624999 -2.35984083125000 -4.32300623750000 
 S -3.60978119062500 -2.52927283125000 -1.26376623750000 
 S -1.06891119062500 -3.63511583125000 -0.431472237500000 
