16

 C -2.47439651562500 -6.44999249999999 -2.18345747500000 
 C -1.20652351562500 -7.05213149999999 -1.66429247500000 
 C -2.19953451562500 -2.47557349999999 -2.62282247500000 
 C -1.02858051562500 -2.93658949999999 -1.83075847500000 
 N -0.167856515625002 -7.14351549999999 -2.47775047500000 
 N -2.39399751562500 -6.23603349999999 -3.49674247500000 
 N -2.85943051562500 -6.80795249999999 0.297721525000001 
 N 7.787484374997433E-003 -3.26826649999999 -2.61871847500000 
 N -1.98657051562500 -2.35838949999999 -3.93426147500000 
 N -3.00449051562500 -2.93772549999999 -0.176396474999999 
 S -0.862192515625003 -6.69894249999999 -3.92422847500000 
 S -3.72241851562500 -6.36875949999999 -1.06055447500000 
 S -1.32557851562500 -7.36290049999999 8.577752500000058E-002
 S -0.417026515625002 -2.87377449999999 -4.18679347500000 
 S -3.63163051562500 -2.36756549999999 -1.59867347500000 
 S -1.33068651562500 -3.09114549999999 -7.516947499999937E-002
