16

 C -2.38404262812501 -6.33825140312499 -2.60953239062500 
 C -1.19061462812501 -6.74935440312499 -1.87652239062500 
 C -2.40580462812501 -2.62669540312499 -2.60307639062500 
 C -1.15906062812501 -3.01600640312499 -1.98007939062500 
 N -0.119893628125006 -6.92694840312499 -2.62662139062500 
 N -2.20521862812501 -6.28308040312499 -3.94035339062500 
 N -3.06054362812501 -6.31305140312499 -0.137726390625001 
 N -0.164822628125007 -3.21473540312499 -2.85426339062500 
 N -2.29493962812501 -2.47848340312499 -3.92339139062500 
 N -2.84157362812501 -3.07406740312499 -4.173039062500150E-002
 S -0.630099628125007 -6.68095640312499 -4.17641439062500 
 S -3.76317162812501 -6.20723040312499 -1.59082239062500 
 S -1.44561962812501 -6.86808740312499 -0.138684390625001 
 S -0.686078628125007 -2.77159040312499 -4.31183839062500 
 S -3.64718962812501 -2.61312740312499 -1.39855039062500 
 S -1.25148862812501 -3.30329840312499 -0.264027390625001 
