16

 C -2.38551005625001 -6.61036898437500 -2.29282754375000 
 C -1.11628405625001 -6.92144498437500 -1.66500354375000 
 C -2.60472905625001 -3.14109098437500 -2.04518354375000 
 C -1.32209905625001 -3.45918098437500 -1.35074354375000 
 N -0.165438056250008 -7.06249598437500 -2.58910754375000 
 N -2.37756805625001 -6.42843998437500 -3.59549054375000 
 N -2.87192805625001 -6.91116598437500 0.195906456249996 
 N -0.251352056250008 -3.62735198437500 -2.14328354375000 
 N -2.48670205625001 -3.10102598437500 -3.37696854375000 
 N -3.20487605625001 -3.34432998437500 0.416761456249996 
 S -0.812421056250008 -6.64559598437500 -4.07634554375000 
 S -3.76066205625001 -6.47021598437500 -1.19625454375000 
 S -1.29376805625001 -7.17552698437500 -1.398254375000363E-002
 S -0.860818056250007 -3.22046898437500 -3.68912454375000 
 S -3.93510605625001 -3.14575898437500 -1.04576254375000 
 S -1.50961405625001 -3.57688398437500 0.397933456249996 
