16

 C -2.49225825937499 -6.82225021250000 -2.29241054062500 
 C -1.17448725937499 -7.16842021250000 -1.76940654062500 
 C -2.60443125937499 -2.72499821250000 -2.38494954062500 
 C -1.39095125937499 -3.34945821250000 -1.83677454062500 
 N -0.278882259374993 -7.35784421250000 -2.72168654062500 
 N -2.59900125937499 -6.71068221250000 -3.61981354062500 
 N -2.71815025937499 -7.00625321250000 0.291241459375001 
 N -0.414470259374992 -3.53208421250000 -2.72342854062500 
 N -2.51908025937499 -2.45819121250000 -3.70140254062500 
 N -3.19425725937499 -3.26571421250000 4.729545937500124E-002
 S -1.05690225937499 -7.05766521250000 -4.19052554062500 
 S -3.61977125937499 -6.78894421250000 -1.01015854062500 
 S -1.12519825937499 -7.31322121250000 -2.945854062499875E-002
 S -0.953921259374993 -2.97137821250000 -4.14728954062500 
 S -3.93533525937499 -2.62583421250000 -1.23451154062500 
 S -1.56285825937499 -3.46406321250000 -9.488754062499871E-002
