16

 C -2.24933107500000 -6.49973838125000 -2.50622082812500 
 C -1.08443607499999 -7.08395738125000 -1.82679482812500 
 C -2.36896607500000 -3.01273238125000 -2.29997782812500 
 C -1.19049307499999 -3.50926238125000 -1.64701282812500 
 N -6.687007499999531E-002 -7.22946338125000 -2.65330682812500 
 N -2.07126907499999 -6.21969838125001 -3.79512882812500 
 N -2.82536507500000 -6.76538038125000 2.594817187499876E-002
 N -0.100025074999995 -3.68080938125000 -2.45572282812500 
 N -2.27892107500000 -2.80312438125001 -3.58399282812500 
 N -2.97179307500000 -2.99021638125001 0.148955171874999 
 S -0.549055074999995 -6.77873638125000 -4.17334782812500 
 S -3.59400207500000 -6.20718338125000 -1.35841582812500 
 S -1.31771007500000 -7.41323938125000 -0.173286828125001 
 S -0.748821074999995 -3.16674538125000 -4.04877682812500 
 S -3.71012107499999 -2.77893838125001 -1.27758982812500 
 S -1.35593207499999 -3.54857338125001 7.828317187499878E-002
