16

 C -2.21883259375001 -6.19934571250000 -2.47973498750000 
 C -1.11829159375001 -6.84808871250000 -1.84297398750000 
 C -2.26646159375001 -2.91777271250000 -2.37250298750000 
 C -1.06308959375001 -3.51944871250000 -1.89387498750000 
 N -0.139677593750006 -7.11171471250000 -2.69561098750000 
 N -2.08235159375001 -5.97943871250000 -3.78463198750000 
 N -2.95455659375001 -6.76899371250000 -0.133016987499999 
 N -1.599059375000600E-002 -3.61838571250000 -2.71845998750000 
 N -2.18677059375001 -2.49702171250000 -3.62109798750000 
 N -2.62035159375001 -3.18298071250000 0.182447012500001 
 S -0.576834593750006 -6.59073171250000 -4.20184898750000 
 S -3.62824359375001 -6.08934771250000 -1.48933498750000 
 S -1.35654759375001 -7.14553771250000 -0.196334987499999 
 S -0.684478593750006 -3.00338471250000 -4.17811398750000 
 S -3.55330859375001 -2.71677771250000 -1.16235598750000 
 S -1.05982259375001 -3.73075571250000 -8.176198749999886E-002
