16

 C -2.51730077500000 -6.48613988750000 -2.54836325937500 
 C -1.30827277500000 -6.74846788750000 -1.79294225937500 
 C -2.56865677500000 -2.60514188750000 -2.47514425937500 
 C -1.32269477500000 -2.99808888750000 -1.83157025937500 
 N -0.207686775000004 -6.74233388750000 -2.54479025937500 
 N -2.40335177500000 -6.31423688750000 -3.85271525937500 
 N -3.22194777500000 -6.64721288750000 -5.384525937499962E-002
 N -0.288740775000004 -3.24987188750000 -2.64532225937500 
 N -2.46846577500000 -2.43269688750000 -3.80415125937500 
 N -2.97774077500000 -2.62984588750000 6.077174062500035E-002
 S -0.742410775000004 -6.44329788750000 -4.07959725937500 
 S -3.89909677500000 -6.41023588750000 -1.52639025937500 
 S -1.57693977500000 -6.93032788750000 -0.122839259375000 
 S -0.930801775000003 -2.83748588750000 -4.11113425937500 
 S -3.76115677500000 -2.23804588750000 -1.30198525937500 
 S -1.43325277500000 -3.20069088750000 -9.759425937499966E-002
