16

 C -2.66143797500000 -6.22363664062500 -2.50923852812500 
 C -1.49375997500000 -6.72684664062500 -1.84714952812500 
 C -2.18297297500000 -2.99277664062500 -2.24449152812500 
 C -0.924239975000003 -3.40465364062500 -1.70500352812500 
 N -0.418357975000003 -7.03260664062500 -2.59004352812500 
 N -2.39109297500000 -6.03713464062500 -3.79774552812500 
 N -3.36285497500000 -6.49854564062500 -2.338452812499869E-002
 N 4.457302499999649E-002 -3.38434864062500 -2.60625052812500 
 N -2.12948197500000 -2.71529864062500 -3.53696752812500 
 N -2.60979797500000 -3.44840964062500 0.208565471875001 
 S -0.900394975000003 -6.61654164062500 -4.12284952812500 
 S -4.02191497500000 -5.93678564062500 -1.43030052812500 
 S -1.79213997500000 -7.00005664062500 -0.147665528124999 
 S -0.567888975000003 -2.82335964062500 -4.03726052812500 
 S -3.53400497500000 -2.97676864062500 -1.11473152812500 
 S -1.00373097500000 -3.74981664062500 -2.128652812499854E-002
