16

 C -2.45497982812500 -6.80936247187500 -2.21708012500000 
 C -1.18051782812500 -7.13760747187500 -1.61691712500000 
 C -2.54684682812500 -2.86268847187500 -2.39144012500000 
 C -1.30679882812500 -3.21282947187500 -1.82288712500000 
 N -0.200445828125004 -7.28694147187500 -2.51863312500000 
 N -2.45708582812500 -6.72235047187500 -3.54751312500000 
 N -2.81800782812500 -7.09823147187500 0.350684875000000 
 N -0.286285828125004 -3.39202847187500 -2.67719312500000 
 N -2.52825482812500 -2.61977347187500 -3.68686812500000 
 N -2.95325582812500 -2.93097447187500 0.157405875000000 
 S -0.907154828125004 -6.98882947187500 -3.97787512500000 
 S -3.66111982812500 -6.65660447187500 -1.03948512500000 
 S -1.23323182812500 -7.34376747187500 0.116466875000000 
 S -1.01242682812500 -2.91286647187500 -4.17198412500000 
 S -3.80038282812500 -2.52193047187500 -1.24458612500000 
 S -1.38459782812500 -3.42632747187500 -0.112723125000000 
