16

 C -2.40833161250000 -6.63629585000000 -2.49504448750000 
 C -1.12060561250000 -6.99999085000000 -1.94658048750000 
 C -2.40392061250000 -2.96554085000000 -2.49177248750000 
 C -1.27865661250000 -3.51188285000000 -1.81027448750000 
 N -0.151763612500003 -7.03981785000000 -2.85810848750000 
 N -2.46240761250000 -6.33948785000000 -3.80320548750000 
 N -2.75522061250000 -7.23850185000000 7.057751250000166E-002
 N -0.241064612500003 -3.83831285000000 -2.61508548750000 
 N -2.22095161250000 -2.62976085000000 -3.75866248750000 
 N -3.19314661250000 -3.11147385000000 2.042451250000177E-002
 S -0.894390612500004 -6.64294685000000 -4.32009848750000 
 S -3.62328661250000 -6.72899385000000 -1.27120848750000 
 S -1.12671761250000 -7.34610885000000 -0.239265487499998 
 S -0.692494612500004 -3.26189185000000 -4.10424448750000 
 S -3.83042861250000 -2.68360585000000 -1.46993748750000 
 S -1.61795861250000 -3.70130085000000 -5.478948749999812E-002
