16

 C -2.62754537812500 -6.32152458750000 -2.54012038125000 
 C -1.42223837812500 -6.74245658750000 -1.88441738125000 
 C -2.70461437812500 -2.66389858750000 -2.48206938125000 
 C -1.51404337812500 -3.24304458750000 -1.88589238125000 
 N -0.412928378125003 -6.95220658750000 -2.70586038125000 
 N -2.48308737812500 -6.11798658750000 -3.86620838125000 
 N -3.22751437812500 -6.70728558750000 -7.694238124999941E-002
 N -0.511277378125003 -3.35947758750000 -2.70596438125000 
 N -2.57160337812500 -2.31699958750000 -3.75631538125000 
 N -3.36255237812500 -2.89036158750000 -5.212638124999946E-002
 S -0.833730378125003 -6.41314958750000 -4.20597438125000 
 S -3.97823437812500 -6.17439158750000 -1.43020038125000 
 S -1.57714137812500 -6.97250758750000 -0.240578381249999 
 S -1.00959237812500 -2.77271958750000 -4.14339038125000 
 S -4.11632937812500 -2.51375858750000 -1.51709238125000 
 S -1.78613137812500 -3.42373558750000 -0.120365381249999 
