16

 C -2.45411454062499 -6.67759516250000 -2.24404039687500 
 C -1.13242654062499 -6.81761116250000 -1.58959539687500 
 C -2.33338254062499 -2.73165716250000 -2.51228039687500 
 C -1.04820254062499 -3.13236216250000 -1.97728939687500 
 N -8.224254062499359E-002 -6.78442716250000 -2.41740139687500 
 N -2.34731554062499 -6.57378916250000 -3.56401639687500 
 N -2.96937754062499 -6.92055516250000 0.212545603125001 
 N -0.150242540624993 -3.32555816250000 -2.94210739687500 
 N -2.33016854062499 -2.54975516250000 -3.84559139687500 
 N -2.68550354062499 -2.86333316250000 4.366060312500086E-002
 S -0.702715540624993 -6.56614716250000 -3.97312839687500 
 S -3.79529754062499 -6.63973016250000 -1.16914639687500 
 S -1.33742454062499 -7.07173316250000 0.153938603125001 
 S -0.869411540624993 -3.01845916250000 -4.45858239687500 
 S -3.55627654062499 -2.41246816250000 -1.28949739687500 
 S -1.12241654062499 -3.49197116250000 -0.250512396874999 
