16

 C -2.43476712812500 -6.34499980000001 -2.55934919375000 
 C -1.26158912812500 -6.83969180000001 -1.86289619375000 
 C -2.23545112812500 -2.86510780000001 -2.27959519375000 
 C -0.987195128124998 -3.43127080000001 -1.82465919375000 
 N -0.227563128124998 -7.05975780000001 -2.66096519375000 
 N -2.26204112812500 -6.10023180000001 -3.84626719375000 
 N -3.12888612812500 -6.49592680000001 -0.109395193749999 
 N 4.020871875002108E-003 -3.37516780000001 -2.70599219375000 
 N -2.11957212812500 -2.48604480000001 -3.54761319375000 
 N -2.57329712812500 -3.40042480000001 0.174453806250001 
 S -0.714271128124998 -6.52204180000001 -4.17090619375000 
 S -3.76629212812500 -5.88449780000001 -1.52044919375000 
 S -1.54093712812500 -7.03626080000001 -0.167504193749999 
 S -0.619574128124998 -2.88693980000001 -4.15399719375000 
 S -3.52467412812500 -2.97630780000001 -1.08079819375000 
 S -1.01711812812500 -3.96377280000001 -0.147639193749998 
