16

 C -2.44337238437500 -6.47238555000000 -2.43344490000000 
 C -1.19166738437500 -6.75090455000000 -1.72327490000000 
 C -2.19673738437500 -2.95631755000000 -2.27488890000000 
 C -0.902421384375004 -3.28500455000000 -1.73441490000000 
 N -9.283838437500425E-002 -6.76506855000000 -2.47692790000000 
 N -2.23110638437500 -6.42549455000000 -3.72574790000000 
 N -3.01779838437500 -6.49708955000000 4.514409999999858E-002
 N 3.357361562499506E-002 -3.31728455000000 -2.65321690000000 
 N -2.20000138437500 -2.66669655000000 -3.56996790000000 
 N -2.62081438437500 -3.22942755000000 0.246697099999999 
 S -0.644146384375005 -6.50147355000000 -4.01607590000000 
 S -3.79537538437500 -6.31439255000000 -1.44416990000000 
 S -1.45275038437500 -6.85843555000000 -1.805890000000132E-002
 S -0.639854384375004 -2.96793555000000 -4.09686790000000 
 S -3.46148238437500 -2.84905555000000 -1.07981990000000 
 S -1.02439938437500 -3.52656355000000 -4.844490000000135E-002
