16

 C -2.48919097812500 -6.53791173437500 -2.41623528750000 
 C -1.24857797812500 -7.01373373437500 -1.97411228750000 
 C -2.56264997812500 -2.55849973437500 -2.41353728750000 
 C -1.52612097812500 -3.23789373437500 -1.65611328750000 
 N -0.238298978125001 -7.10372673437500 -2.81548228750000 
 N -2.43282297812500 -6.22858573437500 -3.69863128750000 
 N -2.77423797812500 -7.00349773437500 0.151966712499999 
 N -0.626098978125001 -3.74747073437500 -2.47469128750000 
 N -2.37225097812500 -2.51452273437500 -3.72072628750000 
 N -3.38582097812500 -2.63734073437500 3.981712499999013E-003
 S -0.910225978125001 -6.60971573437500 -4.26271028750000 
 S -3.66263797812500 -6.48051773437500 -1.12189328750000 
 S -1.27268497812500 -7.44752073437500 -0.311258287500001 
 S -0.948000978125001 -3.37568073437500 -4.02593428750000 
 S -3.91182697812500 -2.02535873437500 -1.44965528750000 
 S -1.88153497812500 -3.21348873437500 1.639171249999904E-002
