16

 C -2.57293685312500 -6.57645313750001 -2.41809394375000 
 C -1.31686185312500 -6.87696113750001 -1.72692094375000 
 C -2.66673685312500 -2.82376013750001 -2.51055394375000 
 C -1.47446185312500 -3.27927913750001 -1.86757694375000 
 N -0.238298853125000 -7.00114613750001 -2.46957394375000 
 N -2.43025785312500 -6.55904613750001 -3.73929494375000 
 N -3.09124585312500 -6.44452113750001 8.211105624999959E-002
 N -0.494335853125000 -3.45301713750001 -2.74726094375000 
 N -2.60130085312500 -2.73575013750001 -3.84780294375000 
 N -3.07132785312500 -2.89463913750001 4.385905624999964E-002
 S -0.786939853125000 -6.84502813750001 -4.03937594375000 
 S -3.89326185312500 -6.19331413750001 -1.38309994375000 
 S -1.46578085312500 -6.87642113750001 4.974405624999956E-002
 S -0.976760853125000 -2.97718713750001 -4.25285694375000 
 S -3.87862385312500 -2.46973413750001 -1.33955294375000 
 S -1.52929585312500 -3.38072113750001 -0.131389943750000 
