16

 C -2.40193178125000 -6.41926862500000 -2.62707139062500 
 C -1.16641278125000 -6.87765662500000 -1.95971039062500 
 C -2.27017878125000 -2.52363262500000 -2.54492539062500 
 C -1.02538478125000 -3.05407762500000 -2.04315339062500 
 N -0.146392781250000 -7.16088362500000 -2.78657639062500 
 N -2.23523478125000 -6.40138762500000 -3.93956439062500 
 N -2.97536978125000 -6.62812262500000 -6.409139062500180E-002
 N -8.638578124999974E-002 -3.02313162500000 -2.95213639062500 
 N -2.31554578125000 -2.20483362500000 -3.83299339062500 
 N -2.75950878125000 -3.27574362500000 -0.114412390625002 
 S -0.666556781250000 -6.79422162500000 -4.34870039062500 
 S -3.68314078125000 -6.09798362500000 -1.53224739062500 
 S -1.37099378125000 -6.94551362500000 -0.199823390625002 
 S -0.744787781250000 -2.42583862500000 -4.40311139062500 
 S -3.52632178125000 -2.62917962500000 -1.42462639062500 
 S -1.16137778125000 -3.60591162500000 -0.393728390625002 
