16

 C -2.35515114375000 -6.65476294687500 -2.40011141875000 
 C -1.15125114375000 -7.14669494687500 -1.71362041875000 
 C -2.40386214375000 -2.49407394687500 -2.29455241875000 
 C -1.33409114375000 -3.34230394687500 -1.75155241875000 
 N -0.145763143749996 -7.28969894687500 -2.55597241875000 
 N -2.24909614375000 -6.33797094687500 -3.72728941875000 
 N -3.02419414375000 -6.94559594687500 0.162135581250001 
 N -0.320170143749996 -3.66267294687500 -2.58868741875000 
 N -2.21529914375000 -2.23393694687500 -3.58798241875000 
 N -2.97942414375000 -2.85293994687500 0.171919581250001 
 S -0.627601143749996 -6.74087294687500 -4.04129341875000 
 S -3.70539414375000 -6.43455994687500 -1.21275741875000 
 S -1.35122814375000 -7.30573194687500 3.819358125000138E-002
 S -0.788956143749997 -2.96311094687500 -4.08815341875000 
 S -3.67406514375000 -2.08259894687500 -1.20937941875000 
 S -1.51105714375000 -3.68128094687500 -2.580041874999850E-002
