16

 C -2.33741390312500 -6.23923757187500 -2.28791746562500 
 C -1.14138190312500 -6.83927257187500 -1.66465246562500 
 C -2.50325490312500 -2.76761857187500 -2.65030046562500 
 C -1.21987490312500 -2.97068457187500 -2.05846946562500 
 N -0.150175903125001 -7.02333157187500 -2.54853746562500 
 N -2.23156490312500 -5.81179457187500 -3.55102946562500 
 N -2.93566890312500 -6.81580357187500 0.211647534375001 
 N -0.135895903125001 -2.97726657187500 -2.83569846562500 
 N -2.40375290312500 -2.56300857187500 -3.96114646562500 
 N -2.88506090312500 -3.05417757187500 -0.143381465624999 
 S -0.681919903125001 -6.33897557187500 -3.93722246562500 
 S -3.68758790312500 -6.15895457187500 -1.07742146562500 
 S -1.23938790312500 -7.06889957187500 3.319453437500131E-002
 S -0.753207903125001 -2.56520157187500 -4.37859546562500 
 S -3.85012390312500 -2.92964357187500 -1.52377246562500 
 S -1.25374390312500 -3.37926257187500 -0.317532465624999 
