16

 C -2.31714560937500 -6.45752702187499 -2.51510232812500 
 C -1.09028060937500 -6.82398702187499 -1.82252932812500 
 C -2.51254960937500 -2.67076402187499 -2.49677032812500 
 C -1.31535260937500 -2.96630002187499 -1.76751132812500 
 N -4.299609375001623E-003 -6.92702102187499 -2.61302332812500 
 N -2.18706460937500 -6.24860802187499 -3.86040232812500 
 N -2.79389360937500 -6.54141502187499 6.060467187499863E-002
 N -0.212211609375001 -3.24267902187499 -2.46568732812500 
 N -2.31676960937500 -2.63390802187499 -3.80125432812500 
 N -3.28281360937500 -2.82663702187499 -6.052832812500131E-002
 S -0.607859609375001 -6.56265902187499 -4.12060332812500 
 S -3.64569660937500 -6.18834402187499 -1.41179032812500 
 S -1.26758060937500 -7.14162002187499 -0.163786328125001 
 S -0.696965609375002 -3.07798902187499 -4.09884932812500 
 S -4.03364960937500 -2.61413502187499 -1.58328932812500 
 S -1.62718160937500 -3.10528602187499 -5.696132812500121E-002
