16

 C -2.64357809062500 -6.30156226875000 -2.25432115937500 
 C -1.44448709062500 -6.90575626875000 -1.74747715937500 
 C -2.39899909062500 -2.96134426875000 -2.38446215937500 
 C -1.29515409062500 -3.53971726875000 -1.69041215937500 
 N -0.511727090624995 -7.03931726875000 -2.70774715937500 
 N -2.66853709062500 -6.08581726875000 -3.57048515937500 
 N -3.09021609062500 -6.76248226875000 0.224513840625001 
 N -0.221696090624995 -3.71636226875000 -2.45610715937500 
 N -2.20271609062500 -2.71244826875000 -3.68146615937500 
 N -3.01993809062500 -3.00318326875000 9.369984062500114E-002
 S -1.20978009062500 -6.59846426875000 -4.11167915937500 
 S -3.88817809062500 -6.17038126875000 -1.11537315937500 
 S -1.52316809062500 -7.30579226875000 -5.550715937499895E-002
 S -0.618820090624995 -3.21935526875000 -3.97683515937500 
 S -3.79003809062500 -2.72773626875000 -1.30948615937500 
 S -1.59138609062500 -3.83902426875000 5.724840625001226E-003
