16

 C -2.61706122187500 -6.66989018124999 -2.39015366250000 
 C -1.43851522187500 -7.24228918124999 -1.74069866250000 
 C -2.52023622187500 -2.53139918124999 -2.40087766250000 
 C -1.39405122187500 -3.19692818124999 -1.76341266250000 
 N -0.394669221875001 -7.60742318124999 -2.48303066250000 
 N -2.37315222187500 -6.57004818124999 -3.71194266250000 
 N -3.06704822187500 -6.60347018124999 0.156904337500001 
 N -0.397090221875001 -3.43388418124999 -2.59762466250000 
 N -2.31327422187500 -2.29599318124999 -3.67727666250000 
 N -3.21019522187500 -2.89882018124999 3.469433750000084E-002
 S -0.787360221875002 -7.04910318124999 -3.98792666250000 
 S -3.81882522187500 -6.10563818124999 -1.32319466250000 
 S -1.51341522187500 -7.22330718124999 -7.589662499999372E-003
 S -0.901206221875002 -3.02488418124999 -4.11996666250000 
 S -3.86881422187500 -2.31431618124999 -1.33711766250000 
 S -1.60693722187500 -3.32939218124999 -0.110561662499999 
