16

 C -2.37519404062500 -6.60065398437500 -2.35569035625000 
 C -1.09278704062500 -6.96925198437500 -1.77214935625000 
 C -2.22202304062500 -3.39544398437500 -2.23672635625000 
 C -1.01646804062500 -3.61838698437500 -1.53898835625000 
 N -0.123536040624997 -7.18631698437500 -2.65578035625000 
 N -2.31505604062500 -6.59248098437500 -3.66982235625000 
 N -2.82474504062500 -6.53935798437500 0.112906643749999 
 N 4.819695937500246E-002 -3.70832198437500 -2.34678835625000 
 N -2.12023504062500 -3.38573598437500 -3.59866535625000 
 N -2.81717404062500 -3.22793098437500 0.290555643749999 
 S -0.777002040624997 -6.91204698437500 -4.16611935625000 
 S -3.66994104062500 -6.36137598437500 -1.31435535625000 
 S -1.22604404062500 -6.90502398437500 -2.467835625000081E-002
 S -0.471910040624997 -3.63760298437500 -3.88352735625000 
 S -3.57302004062500 -3.17425898437500 -1.17087335625000 
 S -1.19430304062500 -3.58714898437500 0.177100643749999 
