16

 C -2.28247529375000 -6.37926572500000 -2.40389100937500 
 C -1.04798129375000 -6.81988172500000 -1.80534800937500 
 C -2.58999529375000 -2.69153372500000 -2.26609500937500 
 C -1.33256229375000 -3.14085472500000 -1.64592700937500 
 N -7.042293750004092E-003 -7.00248972500000 -2.63835200937500 
 N -2.16917629375000 -6.08476872500000 -3.69693600937500 
 N -2.81052129375000 -6.64637272500000 0.126273990624999 
 N -0.391002293750004 -3.26582872500000 -2.54789000937500 
 N -2.51604229375000 -2.36614972500000 -3.55132600937500 
 N -3.00480029375000 -2.95892672500000 0.321105990625000 
 S -0.602191293750004 -6.55302272500000 -4.15088400937500 
 S -3.61401229375000 -6.30512372500000 -1.30104000937500 
 S -1.18243029375000 -6.98085072500000 -3.215009375000522E-003
 S -0.905477293750004 -2.68447172500000 -4.01699600937500 
 S -3.84551429375000 -2.54657772500000 -1.09445800937500 
 S -1.35999529375000 -3.23548372500000 4.968499062499943E-002
