16

 C -2.70745308125001 -6.35094216250000 -2.39664822812500 
 C -1.50542708125001 -6.98195216250000 -1.87034522812500 
 C -2.42226908125000 -2.77370616250000 -2.27197422812500 
 C -1.36704208125000 -3.48267616250000 -1.65216222812500 
 N -0.566304081250005 -7.18921016250000 -2.77193122812500 
 N -2.59134008125000 -5.92679016250000 -3.64665322812500 
 N -3.08847308125000 -6.75120616250000 0.154747771875000 
 N -0.338180081250004 -3.73305816250000 -2.44928422812500 
 N -2.29370808125000 -2.60263816250000 -3.58008422812500 
 N -3.15438608125000 -3.16508116250000 0.216726771875000 
 S -1.11694708125000 -6.49196316250000 -4.21512422812500 
 S -3.83133108125000 -5.99999716250000 -1.14638222812500 
 S -1.57467608125001 -7.30772516250000 -0.158245228125000 
 S -0.788364081250005 -3.17091016250000 -3.99222622812500 
 S -3.73982008125000 -2.43667316250000 -1.18858622812500 
 S -1.60984108125001 -3.78743116250000 3.867277187499996E-002
