16

 C -2.60883244687501 -6.70501555000000 -2.26598879062500 
 C -1.36691344687501 -7.02373855000000 -1.62918779062500 
 C -2.68185244687501 -2.38922355000000 -2.30991679062500 
 C -1.54347944687501 -2.98957255000000 -1.68565579062500 
 N -0.337119446875008 -7.07393855000000 -2.48556379062500 
 N -2.48648444687501 -6.45729855000000 -3.57140379062500 
 N -3.23552644687501 -6.79656055000000 0.169903209374999 
 N -0.530884446875008 -3.20068155000000 -2.52115879062500 
 N -2.53467644687501 -2.24986255000000 -3.61810679062500 
 N -3.47299244687501 -2.83631555000000 5.378420937499961E-002
 S -0.927421446875007 -6.66888155000000 -4.00027479062500 
 S -3.98479444687501 -6.52667955000000 -1.22942779062500 
 S -1.61715144687501 -7.18419155000000 0.104646209375000 
 S -0.962859446875007 -2.76620555000000 -4.05750479062500 
 S -4.05927444687501 -2.05223255000000 -1.28552079062500 
 S -1.85948644687501 -3.31832755000000 -5.990790625000519E-003
