16

 C -2.31192204687500 -6.49871058125000 -2.51311812187500 
 C -1.08266904687500 -6.83732958125000 -1.85160112187500 
 C -2.51127804687500 -2.49766958125000 -2.64518112187500 
 C -1.44590404687500 -3.06197158125000 -1.85454312187500 
 N -5.517046875002762E-003 -6.93321458125000 -2.64737912187500 
 N -2.13719504687500 -6.22004258125000 -3.82799012187500 
 N -2.92804204687500 -6.54585758125000 3.289878125000367E-003
 N -0.380587046875003 -3.36269458125000 -2.55303412187500 
 N -2.26518004687500 -2.29248258125000 -3.93164012187500 
 N -3.46969504687500 -2.82132558125000 -0.260145121875000 
 S -0.572643046875003 -6.56257958125000 -4.21875912187500 
 S -3.71980104687500 -6.31288858125000 -1.52043212187500 
 S -1.28684004687500 -6.78742958125000 -8.711312187499964E-002
 S -0.630228046875002 -2.68997858125000 -4.08514212187500 
 S -3.95728804687500 -2.24505158125000 -1.73274012187500 
 S -1.85741104687500 -3.28123158125000 -0.193911121875000 
