16

 C -2.37322054062500 -6.39832680625000 -2.46521309375000 
 C -1.14203054062500 -6.72787480625000 -1.81157609375000 
 C -2.47985154062500 -3.36356480625000 -2.09108009375000 
 C -1.09260454062500 -3.35775580625000 -1.63317809375000 
 N -9.340554062499518E-002 -6.91552180625000 -2.59183509375000 
 N -2.25405354062500 -6.33334380625000 -3.78018909375000 
 N -2.85945054062500 -6.56038380625000 6.530906249998969E-003
 N -0.186962540624996 -3.23990480625000 -2.59411409375000 
 N -2.58473354062500 -3.29377080625000 -3.43189509375000 
 N -2.62321454062500 -3.45522880625000 0.427889906249999 
 S -0.653870540624995 -6.62221180625000 -4.08489109375000 
 S -3.67530654062500 -6.23504980625000 -1.41051309375000 
 S -1.24011154062500 -6.98011080625000 -7.167109375000091E-002
 S -1.01413254062500 -3.27182480625000 -4.00564409375000 
 S -3.64417454062500 -3.29312980625000 -0.809168093750001 
 S -0.991302540624996 -3.53554380625000 5.399190624999894E-002
