16

 C -2.63631064375001 -6.33915990312500 -2.44331734375000 
 C -1.35243064375001 -6.59818690312500 -1.83754934375000 
 C -2.56253564375001 -2.96960790312500 -2.30302034375000 
 C -1.31603564375001 -3.36488390312500 -1.67973334375000 
 N -0.353171643750006 -6.77000290312500 -2.70492934375000 
 N -2.58930464375001 -6.19790490312500 -3.76253434375000 
 N -3.15372464375001 -6.53964790312500 5.625265625000120E-002
 N -0.278129643750006 -3.47136990312500 -2.50882734375000 
 N -2.50507264375001 -2.90732690312500 -3.62986234375000 
 N -3.05464364375001 -3.04216590312500 0.183741656250001 
 S -1.01157964375001 -6.55961290312500 -4.23557034375000 
 S -3.98034564375001 -6.17441390312500 -1.34143234375000 
 S -1.52257264375001 -6.81463090312500 -9.892734374999890E-002
 S -0.879470643750006 -3.11872990312500 -4.03094234375000 
 S -3.88101664375001 -2.65049590312500 -1.19408834375000 
 S -1.44403064375001 -3.47751990312500 4.899265625000115E-002
