16

 C -2.26118568437501 -6.41142900000000 -2.23681191562500 
 C -1.07718068437501 -6.99060500000000 -1.72488891562500 
 C -2.29460468437501 -2.53551900000000 -2.46094691562500 
 C -1.12016468437501 -3.17581400000000 -1.88514291562500 
 N -0.106179684375007 -7.31565900000000 -2.59458991562500 
 N -2.24051468437501 -6.29315600000000 -3.55285691562500 
 N -2.72886968437501 -6.73597600000000 0.318435084375001 
 N -0.121044684375007 -3.36722800000000 -2.75377291562500 
 N -2.17615768437501 -2.29599300000000 -3.77244691562500 
 N -2.86218368437501 -3.13230100000000 -1.175191562499878E-002
 S -0.700917684375007 -6.88019900000000 -4.08805591562500 
 S -3.51138568437501 -6.09554500000000 -1.01047491562500 
 S -1.10267968437501 -7.28737400000000 2.805084375001154E-003
 S -0.678258684375007 -2.76693900000000 -4.22935591562500 
 S -3.64360768437501 -2.39572000000000 -1.26268391562500 
 S -1.22568468437501 -3.59591000000000 -0.209424915624999 
