16

 C -2.47598940312500 -6.65229821875001 -2.42492026250000 
 C -1.19865940312500 -6.89797621875001 -1.74555926250000 
 C -2.12602640312500 -2.85228321875001 -2.33066826250000 
 C -0.932084403125000 -3.34802521875001 -1.63152626250000 
 N -0.154425403124999 -6.88713521875001 -2.57588826250000 
 N -2.39393840312500 -6.45780121875001 -3.76859826250000 
 N -2.94502540312500 -6.97282221875001 0.114279737500002 
 N 0.211435596875001 -3.31733821875001 -2.36002126250000 
 N -1.85760340312500 -2.62662721875001 -3.60121426250000 
 N -2.95869840312500 -3.15291921875001 7.070573750000153E-002
 S -0.735469403124999 -6.64686621875001 -4.12193726250000 
 S -3.82125040312500 -6.72631421875001 -1.26791126250000 
 S -1.29712740312500 -7.28321721875001 -0.102511262499998 
 S -0.313528403124999 -2.99846321875001 -3.94026726250000 
 S -3.49237640312500 -2.47026721875001 -1.37654526250000 
 S -1.37439840312500 -3.69108021875001 5.972273750000157E-002
