16

 C -2.34810140625000 -6.63425507500000 -2.20731515937500 
 C -1.06924340625000 -7.03697507500000 -1.62229115937500 
 C -2.38805240625000 -2.84056207500000 -2.45416515937500 
 C -1.15103540625000 -3.11313907500000 -1.70354815937500 
 N -7.871840625000104E-002 -7.09956707500000 -2.52082915937500 
 N -2.27130140625000 -6.34439107500000 -3.49287115937500 
 N -2.92985040625000 -6.98057507500000 0.227442840624999 
 N -0.140423406250001 -3.33017507500000 -2.55657015937500 
 N -2.16173440625000 -2.69621807500000 -3.75590115937500 
 N -3.10097340625000 -3.01330507500000 4.467084062499938E-002
 S -0.698567406250000 -6.69987207500000 -4.04649615937500 
 S -3.75383540625000 -6.68633007500000 -1.16083215937500 
 S -1.24844140625000 -7.32365107500000 0.104670840624999 
 S -0.594949406250000 -3.08790407500000 -4.13926415937500 
 S -3.75121940625000 -2.60574707500000 -1.43595015937500 
 S -1.39937940625000 -3.11617807500000 5.037084062499941E-002
