16

 C -2.49802684687500 -6.56439166562501 -2.63988486562500 
 C -1.30379184687500 -7.11053366562501 -1.97203686562500 
 C -2.24679384687500 -2.49700066562501 -2.32732886562500 
 C -1.02893784687500 -3.11716066562501 -1.90163986562500 
 N -0.305887846874998 -7.21099066562501 -2.83239186562500 
 N -2.38955084687500 -6.36218666562501 -3.98340186562500 
 N -2.86546684687500 -6.60376666562501 -1.349686562500052E-002
 N -0.152721846874998 -3.37511666562501 -2.90455786562500 
 N -2.28421984687500 -2.13648466562501 -3.59545586562500 
 N -2.74138784687500 -3.17457766562501 7.977913437499962E-002
 S -0.832438846874998 -6.79334366562501 -4.33391586562500 
 S -3.70521284687500 -6.33786666562501 -1.42672086562500 
 S -1.43682284687500 -7.26077666562501 -0.263577865625000 
 S -0.783941846874998 -2.57424766562501 -4.28139686562500 
 S -3.52481884687500 -2.49664866562501 -1.19600186562500 
 S -1.19987784687500 -3.60816966562501 -0.230196865625000 
