16

 C -2.27787634062500 -6.49911120625000 -2.57285752812500 
 C -1.07312334062500 -7.00374020625001 -1.99116452812500 
 C -2.67005834062500 -2.43554920625001 -2.35317552812500 
 C -1.52695834062500 -2.92911820625001 -1.63707652812500 
 N -4.737634062500451E-002 -7.28606620625001 -2.80502452812500 
 N -2.09806034062500 -6.25366820625000 -3.86925752812500 
 N -2.80417134062500 -6.47182120625000 -0.115313528125000 
 N -0.469385340625005 -3.23921120625000 -2.38031752812500 
 N -2.57454534062500 -2.53650420625001 -3.67759652812500 
 N -3.44656434062500 -2.77960020625000 0.110086471875000 
 S -0.597352340625005 -6.78411720625000 -4.31804152812500 
 S -3.58935434062500 -6.10770320625000 -1.53889252812500 
 S -1.23113334062500 -6.98964220625001 -0.228076528124999 
 S -1.00647734062500 -2.93358920625001 -3.95678752812500 
 S -4.14499334062501 -2.20121920625000 -1.30380752812500 
 S -1.81575734062500 -3.09185020625001 8.189947187500035E-002
