16

 C -2.49186193125000 -6.54416504375000 -2.54678520312500 
 C -1.28725593125000 -7.04536204375000 -1.91570520312500 
 C -2.73041793125000 -2.91364304375000 -2.52419820312500 
 C -1.57526393125000 -3.45297704375000 -1.86039420312500 
 N -0.204147931249999 -7.13468804375000 -2.65630220312500 
 N -2.26771493125000 -6.27488004375000 -3.84407120312500 
 N -3.11304593125000 -6.76287504375000 -6.584420312500172E-002
 N -0.538140931249999 -3.60257904375000 -2.68621420312500 
 N -2.55624893125000 -2.56678504375000 -3.78596120312500 
 N -3.47186493125000 -3.23707004375000 -3.550520312500161E-002
 S -0.676752931249999 -6.61837404375000 -4.13054720312500 
 S -3.80037693125000 -6.33140904375000 -1.46079520312500 
 S -1.52614693125000 -7.24004304375000 -0.200232203125002 
 S -1.00030393125000 -3.18205004375000 -4.21786820312500 
 S -4.00401093125000 -2.48281504375000 -1.40550320312500 
 S -1.88378593125000 -3.75593804375000 -0.103075203125002 
