16

 C -2.61624594375000 -6.36528558750000 -2.48277628437500 
 C -1.39332794375000 -6.93166758750000 -2.00042328437500 
 C -2.66684494375000 -3.04196358750000 -2.34907928437500 
 C -1.51544894375000 -3.34337458750000 -1.61607728437500 
 N -0.526931943749998 -7.05200458750000 -2.97993528437500 
 N -2.67571494375000 -6.18425258750000 -3.81571028437500 
 N -2.92227294375000 -6.78288458750000 2.189671562500140E-002
 N -0.406020943749998 -3.56511058750000 -2.35746428437500 
 N -2.48011894375000 -2.98077058750000 -3.66664628437500 
 N -3.39272594375000 -2.87645358750000 0.126159715625001 
 S -1.11438494375000 -6.48832458750000 -4.44351428437500 
 S -3.76365294375000 -5.99695158750000 -1.20683028437500 
 S -1.36043694375000 -7.18489558750000 -0.289947284374999 
 S -0.910623943749997 -3.48587858750000 -3.93596428437500 
 S -4.03247194375000 -2.68195158750000 -1.36115128437500 
 S -1.83258094375000 -3.39333158750000 8.077971562500141E-002
