16

 C -2.30611799062500 -6.78143095937500 -2.41032735625000 
 C -1.10770299062500 -7.25746495937500 -1.71630335625000 
 C -2.56488899062500 -2.66311095937500 -2.32781035625000 
 C -1.57128499062500 -3.52340595937501 -1.78823035625000 
 N -3.159990625000830E-003 -7.47985795937501 -2.45244735625000 
 N -2.15327699062500 -6.71807895937501 -3.72693235625000 
 N -3.02478999062500 -6.89339495937501 0.105661643750000 
 N -0.728616990625000 -4.03093695937500 -2.64763135625000 
 N -2.56894399062500 -2.48602895937501 -3.62959335625000 
 N -3.13530899062500 -2.87443795937501 0.228622643750001 
 S -0.538207990625001 -7.13577495937500 -3.99858935625000 
 S -3.71809699062500 -6.50473095937500 -1.37249735625000 
 S -1.47872699062500 -7.51827195937500 -7.614356249999510E-003
 S -1.15507499062500 -3.26643495937501 -4.10526735625000 
 S -3.76816299062500 -2.18585995937500 -1.14691235625000 
 S -1.78250699062500 -3.78474695937501 -0.123248356250000 
