16

 C -2.38495878125001 -6.30590311562501 -2.23755170312500 
 C -1.15025078125001 -6.72128611562501 -1.63539470312500 
 C -2.47898678125001 -2.75972211562501 -2.81413170312500 
 C -1.15148278125001 -2.89328411562501 -2.23909170312500 
 N -0.159181781250012 -6.74162011562501 -2.49617570312500 
 N -2.27201778125001 -5.96017911562501 -3.50817970312500 
 N -2.78728478125001 -6.52739711562501 0.238402296874998 
 N -0.131538781250012 -2.89112511562501 -3.09706370312500 
 N -2.39803578125001 -2.66059111562501 -4.11501570312500 
 N -2.91697978125001 -3.09903711562501 -0.331432703125002 
 S -0.728393781250012 -6.25923811562501 -3.98585770312500 
 S -3.71515178125001 -6.18351911562501 -1.17183470312500 
 S -1.34842778125001 -7.20721511562501 -2.101170312500211E-002
 S -0.826442781250012 -2.56517411562501 -4.56181170312500 
 S -3.83406778125001 -2.97511711562501 -1.69231670312500 
 S -1.23911578125001 -3.13677011562501 -0.435010703125002 
