16

 C -2.55153099687501 -6.59794693125000 -2.43921601562500 
 C -1.23980799687501 -6.98354493125000 -1.95767201562500 
 C -2.55463899687501 -2.75192093125000 -2.55317401562500 
 C -1.41931399687501 -3.24471993125000 -1.79503901562500 
 N -0.266410996875007 -7.00444293125000 -2.86509501562500 
 N -2.54211899687501 -6.34324493125000 -3.72753801562500 
 N -2.94177899687501 -6.94824593125000 7.176898437499979E-002
 N -0.324889996875007 -3.48010793125000 -2.51858301562500 
 N -2.40740199687501 -2.74655793125000 -3.90406901562500 
 N -3.27423699687501 -2.71914593125000 -2.626201562500019E-002
 S -1.00923199687501 -6.58910993125000 -4.28286701562500 
 S -3.76088099687501 -6.47853993125000 -1.26406401562500 
 S -1.38501499687501 -7.29157693125000 -0.235880015625000 
 S -0.842600996875007 -3.16602793125000 -4.11314201562500 
 S -3.91024799687501 -2.28985693125000 -1.50652301562500 
 S -1.70729699687501 -3.24039693125000 -0.103133015625000 
