16

 C -2.28745411875000 -6.17270730625000 -2.02319828750000 
 C -1.09366111875000 -6.79405230625000 -1.51304128750000 
 C -2.32311511875000 -2.54056230625000 -2.30652328750000 
 C -1.23837811875000 -3.20471730625000 -1.55190928750000 
 N -9.087411874999951E-002 -6.93927330625000 -2.41565328750000 
 N -2.12279811875000 -5.75671530625000 -3.29891928750000 
 N -2.92236311875000 -6.86196930625000 0.423404712499998 
 N -0.203511118749999 -3.53640930625000 -2.31588328750000 
 N -2.06580311875000 -2.38971330625000 -3.62082728750000 
 N -3.08314911875000 -2.99450130625000 0.170345712499998 
 S -0.618461118749999 -6.15845330625000 -3.79273028750000 
 S -3.62812611875000 -6.15590330625000 -0.939159287500002 
 S -1.34713111875000 -7.20168230625000 0.242549712499998 
 S -0.521724118749999 -2.89727930625000 -3.84560128750000 
 S -3.78109111875000 -2.45116730625000 -1.31041028750000 
 S -1.42152511875000 -3.27968930625000 0.134035712499998 
