16

 C -2.51337173437500 -6.43093798749999 -2.49385240000000 
 C -1.22857673437500 -6.69157298749999 -1.90654540000000 
 C -2.63511973437500 -2.73968798749999 -2.30179440000000 
 C -1.45234673437500 -3.25059898749999 -1.72265540000000 
 N -0.246612734374999 -6.86762698749999 -2.77098240000000 
 N -2.49317973437500 -6.24971198749999 -3.81242940000000 
 N -2.88636073437500 -6.37369198749999 3.600160000000008E-002
 N -0.457074734374999 -3.58837998749999 -2.55863740000000 
 N -2.64537673437500 -2.70208498749999 -3.63773140000000 
 N -3.19948673437500 -3.00207198749999 0.178484600000000 
 S -0.879809734374999 -6.54957798749999 -4.27414940000000 
 S -3.77701873437500 -6.14594598749999 -1.33276740000000 
 S -1.27399173437500 -6.63278398749999 -0.211983400000000 
 S -1.08452173437500 -3.16777798749999 -4.08393440000000 
 S -4.03600973437500 -2.63256698749999 -1.20462340000000 
 S -1.57763073437500 -3.41207898749999 3.558560000000011E-002
