16

 C -2.45040239375000 -6.22188727812500 -2.37413760312500 
 C -1.28127239375000 -6.90045627812500 -1.85242360312500 
 C -2.61696639375000 -2.42514427812500 -2.64460260312500 
 C -1.39597539375000 -2.89335127812500 -2.02434460312500 
 N -0.385121393750003 -7.13106327812500 -2.80922660312500 
 N -2.39978639375000 -5.93072427812500 -3.68078560312500 
 N -2.84842439375000 -6.31017827812500 0.172800396875000 
 N -0.381009393750004 -3.07963227812500 -2.80767860312500 
 N -2.54050439375000 -2.42270027812500 -3.95293760312500 
 N -3.09634839375000 -2.47517927812500 -9.419060312499949E-002
 S -0.988017393750003 -6.57321327812500 -4.25101160312500 
 S -3.60944939375000 -5.77510627812500 -1.17916160312500 
 S -1.36756139375000 -7.09072327812500 -0.120829603125000 
 S -0.993359393750003 -2.87671627812500 -4.40133960312500 
 S -3.82000239375000 -2.06663527812500 -1.51628160312500 
 S -1.51827639375000 -2.94348127812500 -0.296216603125000 
