16

 C -2.60633906562500 -6.67102229375000 -2.14503032187500 
 C -1.41641506562500 -7.24742329375000 -1.63253532187500 
 C -2.29144706562500 -2.75105529375000 -2.35265132187500 
 C -1.14206906562500 -3.34002329375000 -1.74903532187500 
 N -0.565105065624999 -7.52313429375000 -2.57912532187500 
 N -2.58523906562500 -6.32109129375000 -3.42970332187500 
 N -2.99414406562500 -7.00096429375000 0.377141678125001 
 N -0.211978065624999 -3.70745029375000 -2.61974932187500 
 N -2.19606306562500 -2.57379529375000 -3.65257932187500 
 N -2.83344506562500 -3.00672129375000 0.144282678125001 
 S -1.17181406562500 -6.96900129375000 -4.03614032187500 
 S -3.89690706562500 -6.45558129375000 -0.899494321874999 
 S -1.43608706562500 -7.51939129375000 6.003967812500122E-002
 S -0.699646065624999 -3.11660729375000 -4.10195232187500 
 S -3.57406906562500 -2.50725529375000 -1.24829832187500 
 S -1.23940806562500 -3.45445829375000 -3.036832187499861E-002
