16

 C -2.50041996875000 -6.53876377500000 -2.42685008750000 
 C -1.24796896875000 -6.98914277500000 -1.96688408750000 
 C -2.56818296875000 -2.54115877500000 -2.44813508750000 
 C -1.52387396875000 -3.25554477500000 -1.67645308750000 
 N -0.219465968750004 -7.07333977500000 -2.82288108750000 
 N -2.47356596875000 -6.23220477500000 -3.72178808750000 
 N -2.76251596875000 -6.97598577500000 0.136305912500001 
 N -0.583567968750004 -3.74817777500000 -2.47357108750000 
 N -2.38803296875000 -2.55833177500000 -3.75533408750000 
 N -3.39798896875000 -2.63490677500000 1.232912500001238E-003
 S -0.910697968750005 -6.60404777500000 -4.27124308750000 
 S -3.66981396875000 -6.48200377500000 -1.12014208750000 
 S -1.26674396875000 -7.45572077500000 -0.318994087499999 
 S -0.947724968750004 -3.37147477500000 -4.02688908750000 
 S -3.89166696875000 -2.03167377500000 -1.44891008750000 
 S -1.86965396875000 -3.20880277500000 1.487491250000117E-002
