16

 C -2.13759726562499 -6.78032545937500 -2.50488840312500 
 C -1.00005926562499 -7.32228145937500 -1.81117740312500 
 C -2.54564726562499 -2.58478845937500 -2.57145840312500 
 C -1.35785626562499 -3.09611445937500 -1.88760640312500 
 N -7.723426562499203E-002 -7.74806545937500 -2.67548740312500 
 N -2.05655926562499 -6.82015145937500 -3.85671240312500 
 N -2.73332826562499 -6.62910745937500 3.664859687500011E-002
 N -0.327703265624993 -3.39171845937500 -2.69694340312500 
 N -2.41461526562499 -2.51895845937500 -3.88706140312500 
 N -3.18228326562499 -2.79132045937500 -7.256140312499992E-002
 S -0.574898265624992 -7.45492245937500 -4.25517140312500 
 S -3.49119026562499 -6.39033745937500 -1.41370240312500 
 S -1.28023826562499 -7.41696845937500 -1.131740312499985E-002
 S -0.905435265624992 -3.16449545937500 -4.24982340312500 
 S -3.92742226562499 -2.41550245937500 -1.51473140312500 
 S -1.49135626562499 -3.10346545937500 -0.134628403125000 
