16

 C -2.35194676562500 -6.43704354062500 -2.32647273750000 
 C -1.10492276562500 -6.86674154062500 -1.77397573750000 
 C -2.55889776562500 -2.70779854062500 -2.39158673750000 
 C -1.45075076562500 -3.29463454062500 -1.72230573750000 
 N -0.151971765625000 -6.92131154062500 -2.69064773750000 
 N -2.34657676562500 -6.19895154062500 -3.63152973750000 
 N -2.70309976562500 -6.79290754062500 0.228112262500000 
 N -0.341179765625000 -3.45057754062500 -2.48673473750000 
 N -2.35881076562500 -2.54852454062500 -3.68775173750000 
 N -3.25239676562500 -2.97833154062500 2.380626250000017E-002
 S -0.786391765625001 -6.47569754062500 -4.14175673750000 
 S -3.60309176562500 -6.40384954062500 -1.09854373750000 
 S -1.08371376562500 -7.16661354062500 -8.817473749999971E-002
 S -0.840464765625001 -3.00291054062500 -4.06360673750000 
 S -3.91218976562500 -2.39826354062500 -1.43460273750000 
 S -1.63867476562500 -3.39303954062500 -6.117374999998759E-004
