16

 C -2.20387806875000 -6.40063909375000 -2.39387554375000 
 C -0.960464068750000 -6.75691009375000 -1.76904854375000 
 C -2.55240406875000 -2.63908809375000 -2.36161654375000 
 C -1.32530706875000 -2.97241009375000 -1.67398654375000 
 N 6.850393124999954E-002 -6.76866909375000 -2.59296254375000 
 N -2.16669606875000 -6.26052509375000 -3.73212854375000 
 N -2.67211006875000 -6.84849009375000 8.864045625000161E-002
 N -0.340354068750001 -3.22080209375000 -2.53298754375000 
 N -2.44027406875000 -2.57528509375000 -3.68437854375000 
 N -3.17583706875000 -3.01204609375000 0.136973456250002 
 S -0.566074068750001 -6.51613009375000 -4.11940954375000 
 S -3.49132106875000 -6.31736609375000 -1.24392654375000 
 S -1.01628406875000 -7.05000709375000 -6.381054374999851E-002
 S -0.871349068750001 -2.93861509375000 -4.07277754375000 
 S -3.88832106875000 -2.53198409375000 -1.28937954375000 
 S -1.50666106875000 -3.33855409375000 1.196445625000164E-002
