16

 C -2.37642366562500 -6.41358112500000 -2.39627755312500 
 C -1.17578766562500 -6.65052312500000 -1.69774855312500 
 C -2.26663166562500 -2.83715212500000 -2.36260055312500 
 C -0.974668665624998 -3.22536512500000 -1.79163255312500 
 N -9.368966562499814E-002 -6.76132412500000 -2.46724955312500 
 N -2.26226966562500 -6.42149512500000 -3.73724855312500 
 N -3.07640366562500 -6.45260012500000 -1.592553125000284E-003
 N 6.225233437500144E-002 -3.35832712500000 -2.64367955312500 
 N -2.22212166562500 -2.73683012500000 -3.70205255312500 
 N -2.60221166562500 -3.24934812500000 0.207767446875000 
 S -0.630936665624998 -6.53229512500000 -4.02630155312500 
 S -3.85473666562500 -6.22697312500000 -1.46617155312500 
 S -1.41309766562500 -6.85372712500000 -5.251055312500030E-002
 S -0.614496665624999 -2.93184312500000 -4.15175055312500 
 S -3.52874766562500 -2.83247212500000 -1.16009955312500 
 S -0.958383665624998 -3.54801912500000 -5.515255312500011E-002
