16

 C -2.18722490000000 -6.84654055937499 -2.51195601562500 
 C -0.980331900000002 -7.29850255937499 -1.85721001562500 
 C -2.54166490000000 -2.60991755937499 -2.55256801562500 
 C -1.34084390000000 -3.10045155937499 -1.91043301562500 
 N -2.942190000000178E-002 -7.72392255937499 -2.65089301562500 
 N -2.13174190000000 -6.90850455937499 -3.85575101562500 
 N -2.74136790000000 -6.61302155937499 -2.275101562500281E-002
 N -0.386276900000002 -3.48807155937499 -2.76397001562500 
 N -2.44844590000000 -2.55374555937499 -3.85967701562500 
 N -3.07343790000000 -2.72089355937499 1.676398437499715E-002
 S -0.615621900000002 -7.44359455937499 -4.21498801562500 
 S -3.50069290000000 -6.31927255937499 -1.54216901562500 
 S -1.20471890000000 -7.32259355937499 -5.678901562500283E-002
 S -0.874962900000003 -3.06257155937499 -4.28548301562500 
 S -3.86414490000000 -2.39229355937499 -1.42142201562500 
 S -1.51916790000000 -3.14421855937499 -0.213154015625003 
