16

 C -2.40815799375000 -6.54434490312500 -2.18918439375000 
 C -1.22136699375000 -7.07293090312500 -1.60759239375000 
 C -2.18554699375000 -2.45218790312500 -2.60663439375000 
 C -1.04711299375000 -2.95947390312500 -1.85755339375000 
 N -0.234125993750000 -7.23923190312500 -2.50683439375000 
 N -2.39095899375000 -6.35415690312500 -3.49437939375000 
 N -2.88937799375000 -6.83978890312500 0.308412606249999 
 N 1.293800624999975E-002 -3.22256790312500 -2.60799039375000 
 N -1.98809399375000 -2.24011790312500 -3.93941339375000 
 N -3.00325199375000 -2.92386590312500 -0.166441393750001 
 S -0.876272993750000 -6.69909890312500 -3.96088839375000 
 S -3.72429199375000 -6.31348690312500 -1.10402639375000 
 S -1.31843399375000 -7.31898390312500 0.113615606249999 
 S -0.444020993750000 -2.84892890312500 -4.17164739375000 
 S -3.65369999375000 -2.39158790312500 -1.59733239375000 
 S -1.33965099375000 -3.09993790312500 -6.133839375000116E-002
