16

 C -2.51894484062501 -6.57692742812501 -2.32006225625000 
 C -1.33153584062501 -7.09174742812501 -1.70497425625000 
 C -2.74702384062501 -2.50515242812501 -2.36240125625000 
 C -1.67315584062501 -3.27304942812501 -1.68349925625000 
 N -0.316838840625008 -7.28928642812501 -2.52083225625000 
 N -2.41094584062501 -6.33818242812501 -3.62418425625000 
 N -2.97463284062501 -6.92232342812501 0.216313743750002 
 N -0.561002840625009 -3.48389642812501 -2.41068525625000 
 N -2.44860484062501 -2.34433242812501 -3.65170725625000 
 N -3.40774684062501 -2.52785642812501 0.139246743750002 
 S -0.857394840625009 -6.82283442812501 -4.03290025625000 
 S -3.87430984062501 -6.47056342812501 -1.10689425625000 
 S -1.44916884062501 -7.46011042812501 -2.893825624999802E-002
 S -0.910718840625009 -2.93285642812501 -3.93755325625000 
 S -4.07292184062501 -1.98246742812501 -1.34983525625000 
 S -1.98773784062501 -3.39779342812501 4.890274375000203E-002
