16

 C -2.48727374687500 -6.25652294687500 -2.47251854375000 
 C -1.27555874687500 -6.66577994687500 -1.74906454375000 
 C -2.41939074687500 -2.26756294687500 -2.38544654375000 
 C -1.21338474687500 -2.89050194687500 -1.82207254375000 
 N -0.219596746874997 -6.95281894687500 -2.49964054375000 
 N -2.32443374687500 -6.18313094687500 -3.80465054375000 
 N -3.07837874687500 -6.51221494687500 -3.468543750002606E-003
 N -0.219416746874996 -3.15843994687500 -2.68477854375000 
 N -2.29742974687500 -1.97901294687500 -3.66880054375000 
 N -3.00173774687500 -2.91083394687500 8.630345624999736E-002
 S -0.701570746874997 -6.68686794687500 -4.02265754375000 
 S -3.81207174687500 -5.89863894687500 -1.36938054375000 
 S -1.47849574687500 -6.87012394687500 -0.107550543750003 
 S -0.827724746874996 -2.57900994687500 -4.12034854375000 
 S -3.76351974687500 -2.18169894687500 -1.22783554375000 
 S -1.38022574687500 -3.21782994687500 -8.781654375000270E-002
