16

 C -2.29391111250000 -6.06263985000000 -2.00518980937500 
 C -1.09825711250000 -6.70718085000000 -1.45064880937500 
 C -2.33771411250000 -2.66157285000000 -2.29735980937500 
 C -1.20425311250000 -3.15219285000000 -1.59086680937500 
 N -0.133151112500002 -6.88659385000000 -2.34361980937500 
 N -2.22485211250000 -5.76043685000000 -3.30118580937500 
 N -2.85956811250000 -6.84890085000000 0.371990190624999 
 N -0.135431112500002 -3.43237885000000 -2.33356080937500 
 N -2.11645311250000 -2.45829185000000 -3.57511180937500 
 N -3.10695211250000 -2.91395185000000 7.133019062499946E-002
 S -0.667622112500002 -6.22172385000000 -3.78937780937500 
 S -3.61137011250000 -6.15270985000000 -0.916402809375001 
 S -1.21769611250000 -7.26557185000000 0.174257190624999 
 S -0.581187112500001 -3.04188585000000 -3.86921980937500 
 S -3.72334911250000 -2.41910985000000 -1.34800480937500 
 S -1.50143011250000 -3.29233485000000 8.391219062499955E-002
