16

 C -2.56067454687501 -6.31043200625000 -2.25053330312500 
 C -1.37448254687501 -6.85460900625000 -1.57297530312500 
 C -2.50605354687501 -3.10621200625000 -2.31736030312500 
 C -1.23898054687501 -3.28541400625000 -1.67616830312500 
 N -0.393721546875009 -7.05104600625000 -2.44481530312500 
 N -2.51318454687501 -6.18256800625000 -3.58698230312500 
 N -3.04809554687501 -6.58497300625000 0.283060696875001 
 N -0.194800546875008 -3.43058400625000 -2.50920130312500 
 N -2.43892654687501 -3.02216800625000 -3.64023530312500 
 N -3.02550654687501 -3.17074100625000 0.155433696875001 
 S -0.921929546875008 -6.61316600625000 -3.96440430312500 
 S -3.82852654687501 -6.16314900625000 -1.09587730312500 
 S -1.52411354687501 -7.09949900625000 8.383669687500128E-002
 S -0.903299546875008 -3.20227300625000 -4.02165030312500 
 S -3.83230554687501 -2.88462400625000 -1.26433330312500 
 S -1.35534854687501 -3.37185800625000 6.541569687500126E-002
