16

 C -2.31862810625000 -6.47515666875000 -2.51198640625000 
 C -1.05170810625000 -6.78757166875001 -1.83875340625000 
 C -2.40878310625000 -3.27202966875001 -2.10980440625000 
 C -1.11591410625000 -3.38235666875001 -1.56272840625000 
 N -4.657110624999561E-002 -6.89644166875001 -2.70645040625000 
 N -2.24233610625000 -6.44334166875000 -3.82651540625000 
 N -2.95844310625000 -6.55222866875001 -1.456240624999872E-002
 N -0.174092106249995 -3.48785966875001 -2.48572940625000 
 N -2.50096110625000 -3.24786466875001 -3.43466340625000 
 N -2.77755810625000 -3.60670066875001 0.426170593750001 
 S -0.648620106249996 -6.69883066875001 -4.24690240625000 
 S -3.72806010625000 -6.24703466875001 -1.41589840625000 
 S -1.33508410625000 -6.82727066875001 -7.185040624999894E-002
 S -0.901733106249996 -3.36999566875001 -3.95810340625000 
 S -3.68050710625000 -3.35557866875001 -0.914442406249999 
 S -1.10945710625000 -3.65481366875001 0.197342593750001 
