16

 C -2.42763214687500 -6.42536043437500 -2.47894931562500 
 C -1.21367714687500 -6.83956343437500 -1.83240531562500 
 C -2.48987314687500 -2.48704943437500 -2.18613431562500 
 C -1.23119514687500 -2.97930443437500 -1.58537731562500 
 N -0.162443146875002 -7.02161243437500 -2.62991931562500 
 N -2.21748414687500 -6.20732043437500 -3.77746131562500 
 N -3.00209014687500 -6.57235843437500 6.857768437499945E-002
 N -0.250317146875002 -3.10516843437500 -2.49356331562500 
 N -2.50327414687500 -2.41265043437500 -3.54277531562500 
 N -2.94395914687500 -2.92277643437500 0.364589684374999 
 S -0.671455146875002 -6.63674043437500 -4.17110731562500 
 S -3.73131314687500 -6.10112643437500 -1.34969831562500 
 S -1.40689514687500 -7.08612043437500 -7.083731562500084E-002
 S -0.970281146875002 -2.83182843437500 -3.95540231562500 
 S -3.76250614687500 -2.36695243437500 -0.957000315625001 
 S -1.35038514687500 -3.38898843437500 0.115309684374999 
