16

 C -2.62773717187501 -6.41927620625000 -2.46586027812500 
 C -1.34946117187501 -6.62294520625000 -1.81037227812500 
 C -2.67935517187501 -2.66896920625000 -2.57391127812500 
 C -1.38905817187501 -2.95433520625000 -2.00120027812500 
 N -0.264179171875010 -6.63182420625000 -2.58464527812500 
 N -2.44784517187501 -6.29582020625000 -3.78651927812500 
 N -3.10322017187501 -6.54226520625000 6.604872187499833E-002
 N -0.397144171875010 -3.00700620625000 -2.87102627812500 
 N -2.72915417187501 -2.46891420625000 -3.84698127812500 
 N -3.10123217187501 -3.13834020625000 -9.001327812500159E-002
 S -0.785781171875010 -6.38166520625000 -4.10786927812500 
 S -3.93488617187501 -6.45992520625000 -1.33151827812500 
 S -1.45665217187501 -6.92339820625000 -0.109439278125002 
 S -1.18041817187501 -2.73794420625000 -4.37657727812500 
 S -3.95021617187501 -2.51467720625000 -1.38304927812500 
 S -1.48922617187501 -3.34458320625000 -0.336532278125002 
