16

 C -2.30644017500001 -6.32355260937500 -2.40196132812500 
 C -1.13893017500001 -6.77373660937500 -1.74185632812500 
 C -2.62373317500001 -2.68102360937500 -2.65269732812500 
 C -1.38441717500001 -3.01959060937500 -1.93994532812500 
 N -0.123335175000006 -7.12322460937500 -2.55180532812500 
 N -2.19396217500001 -6.21022060937500 -3.73188332812500 
 N -2.69980417500001 -6.23357960937500 0.170876671874999 
 N -0.319084175000007 -3.15697260937500 -2.73869132812500 
 N -2.54079917500001 -2.68337960937500 -3.99823732812500 
 N -3.21972817500001 -2.79126660937500 -5.996932812500044E-002
 S -0.650699175000007 -6.75875460937500 -4.09625332812500 
 S -3.64152217500001 -6.02604460937500 -1.21664832812500 
 S -1.25022317500001 -7.02332660937500 -5.812328125000432E-003
 S -0.936680175000006 -3.04770760937500 -4.28991632812500 
 S -3.90493717500001 -2.30535660937500 -1.49507332812500 
 S -1.56963217500001 -3.20815160937500 -0.178421328125001 
