16

 C -2.36824011250000 -6.52473974687499 -2.50682859375000 
 C -1.27168111250000 -7.02454774687499 -1.69944359375000 
 C -2.38539511250000 -2.85169674687499 -2.55240359375000 
 C -1.12938311250000 -3.36569974687499 -1.89378759375000 
 N -0.137152112499996 -7.21219474687499 -2.35780959375000 
 N -2.12620811250000 -6.39802874687499 -3.82334159375000 
 N -3.16740511250000 -6.81773974687499 -2.811259375000130E-002
 N -6.369711249999721E-002 -3.47732074687499 -2.64699259375000 
 N -2.21269511250000 -2.64773774687499 -3.86171759375000 
 N -2.92477111250000 -3.09199274687499 -5.792359375000133E-002
 S -0.553680112499997 -6.93404774687499 -3.95150259375000 
 S -3.79257911250000 -6.23951074687499 -1.49695059375000 
 S -1.60402711250000 -7.29834174687499 -4.497259375000118E-002
 S -0.635641112499997 -3.08832674687499 -4.15236759375000 
 S -3.75244911250000 -2.68482474687499 -1.50551359375000 
 S -1.36937611250000 -3.63821374687499 -0.188166593750001 
