16

 C -2.51446789375000 -6.31848426562500 -2.56544557500000 
 C -1.36866389375000 -6.85633726562500 -1.81133557500000 
 C -2.41558189375000 -2.53809426562500 -2.40776857500000 
 C -1.23992189375000 -2.99592026562500 -1.71934657500000 
 N -0.307414893749997 -7.11253826562500 -2.55577157500000 
 N -2.29892789375000 -6.23960526562500 -3.86343857500000 
 N -3.24608689375000 -6.58169626562500 -0.143042575000003 
 N -0.188091893749998 -3.18947926562500 -2.57258857500000 
 N -2.31468589375000 -2.36651126562500 -3.74321657500000 
 N -3.07284289375000 -2.53310326562500 3.253942499999751E-002
 S -0.701199893749997 -6.72075726562500 -4.11611557500000 
 S -3.86216389375000 -6.01222926562500 -1.55553357500000 
 S -1.60904789375000 -6.95920526562500 -9.881257500000240E-002
 S -0.739678893749997 -2.80870426562500 -4.03886157500000 
 S -3.80095589375000 -2.19226026562500 -1.41338857500000 
 S -1.49560289375000 -3.02265226562500 -7.910575000002584E-003
