16

 C -2.45655736562500 -6.69367211250000 -2.26528547187500 
 C -1.26936136562500 -7.21070111250000 -1.67870447187500 
 C -2.22795036562500 -2.44668711250000 -2.50951347187500 
 C -1.08125536562500 -2.94303211250000 -1.84058347187500 
 N -0.204343365625000 -7.34868511250000 -2.51017647187500 
 N -2.41049036562500 -6.48790911250000 -3.59925847187500 
 N -2.97459436562500 -6.84520511250000 0.280236528125002 
 N -2.337936562500076E-002 -3.18552811250000 -2.60391747187500 
 N -2.05179836562500 -2.17030011250000 -3.77904247187500 
 N -3.02192536562500 -2.74824211250000 -9.414747187499817E-002
 S -0.837947365625000 -6.88295711250000 -3.99889647187500 
 S -3.70234336562500 -6.22979111250000 -1.08257247187500 
 S -1.39836036562500 -7.21031611250000 0.131659528125002 
 S -0.517327365625000 -2.67821711250000 -4.11724247187500 
 S -3.71374836562500 -2.42722711250000 -1.55826147187500 
 S -1.39777136562500 -3.19600211250000 -0.184866471874998 
