16

 C -2.39436292812500 -6.64542562812500 -2.28419567187500 
 C -1.15377592812500 -6.97922062812500 -1.70819767187500 
 C -2.59850392812500 -3.16060262812500 -2.04828367187500 
 C -1.36319592812500 -3.48418262812500 -1.37007667187500 
 N -0.182793928125000 -7.08866562812500 -2.57720467187500 
 N -2.36602692812500 -6.48264062812500 -3.57909467187500 
 N -2.90006292812500 -6.89004162812500 0.189381328125001 
 N -0.305002928125000 -3.61132962812500 -2.13729067187500 
 N -2.50455492812500 -3.10379862812500 -3.35378167187500 
 N -3.24369592812500 -3.32844662812500 0.446397328125001 
 S -0.814004928125000 -6.65038162812500 -4.05657867187500 
 S -3.72609192812500 -6.46093662812500 -1.19846667187500 
 S -1.27651292812500 -7.18482662812500 -3.148367187499934E-002
 S -0.891058928125000 -3.23464762812500 -3.67074967187500 
 S -3.96598992812500 -3.16826462812500 -1.04513767187500 
 S -1.58245392812500 -3.58306662812500 0.355445328125001 
