16

 C -2.31117968750000 -6.44425583749999 -2.47025145937500 
 C -1.12464568750000 -6.97819783750000 -1.88160645937500 
 C -2.34772868750000 -3.07348083749999 -2.34638945937500 
 C -1.12319868750000 -3.44603183750000 -1.68845845937500 
 N -6.341168749999948E-002 -7.26390683750000 -2.65278945937500 
 N -2.13195268750000 -6.26774283749999 -3.78320445937500 
 N -2.79010368750000 -6.72194183750000 4.805954062500128E-002
 N -0.139534687499999 -3.60192683750000 -2.55254045937500 
 N -2.26345268750000 -2.83578883750000 -3.63354645937500 
 N -2.96390868750000 -3.13510183750000 0.198683540625001 
 S -0.552968687499999 -6.66843783750000 -4.12516545937500 
 S -3.59537768750000 -6.22121783749999 -1.29623845937500 
 S -1.26136568750000 -7.44198583750000 -0.207165459374999 
 S -0.696726687499999 -3.18359983749999 -4.03925645937500 
 S -3.70595368750000 -2.79196883750000 -1.26698945937500 
 S -1.39454968750000 -3.58730683750000 5.372654062500137E-002
