16

 C -2.37626315312500 -6.51373722500000 -2.46117779687500 
 C -1.17269915312500 -6.86969322500000 -1.75612079687500 
 C -2.53801315312500 -3.22365822500000 -2.32712579687500 
 C -1.28894415312500 -3.45576322500000 -1.65664279687500 
 N -6.759215312499656E-002 -7.02305922500000 -2.52610979687500 
 N -2.26050615312500 -6.42492022500000 -3.78483179687500 
 N -3.03557015312500 -6.72257022500000 2.995020312499963E-002
 N -0.233383153124996 -3.66959222500000 -2.46344179687500 
 N -2.41879715312500 -3.08214122500000 -3.62926679687500 
 N -2.98657815312500 -3.32125422500000 0.190899203124999 
 S -0.695880153124996 -6.77971922500000 -4.09450279687500 
 S -3.73839615312500 -6.34989222500000 -1.41623079687500 
 S -1.40748115312500 -6.95752722500000 3.485420312499943E-002
 S -0.859174153124997 -3.36382922500000 -4.06293979687500 
 S -3.85878415312500 -3.34303522500000 -1.20248679687500 
 S -1.30180615312500 -3.58769522500000 4.702320312499952E-002
