16

 C -2.56770490000000 -6.31951168125000 -2.23986219687500 
 C -1.37513590000000 -6.85736568125000 -1.57808319687500 
 C -2.50022990000000 -3.10694368125000 -2.32003819687500 
 C -1.23815690000000 -3.28517168125000 -1.66224219687500 
 N -0.390300900000002 -7.05417568125000 -2.43014119687500 
 N -2.52480190000000 -6.18834268125000 -3.56439319687500 
 N -3.05995990000000 -6.57977168125000 0.267703803124999 
 N -0.192178900000002 -3.41704668125000 -2.49393319687500 
 N -2.43696790000000 -2.99209468125000 -3.64190119687500 
 N -3.02492890000000 -3.17102668125000 0.170655803124999 
 S -0.926740900000001 -6.60589568125000 -3.93986019687500 
 S -3.82491590000000 -6.16896768125000 -1.09934719687500 
 S -1.51537890000000 -7.10070368125000 7.193380312499875E-002
 S -0.902561900000002 -3.21804568125000 -4.01392519687500 
 S -3.80440690000000 -2.87695368125000 -1.24824119687500 
 S -1.35481890000000 -3.36114868125000 7.670580312499875E-002
