16

 C -2.43691532812500 -6.38756323124999 -2.48761119375000 
 C -1.24486132812500 -6.88795323124999 -1.81427719375000 
 C -2.46497532812500 -2.50721223124999 -2.15998519375000 
 C -1.27986832812500 -2.97358423124999 -1.59159719375000 
 N -0.170303328125000 -7.00425623124999 -2.61003319375000 
 N -2.27713632812500 -6.22108423124999 -3.80879619375000 
 N -3.04323632812500 -6.62910523124999 5.312080625000082E-002
 N -0.300255328125000 -3.14541523124999 -2.45721819375000 
 N -2.49502332812500 -2.43336623124999 -3.49133019375000 
 N -2.93447232812500 -2.93479023124999 0.326041806250001 
 S -0.700995328125000 -6.64981423124999 -4.17772119375000 
 S -3.70224732812500 -6.05894823124999 -1.36409019375000 
 S -1.43581232812500 -7.09203223124999 -7.837219374999904E-002
 S -0.949815328125000 -2.83438123124999 -3.96757319375000 
 S -3.73680232812500 -2.33562123124999 -0.947814193749999 
 S -1.35678132812500 -3.38765123124999 0.106580806250001 
