16

 C -2.35920972187500 -6.24522318750000 -2.39129723750000 
 C -1.27460372187500 -6.91858018750000 -1.75972623750000 
 C -2.50450672187500 -2.33192418750000 -2.50852523750000 
 C -1.41941972187500 -2.94724718750000 -1.74077423750000 
 N -0.227975721874998 -7.24516218750000 -2.56746923750000 
 N -2.13922072187500 -5.92147118750000 -3.67555623750000 
 N -3.15908872187500 -6.58097218750000 1.591976249999849E-002
 N -0.409670721874998 -3.35372918750000 -2.48919423750000 
 N -2.26602272187500 -2.16975418750000 -3.77936223750000 
 N -3.13304972187500 -2.43318418750000 1.612976249999853E-002
 S -0.673994721874998 -6.52464218750000 -4.02362223750000 
 S -3.75850872187500 -5.97713418750000 -1.40892623750000 
 S -1.63356672187500 -7.22566118750000 -1.416323750000137E-002
 S -0.800846721874998 -2.82930318750000 -4.09126023750000 
 S -3.86686072187500 -2.07710018750000 -1.41320323750000 
 S -1.59457772187500 -3.09036418750000 -7.877523750000126E-002
