16

 C -2.33364409687500 -6.53649530312501 -2.41922617187500 
 C -1.06640009687500 -7.05673330312501 -1.85088817187500 
 C -2.39766509687500 -2.98486130312501 -2.40791817187500 
 C -1.19288109687500 -3.31836930312501 -1.73317417187500 
 N -4.489809687500390E-002 -7.07074730312501 -2.70758017187500 
 N -2.19524809687500 -6.08790230312501 -3.66820517187500 
 N -2.82870409687500 -6.76703330312501 0.125048828125000 
 N -0.124847096875004 -3.40680530312501 -2.50617417187500 
 N -2.28735309687500 -2.88460030312501 -3.76010317187500 
 N -2.97335309687500 -3.43254730312501 3.960382812500018E-002
 S -0.708436096875004 -6.51747830312501 -4.16445117187500 
 S -3.57048709687500 -6.27553230312501 -1.24434317187500 
 S -1.25869709687500 -7.37050230312501 -6.954117187500009E-002
 S -0.686186096875003 -3.14973030312501 -4.09599717187500 
 S -3.76884209687500 -2.82031030312501 -1.30862217187500 
 S -1.30913109687500 -3.66471830312501 -8.390217187499971E-002
