16

 C -2.47303621562499 -6.70864430625001 -2.35060525312500 
 C -1.20772921562499 -7.12617930625001 -1.73922525312500 
 C -2.68149721562499 -3.25785530625001 -2.04562425312500 
 C -1.45598621562499 -3.51978730625001 -1.35083325312500 
 N -0.137903215624993 -7.13010030625001 -2.57756325312500 
 N -2.39932721562499 -6.52850730625001 -3.66545225312500 
 N -2.91367821562499 -6.86973330625001 0.182142746875001 
 N -0.392239215624993 -3.54985130625001 -2.16781725312500 
 N -2.52448621562499 -3.03820130625001 -3.36507125312500 
 N -3.29990821562499 -3.28854230625001 0.445152746875001 
 S -0.791195215624994 -6.69368130625001 -4.02179125312500 
 S -3.67968621562499 -6.44144130625001 -1.19530325312500 
 S -1.24675321562499 -7.19804830625001 -6.703253124999531E-003
 S -0.929152215624994 -3.28972530625001 -3.67820225312500 
 S -4.06773221562499 -3.20414330625001 -1.02605325312500 
 S -1.70685921562499 -3.61274730625001 0.295240746875000 
