16

 C -2.29954402187500 -6.36927969062500 -2.61130106562500 
 C -1.05426902187500 -6.68837069062500 -1.94245306562500 
 C -2.83766402187500 -2.70125969062500 -2.36248906562500 
 C -1.58388302187500 -3.11627869062500 -1.64979906562500 
 N -8.924302187500111E-002 -6.98129469062500 -2.79449406562500 
 N -2.24674202187500 -6.33593969062500 -3.95265806562500 
 N -2.76032202187500 -6.42594069062500 -7.443006562499921E-002
 N -0.483133021875001 -3.22777269062500 -2.41136206562500 
 N -2.71066602187500 -2.70055469062500 -3.69440506562500 
 N -3.38774602187500 -2.84886669062500 0.181900934375001 
 S -0.671819021875002 -6.82657169062500 -4.34891206562500 
 S -3.60404402187500 -6.05330569062500 -1.47107706562500 
 S -1.16808102187500 -6.84084069062500 -0.238612065624999 
 S -1.12004202187500 -3.01154169062500 -3.96585806562500 
 S -4.07550702187500 -2.34024469062500 -1.26248106562500 
 S -1.79372802187500 -3.12657269062500 6.639593437500091E-002
