16

 C -2.42479798750000 -6.34991478437500 -2.50751570000000 
 C -1.15050698750000 -6.56324978437500 -1.82679670000000 
 C -2.45625098750000 -2.17882978437500 -2.76525370000000 
 C -1.52585698750000 -2.90721278437500 -2.00029770000000 
 N -8.275298749999926E-002 -6.62406278437500 -2.60699570000000 
 N -2.22294398750000 -6.37421578437500 -3.79485870000000 
 N -3.01890698750000 -6.65010478437500 -3.418569999999810E-002
 N -0.432389987499999 -3.23011078437500 -2.67814370000000 
 N -2.10655998750000 -1.90460278437500 -4.02818870000000 
 N -3.43535998750000 -2.60271178437500 -0.318850699999998 
 S -0.594074987499999 -6.65258578437500 -4.18372970000000 
 S -3.79366798750000 -6.38904478437500 -1.45322170000000 
 S -1.30683398750000 -6.76604178437500 -9.646469999999807E-002
 S -0.583197987499999 -2.51672078437500 -4.11585270000000 
 S -3.90429498750000 -1.94201278437500 -1.78616470000000 
 S -2.02651798750000 -3.44599578437500 -0.435568699999998 
