16

 C -2.53960205625001 -6.23223318437500 -2.46801100312500 
 C -1.30501605625000 -6.66771518437500 -1.92037200312500 
 C -2.40169805625000 -3.08513718437500 -2.56493000312500 
 C -1.17792905625000 -3.41377418437500 -1.83631500312500 
 N -0.310150056250005 -6.92737918437500 -2.75136900312500 
 N -2.42022405625000 -6.02945018437500 -3.76566600312500 
 N -2.94466405625001 -6.26695818437500 0.138873996875002 
 N -0.121466056250005 -3.48891218437500 -2.61751600312500 
 N -2.22381705625001 -2.91796418437500 -3.85148300312500 
 N -2.98661505625001 -2.90245718437500 -5.123500312499796E-002
 S -0.907971056250005 -6.48999218437500 -4.24389700312500 
 S -3.75987605625000 -5.92344318437500 -1.26591500312500 
 S -1.40681305625000 -6.72888918437500 -0.136553003124998 
 S -0.626342056250005 -3.29219218437500 -4.15767100312500 
 S -3.78537105625000 -2.87464118437500 -1.49015600312500 
 S -1.39267005625000 -3.28491418437500 -0.197951003124998 
