16

 C -2.39597059375000 -6.37641326875000 -2.55712084687500 
 C -1.21968459375000 -6.68437826875000 -1.84854684687500 
 C -2.41273759375000 -2.87359926875000 -2.48282884687500 
 C -1.13819659375000 -3.22736726875000 -1.89748484687500 
 N -0.129158593749996 -6.85902026875000 -2.64266084687500 
 N -2.22313459375000 -6.23103226875000 -3.86260384687500 
 N -3.13123059375000 -6.34746226875000 -6.678884687500219E-002
 N -0.110103593749996 -3.22579826875000 -2.75214584687500 
 N -2.32570359375000 -2.70189326875000 -3.80548784687500 
 N -2.93436959375000 -2.86874126875000 -5.710184687500219E-002
 S -0.645616593749996 -6.57247126875000 -4.21389284687500 
 S -3.83907359375000 -6.22563326875000 -1.55273384687500 
 S -1.49173059375000 -6.80577226875000 -0.129870846875002 
 S -0.736318593749997 -2.94887826875000 -4.27548884687500 
 S -3.74601159375000 -2.52362026875000 -1.49549184687500 
 S -1.26152359375000 -3.17981626875000 -0.173162846875002 
