16

 C -2.44498094062499 -6.53908972500000 -2.32335356250000 
 C -1.29204594062500 -7.01335572500000 -1.58946256250000 
 C -2.48306994062500 -2.79304272500000 -2.42486856250000 
 C -1.22359094062500 -3.18356472500000 -1.75123956250000 
 N -0.198383940624995 -7.17233972500000 -2.30240656250000 
 N -2.21570694062500 -6.39693172500000 -3.60777456250000 
 N -3.10274794062500 -6.60893872500000 0.177871437499999 
 N -0.199519940624995 -3.15469072500000 -2.61312556250000 
 N -2.30590094062500 -2.48145372500000 -3.69938056250000 
 N -3.12190194062500 -3.30443672500000 -1.771356250000089E-002
 S -0.619024940624995 -6.76755072500000 -3.86822056250000 
 S -3.82143394062500 -6.26495672500000 -1.28301256250000 
 S -1.56149194062499 -7.24729172500000 0.136752437499999 
 S -0.665561940624995 -2.69304672500000 -4.09757256250000 
 S -3.84810094062500 -2.73179672500000 -1.41238656250000 
 S -1.44219094062499 -3.49266972500000 -8.747756250000105E-002
