16

 C -2.35127527500000 -6.35239594687499 -2.47336735000000 
 C -1.20045727500000 -6.88060794687499 -1.72838535000000 
 C -2.59903627500000 -2.74059894687499 -2.57211235000000 
 C -1.38536927500000 -3.03679994687499 -1.89669035000000 
 N -0.130605274999998 -7.20371394687499 -2.50412535000000 
 N -2.11913227500000 -6.39816494687499 -3.79212035000000 
 N -2.98808127500000 -6.37405894687499 7.084865000000051E-002
 N -0.368217274999998 -3.11959894687499 -2.70835435000000 
 N -2.46562327500000 -2.50217794687499 -3.86565535000000 
 N -3.11950627500000 -2.89109094687499 -3.509134999999941E-002
 S -0.548185274999998 -6.92891394687499 -4.07950135000000 
 S -3.70694727500000 -6.03205994687499 -1.37830135000000 
 S -1.32845227500000 -6.79307494687499 -7.325349999999453E-003
 S -0.841702274999999 -2.77308394687499 -4.27146135000000 
 S -3.91513927500000 -2.68268694687499 -1.47534535000000 
 S -1.49830827500000 -3.06407894687499 -0.157250350000000 
