16

 C -2.38252743125000 -6.61758597812500 -2.29320759375000 
 C -1.12083743125000 -6.93049397812500 -1.66804559375000 
 C -2.60872643125000 -3.14182097812500 -2.04523059375000 
 C -1.32743343125000 -3.46359697812500 -1.35505759375000 
 N -0.171254431249999 -7.06730197812500 -2.58656459375000 
 N -2.37524643125000 -6.43837997812500 -3.59043559375000 
 N -2.87455043125000 -6.90801297812500 0.195708406249999 
 N -0.258137431249999 -3.62639897812500 -2.14118659375000 
 N -2.49042543125000 -3.10336597812500 -3.37269459375000 
 N -3.21308843125000 -3.34177997812500 0.421537406249999 
 S -0.813240431249999 -6.64564797812500 -4.07350459375000 
 S -3.75589743125000 -6.46825097812500 -1.19670159375000 
 S -1.29173343125000 -7.17699597812500 -1.873659375000081E-002
 S -0.866193431249998 -3.22202697812500 -3.68553659375000 
 S -3.93887943125000 -3.14976497812500 -1.04636159375000 
 S -1.52143643125000 -3.57778697812500 0.391658406249999 
