16

 C -2.34391930312500 -6.65774158125001 -2.48977611875000 
 C -1.13395230312500 -7.10645658125001 -1.85679311875000 
 C -2.37085430312500 -2.97900758125001 -2.48601511875000 
 C -1.23876930312500 -3.47218858125001 -1.84864011875000 
 N -0.114644303125002 -7.11457158125001 -2.67627211875000 
 N -2.22555530312500 -6.26605958125000 -3.74383511875000 
 N -2.90772330312500 -6.96324058125001 -5.515118750001990E-003
 N -0.204658303125002 -3.67304858125001 -2.61024111875000 
 N -2.20316230312500 -2.75063158125001 -3.77887411875000 
 N -3.04897130312500 -3.22145158125001 -5.384711875000203E-002
 S -0.623964303125002 -6.59189558125001 -4.15317911875000 
 S -3.66443930312500 -6.58679258125001 -1.44025811875000 
 S -1.31426130312500 -7.36456458125001 -0.185563118750002 
 S -0.664190303125002 -3.25788658125001 -4.10839111875000 
 S -3.72854430312500 -2.65068258125001 -1.48350211875000 
 S -1.48792030312500 -3.71985958125001 -0.155259118750002 
