16

 C -2.29964991250000 -6.49121914687501 -2.21139787500000 
 C -1.13460491250000 -7.03789914687501 -1.51518187500000 
 C -2.43643391250000 -2.71281814687501 -2.36924987500000 
 C -1.16318691250000 -3.15623014687501 -1.68804187500000 
 N -5.113491249999758E-002 -7.22223214687501 -2.27550887500000 
 N -2.14089791250000 -6.30671414687501 -3.50662787500000 
 N -3.05389591250000 -6.74868314687501 0.237341125000000 
 N -0.178605912499997 -3.22259014687501 -2.55573887500000 
 N -2.28982591250000 -2.40705414687501 -3.65990087500000 
 N -2.97545791250000 -3.18693314687501 0.139016125000000 
 S -0.534088912499998 -6.76470214687501 -3.84829087500000 
 S -3.70275191250000 -6.24399414687501 -1.21696387500000 
 S -1.43569891250000 -7.22967314687501 0.277127125000000 
 S -0.650303912499997 -2.67657514687501 -4.05163587500000 
 S -3.78306991250000 -2.67684814687501 -1.25993487500000 
 S -1.38176891250000 -3.68492014687501 -6.921087499999978E-002
