16

 C -2.32318196875000 -6.07544571250000 -2.00686726562500 
 C -1.11585196875000 -6.65752271250000 -1.50652826562500 
 C -2.32014796875000 -2.72811371250000 -2.32721326562500 
 C -1.14432696875000 -3.16271471250000 -1.57777726562500 
 N -0.112075968750001 -6.81917371250000 -2.36177326562500 
 N -2.19935196875000 -5.77036771250000 -3.28614126562500 
 N -2.78680896875000 -6.81622471250000 0.366814734375000 
 N -9.341796875000075E-002 -3.34950371250000 -2.37192426562500 
 N -2.15116496875000 -2.50100271250000 -3.63879926562500 
 N -3.12082196875000 -2.85759471250000 0.109338734375000 
 S -0.725858968750001 -6.28989471250000 -3.75575926562500 
 S -3.60573096875000 -6.14507671250000 -0.909633265625000 
 S -1.16259696875000 -7.28534671250000 0.117366734375000 
 S -0.608402968750001 -3.09963971250000 -3.91524426562500 
 S -3.72891596875000 -2.38531471250000 -1.36433926562500 
 S -1.54538896875000 -3.32744071250000 7.724973437499982E-002
