16

 C -2.36525823437500 -6.53069326250000 -2.48087468750000 
 C -1.14670123437500 -6.82166326250000 -1.79905568750000 
 C -2.55691623437500 -2.75751226250000 -2.42232668750000 
 C -1.43758823437500 -3.29003326250000 -1.67835968750000 
 N -9.960323437499774E-002 -6.91776726250000 -2.60578368750000 
 N -2.25349423437500 -6.17391126250000 -3.77245268750000 
 N -2.93438523437500 -6.59992826250000 1.990631249999919E-002
 N -0.399961234374998 -3.51375626250000 -2.47744668750000 
 N -2.39873423437500 -2.55140426250000 -3.70432968750000 
 N -3.38228323437500 -3.01143326250000 -5.756687500000801E-003
 S -0.643439234374998 -6.51448626250000 -4.10983368750000 
 S -3.81703823437500 -6.39223326250000 -1.36866468750000 
 S -1.30778623437500 -6.91547826250000 -9.217268750000063E-002
 S -0.783363234374997 -2.94508326250000 -3.98522568750000 
 S -3.97480423437500 -2.57668926250000 -1.46916368750000 
 S -1.75966323437500 -3.47768026250000 8.300312499999185E-003
