16

 C -2.53518864062499 -6.28202798125000 -2.28632891250000 
 C -1.27875664062499 -6.56508998125000 -1.70778391250000 
 C -2.46580564062499 -2.52023298125000 -2.91525991250000 
 C -1.26005764062499 -2.82824498125000 -2.16050891250000 
 N -0.278534640624993 -6.74646898125000 -2.53197191250000 
 N -2.39967464062499 -6.04483098125000 -3.57511191250000 
 N -3.03652264062499 -6.84055798125000 0.156448087499999 
 N -0.206702640624992 -2.84214398125000 -2.98427491250000 
 N -2.32370764062499 -2.31553498125000 -4.25306091250000 
 N -3.12468364062499 -2.80682298125000 -0.420010912500001 
 S -0.848233640624993 -6.42502598125000 -4.07657491250000 
 S -3.86399964062499 -6.45928398125000 -1.28231491250000 
 S -1.37310264062499 -6.93479998125000 3.511608749999895E-002
 S -0.732163640624992 -2.57911898125000 -4.49768991250000 
 S -3.82896864062499 -2.46717598125000 -1.88095191250000 
 S -1.53220564062499 -3.10265298125000 -0.453459912500001 
