16

 C -2.50519487187500 -6.28040390937499 -2.47863131875000 
 C -1.31113087187500 -6.64373290937499 -1.77850831875000 
 C -2.42590987187500 -2.32510890937500 -2.34513031875000 
 C -1.28876687187500 -2.94157890937499 -1.75811031875000 
 N -0.276338871875001 -6.96655790937499 -2.52139031875000 
 N -2.33482487187500 -6.21572190937500 -3.81010531875000 
 N -3.05163287187500 -6.56398990937500 3.075868124999936E-002
 N -0.300907871875000 -3.09159290937500 -2.62140731875000 
 N -2.29713287187500 -2.02153790937500 -3.64128031875000 
 N -3.04461287187500 -2.91302090937500 5.413568124999935E-002
 S -0.710967871875001 -6.61823990937499 -4.05685631875000 
 S -3.82048487187500 -5.89385790937500 -1.36628431875000 
 S -1.46628887187500 -6.88336390937499 -9.528531875000068E-002
 S -0.810809871875001 -2.63985690937499 -4.11844431875000 
 S -3.72067287187500 -2.12028890937500 -1.23763131875000 
 S -1.36910287187500 -3.21193490937500 -4.942031875000064E-002
