16

 C -2.54983066875000 -6.46956174375000 -2.29624532500000 
 C -1.38537166875000 -6.87541374375000 -1.64077732500000 
 C -2.45036466875000 -2.85831874375000 -2.16556632500000 
 C -1.21755666875000 -3.29367174375000 -1.56375332500000 
 N -0.357155668750003 -7.10940174375000 -2.48645532500000 
 N -2.47963766875000 -6.26340574375000 -3.62775032500000 
 N -3.10891566875000 -6.72036474375000 0.314242675000001 
 N -0.214540668750002 -3.47345174375000 -2.42319132500000 
 N -2.41410066875000 -2.76268674375000 -3.47854432500000 
 N -2.83442266875000 -2.91187574375000 0.323893675000001 
 S -0.918104668750003 -6.62890874375000 -3.96571732500000 
 S -3.86525566875000 -6.35081874375000 -1.15624832500000 
 S -1.55168566875000 -7.10964274375000 8.708167500000141E-002
 S -0.814765668750002 -3.15540274375000 -3.89315232500000 
 S -3.70162066875000 -2.67110574375000 -1.08991132500000 
 S -1.25242866875000 -3.40252674375000 0.132119675000001 
