16

 C -2.46032683750000 -6.31236532187500 -2.54784782187500 
 C -1.31901683750000 -6.83065132187500 -1.83484682187500 
 C -2.25400083750000 -2.90162832187500 -2.30426982187500 
 C -0.966205837499996 -3.40743332187500 -1.77726582187500 
 N -0.291538837499997 -7.04020332187500 -2.66012782187500 
 N -2.28781883750000 -6.10812032187500 -3.85849782187500 
 N -3.16404883750000 -6.49104432187500 -0.118914821875000 
 N -6.909837499995852E-003 -3.32750732187500 -2.68448382187500 
 N -2.12546983750000 -2.47956832187500 -3.55613482187500 
 N -2.56639883750000 -3.43037232187500 0.209634178125000 
 S -0.754068837499997 -6.53315532187500 -4.16313382187500 
 S -3.81209283750000 -5.86523932187500 -1.53162582187500 
 S -1.55982183750000 -7.03523832187500 -0.130190821875000 
 S -0.618873837499996 -2.88829432187500 -4.13110582187500 
 S -3.49097783750000 -2.99166832187500 -1.10006882187500 
 S -1.02131283750000 -3.96223732187500 -0.134583821875000 
