16

 C -2.43445857812499 -6.51988631875000 -2.42376957812500 
 C -1.21927857812499 -6.84606131875000 -1.72533857812500 
 C -2.52953357812499 -3.22385731875000 -2.35658157812500 
 C -1.26650957812499 -3.52458031875000 -1.71484357812500 
 N -0.235841578124991 -7.09435131875000 -2.56264857812500 
 N -2.31350757812499 -6.40641431875000 -3.72838457812500 
 N -3.05808757812499 -6.76654531875000 7.214842187499992E-002
 N -0.256112578124991 -3.61239131875000 -2.61594857812500 
 N -2.50874657812499 -2.97240031875000 -3.68196457812500 
 N -2.98868857812499 -3.31285531875000 0.170474421875000 
 S -0.680399578124991 -6.69615031875000 -4.07596657812500 
 S -3.80425857812499 -6.33251931875000 -1.34518157812500 
 S -1.39442457812499 -6.97031531875000 -1.613357812499983E-002
 S -0.913812578124991 -3.24871231875000 -4.05745357812500 
 S -3.84231557812499 -3.28326531875000 -1.24609457812500 
 S -1.37888557812499 -3.62337331875000 2.132242187500011E-002
