16

 C -2.60094033437499 -6.39676736875000 -2.52100743750000 
 C -1.30490433437499 -6.85994036875000 -2.06613943750000 
 C -2.71118133437499 -3.06206636875000 -2.34433943750000 
 C -1.53746333437499 -3.50453836875000 -1.60918743750000 
 N -0.405325334374989 -7.00006536875000 -3.03301743750000 
 N -2.73133333437499 -6.15037536875000 -3.84184543750000 
 N -2.92018433437499 -6.69008036875000 -3.396437500000404E-003
 N -0.402129334374989 -3.73230036875000 -2.33912343750000 
 N -2.49008833437499 -2.95742836875000 -3.66107643750000 
 N -3.40232533437499 -3.06427136875000 0.118626562500000 
 S -1.25042133437499 -6.51143036875000 -4.37610943750000 
 S -3.74708833437499 -6.09772036875000 -1.28392343750000 
 S -1.31672333437499 -7.16041536875000 -0.383408437500000 
 S -0.888633334374989 -3.32095136875000 -3.91402443750000 
 S -4.11439333437499 -2.70370236875000 -1.35251343750000 
 S -1.74261433437499 -3.33249036875000 0.120446562500000 
