16

 C -2.38912712500001 -6.29697752499999 -2.48773280000000 
 C -1.24603412500001 -6.63036952499999 -1.73205580000000 
 C -2.29195112500001 -2.93148952499999 -2.41375880000000 
 C -0.983176125000005 -3.20575552499999 -1.85330780000000 
 N -0.171029125000006 -6.70767652499999 -2.52145680000000 
 N -2.23430212500001 -6.22836252499999 -3.82588480000000 
 N -3.04891312500001 -6.47344852499999 6.178019999999873E-002
 N 3.097587499999399E-002 -3.27175752499999 -2.70014480000000 
 N -2.20790412500001 -2.70697652499999 -3.71910880000000 
 N -2.70985612500001 -3.24727052499999 5.555119999999869E-002
 S -0.655521125000005 -6.62979952499999 -4.12458380000000 
 S -3.78654812500001 -6.10326352499999 -1.40266480000000 
 S -1.48221812500001 -6.77053752499999 -6.377800000001210E-003
 S -0.632275125000006 -3.02343752499999 -4.18073480000000 
 S -3.53095912500001 -2.86343452499999 -1.28932980000000 
 S -1.08404812500001 -3.51482052499999 -0.148128800000001 
