16

 C -2.43675793750001 -6.66332360625000 -2.40523408437500 
 C -1.17857493750001 -6.93928060625000 -1.76983108437500 
 C -2.43130393750001 -2.83252760625000 -2.44711408437500 
 C -1.21703293750001 -3.07970160625000 -1.64286008437500 
 N -9.817393750000658E-002 -6.89744860625000 -2.52825508437500 
 N -2.29476593750001 -6.45071860625000 -3.71870408437500 
 N -2.90942193750001 -7.11744460625000 9.386991562499958E-002
 N -0.138849937500007 -3.24162860625000 -2.39800408437500 
 N -2.17382593750001 -2.74659460625000 -3.74762308437500 
 N -3.10656593750001 -2.69855960625000 5.023191562499951E-002
 S -0.646930937500007 -6.54442560625000 -4.07950408437500 
 S -3.76012893750001 -6.56317060625000 -1.26779708437500 
 S -1.25676993750001 -7.30155060625000 -6.989908437500048E-002
 S -0.528895937500007 -3.06397060625000 -3.95787808437500 
 S -3.80194693750001 -2.43451560625000 -1.51542708437500 
 S -1.52236393750001 -3.19601760625000 1.459391562499945E-002
