16

 C -2.38457085000001 -6.62657422187501 -2.25286377812500 
 C -1.11591985000001 -6.77356722187501 -1.55316577812500 
 C -2.31630685000001 -2.68954422187501 -2.51144777812500 
 C -1.07590785000001 -3.21427522187501 -1.99789877812500 
 N -0.103548850000006 -6.73868322187501 -2.43112777812500 
 N -2.32595985000001 -6.55685122187501 -3.58953077812500 
 N -3.03330985000001 -6.94117022187501 0.278328221875000 
 N -0.112387850000006 -3.41878222187500 -2.91223477812500 
 N -2.36476285000001 -2.64770622187500 -3.85508577812500 
 N -2.69902085000001 -2.89990122187501 -8.767781250003104E-004
 S -0.754825850000007 -6.62186022187501 -3.96500377812500 
 S -3.80018185000001 -6.68339022187500 -1.19862077812500 
 S -1.33733985000001 -7.05926922187501 0.169976221875000 
 S -0.805689850000006 -3.04954522187500 -4.38382677812500 
 S -3.56936785000001 -2.41714222187500 -1.33767677812500 
 S -1.17986085000001 -3.44746722187501 -0.228243778125000 
