16

 C -2.24219895625000 -6.38968283750000 -2.30097127812500 
 C -0.980788956250003 -6.85852783750000 -1.79215327812500 
 C -2.67618695625000 -2.53854983750000 -2.48059427812500 
 C -1.54828395625000 -3.14285083750000 -1.83983127812500 
 N -4.015195625000256E-002 -6.88676483750000 -2.70451627812500 
 N -2.22639595625000 -6.07148283750000 -3.58442027812500 
 N -2.52787395625000 -6.67209983750000 0.257354721875000 
 N -0.509743956250003 -3.29620783750000 -2.68157327812500 
 N -2.52988195625000 -2.29103583750000 -3.80908027812500 
 N -3.36810495625000 -2.96861683750000 -4.163727812500051E-002
 S -0.691259956250003 -6.44690583750000 -4.13046827812500 
 S -3.48323895625000 -6.26363483750000 -1.09076627812500 
 S -1.00929095625000 -7.20807383750000 -0.124438278125000 
 S -0.959379956250003 -2.82029483750000 -4.11364127812500 
 S -4.07574895625000 -2.34995683750000 -1.43952327812500 
 S -1.71339195625000 -3.36198583750000 -0.117123278125000 
