16

 C -2.72762560000000 -6.68746744375000 -2.27308071875000 
 C -1.46688360000000 -7.15048544375000 -1.73275971875000 
 C -2.27043860000000 -2.94637244375000 -2.30194471875000 
 C -1.03056260000000 -3.41656144375000 -1.63986171875000 
 N -0.527751599999996 -7.48324144375000 -2.61381571875000 
 N -2.65552760000000 -6.54008144375000 -3.58568471875000 
 N -3.15074960000000 -6.99289344375000 0.277466281250000 
 N 1.287740000000426E-002 -3.52818644375000 -2.47950171875000 
 N -2.12169460000000 -2.77927544375000 -3.60941871875000 
 N -2.86526060000000 -3.19908744375000 0.194538281250000 
 S -1.12855660000000 -7.00281544375000 -4.10505271875000 
 S -3.89839960000000 -6.45185044375000 -1.07540671875000 
 S -1.54910860000000 -7.38017344375000 3.672428125000038E-002
 S -0.583614599999996 -3.24140444375000 -4.02406471875000 
 S -3.56604560000000 -2.60384244375000 -1.16301271875000 
 S -1.26359760000000 -3.65227044375000 3.438028125000026E-002
