16

 C -2.47419644062500 -6.84145699062501 -2.26496172812500 
 C -1.16004944062500 -7.19159099062501 -1.82440572812500 
 C -2.58738144062500 -2.76579199062501 -2.36275572812500 
 C -1.43652744062500 -3.32397699062501 -1.78874572812500 
 N -0.298909440624998 -7.34838099062501 -2.80407072812500 
 N -2.59381844062500 -6.71964199062501 -3.58291772812500 
 N -2.62646444062500 -6.92746799062501 0.272946271874999 
 N -0.454629440624998 -3.54018199062501 -2.64152172812500 
 N -2.47644944062500 -2.53527099062501 -3.66321572812500 
 N -3.18007244062500 -3.28916199062501 -1.021472812500068E-002
 S -1.08363044062500 -7.00827199062501 -4.22805772812500 
 S -3.68818244062500 -6.80066699062501 -1.07233472812500 
 S -1.05063744062500 -7.34421999062500 -7.000872812500081E-002
 S -0.967008440624999 -2.98209599062501 -4.13777472812500 
 S -3.96522044062500 -2.59964399062501 -1.34771772812500 
 S -1.54138344062500 -3.53944599062501 -6.696272812500093E-002
