16

 C -2.65452138750000 -6.46504402812500 -2.30155535937500 
 C -1.40127838750000 -6.97380302812500 -1.78571635937500 
 C -2.31524138750000 -2.99651002812500 -2.43900935937500 
 C -1.15008838750000 -3.47482102812500 -1.75959835937500 
 N -0.408612387499996 -7.09638902812500 -2.66837135937500 
 N -2.61518338750000 -6.34734102812500 -3.63233735937500 
 N -2.97447538750000 -6.75316502812500 0.191934640625001 
 N -9.693638749999689E-002 -3.66673802812500 -2.56135435937500 
 N -2.19143838750000 -2.69709902812500 -3.74254935937500 
 N -2.92234438750000 -3.12157202812500 6.097864062500080E-002
 S -1.06629238750000 -6.62091402812500 -4.10601735937500 
 S -3.88690038750000 -6.22734902812500 -1.15032235937500 
 S -1.35442738750000 -7.04801302812500 -6.428035937499943E-002
 S -0.664527387499997 -3.20630702812500 -4.05259135937500 
 S -3.69792538750000 -2.77693702812500 -1.35277835937500 
 S -1.35576138750000 -3.61489602812500 2.829364062500073E-002
