16

 C -2.31223994687500 -6.15325026250000 -2.02544219062500 
 C -1.04049494687500 -6.68160026250000 -1.54352219062500 
 C -2.37504594687500 -2.67375426250000 -2.38518119062500 
 C -1.20178994687500 -3.14446726250000 -1.65338319062500 
 N -4.648194687499885E-002 -6.77480426250000 -2.41792319062500 
 N -2.26534994687500 -5.84630726250000 -3.31995519062500 
 N -2.68113994687500 -6.75094926250000 0.437270809375001 
 N -0.122195946874998 -3.32724826250000 -2.41462419062500 
 N -2.18448894687500 -2.72259326250000 -3.71896219062500 
 N -3.11115294687500 -2.75019526250000 0.119851809375001 
 S -0.766425946874999 -6.36078326250000 -3.88132919062500 
 S -3.57496494687500 -6.14069726250000 -0.864200190624999 
 S -1.16519194687500 -7.26183726250000 5.916480937500079E-002
 S -0.619252946874999 -3.10093426250000 -4.03640319062500 
 S -3.74727894687500 -2.33639426250000 -1.38254419062500 
 S -1.55069294687500 -3.41009026250000 8.550680937500088E-002
