16

 C -2.38774076562500 -6.30540667500000 -2.48504927812500 
 C -1.24512376562500 -6.62628567500000 -1.73267327812500 
 C -2.28930376562500 -2.92801267500000 -2.40965627812500 
 C -0.990307765625002 -3.20151967500000 -1.85170827812500 
 N -0.166248765625002 -6.70571967500000 -2.51867727812500 
 N -2.23448576562500 -6.23336367500000 -3.82972327812500 
 N -3.04615076562500 -6.47416667500000 6.097272187500091E-002
 N 2.563223437499751E-002 -3.27374867500000 -2.70461927812500 
 N -2.20622876562500 -2.70910167500000 -3.71986927812500 
 N -2.70390776562500 -3.24839867500000 5.545172187500080E-002
 S -0.653147765625002 -6.62847567500000 -4.12099327812500 
 S -3.79078676562500 -6.10699567500000 -1.40557527812500 
 S -1.48088576562500 -6.77511867500000 -3.698278124999232E-003
 S -0.628985765625002 -3.01879567500000 -4.17733927812500 
 S -3.53143376562500 -2.86099067500000 -1.28407727812500 
 S -1.07426776562500 -3.51776867500000 -0.143109278124999 
