16

 C -2.38790453125000 -6.50075468749999 -2.40834005625000 
 C -1.24170253125000 -6.95106868749999 -1.68726505625000 
 C -2.21130353125000 -2.49493268749999 -2.08159505625000 
 C -1.08144553125000 -3.28545768749999 -1.69641005625000 
 N -0.159122531250000 -7.11344168749999 -2.44346805625000 
 N -2.22391753125000 -6.24975568749999 -3.71323705625000 
 N -2.97801353125000 -6.61961168749999 0.227015943749997 
 N -0.154336531249999 -3.44543968749999 -2.65056105625000 
 N -2.06435553125000 -1.92641068749999 -3.26688305625000 
 N -2.84949753125000 -3.35653868749999 0.267961943749997 
 S -0.600215531250000 -6.71813068749999 -4.04670905625000 
 S -3.77175753125000 -6.25059268749999 -1.23405205625000 
 S -1.43166153125000 -6.99741868749999 5.009943749997303E-003
 S -0.632238531250000 -2.43898268749999 -3.87352605625000 
 S -3.56049553125000 -2.54408368749999 -1.05272705625000 
 S -1.25731853125000 -3.76227268749999 1.748294374999726E-002
