16

 C -2.54529430000001 -6.66582181249999 -2.37575272500000 
 C -1.35185230000001 -7.09662881249999 -1.71167272500000 
 C -2.47603130000001 -2.86492881249999 -2.37460572500000 
 C -1.30450930000001 -3.49126881249999 -1.81276172500000 
 N -0.321155300000011 -7.32643281249999 -2.51571472500000 
 N -2.46013730000001 -6.48044881249999 -3.67809772500000 
 N -3.10337930000001 -6.78559481249999 0.165313275000000 
 N -0.317645300000011 -3.67402681249999 -2.68917172500000 
 N -2.42502130000001 -2.65640881249999 -3.66370172500000 
 N -2.89115330000001 -3.33552481249999 0.166174275000000 
 S -0.902939300000011 -6.88764881249999 -4.06007572500000 
 S -3.94018030000001 -6.59586981249999 -1.28121872500000 
 S -1.54480030000001 -7.30946381249999 3.406275000000125E-003
 S -0.949992300000011 -3.15566881249999 -4.24210172500000 
 S -3.72830630000001 -2.70265381249999 -1.14160372500000 
 S -1.21371030000001 -3.60280181249999 -0.115775725000000 
