16

 C -2.32070025937500 -6.66093572187501 -2.49826516562500 
 C -1.13452825937500 -7.12055372187501 -1.82961116562500 
 C -2.37913025937500 -2.95900472187501 -2.47939216562500 
 C -1.23887925937500 -3.48731472187501 -1.82799516562500 
 N -0.114814259375000 -7.11068772187501 -2.67790016562500 
 N -2.20196025937500 -6.27312972187501 -3.75350116562500 
 N -2.94873925937500 -6.93147372187501 -2.927516562500232E-002
 N -0.179571259375000 -3.63147772187501 -2.59843316562500 
 N -2.19554725937500 -2.78505772187501 -3.78752216562500 
 N -3.05695825937500 -3.21578172187501 -7.541816562500259E-002
 S -0.608050259375000 -6.60040472187501 -4.14519716562500 
 S -3.66418325937500 -6.56264172187501 -1.44931816562500 
 S -1.33854825937500 -7.37292072187501 -0.145947165625003 
 S -0.657434259375000 -3.23813872187501 -4.15704316562500 
 S -3.73117525937500 -2.64051472187501 -1.46469516562500 
 S -1.47472725937500 -3.72871572187501 -0.144902165625002 
