16

 C -2.30912763125000 -6.58646093750000 -2.45073877812500 
 C -1.16046963125000 -7.02882793750000 -1.73273377812500 
 C -2.38232263125000 -2.95564093750000 -2.53776177812500 
 C -1.14863663125000 -3.34641893750000 -1.84263777812500 
 N -9.703863124999934E-002 -7.18683793750000 -2.50930377812500 
 N -2.11853363125000 -6.40152493750000 -3.75910577812500 
 N -3.11140963125000 -6.83307393750000 -1.675777812500012E-002
 N -0.136888631250000 -3.48733793750000 -2.69145677812500 
 N -2.22522263125000 -2.80792593750000 -3.84823977812500 
 N -3.01977463125000 -3.17529693750000 -1.672677812500023E-002
 S -0.491908631249999 -6.75865693750000 -4.07374677812500 
 S -3.75062263125000 -6.38676893750000 -1.47801777812500 
 S -1.52186363125000 -7.36279193750000 -8.984777812500000E-002
 S -0.635871631250000 -3.13484693750000 -4.18546777812500 
 S -3.66562363125000 -2.64527393750000 -1.46665377812500 
 S -1.45913263125000 -3.71471093750000 -0.164472778125000 
