16

 C -2.20524615312500 -6.44255627187501 -2.42460777500000 
 C -0.945453153124998 -6.82022027187501 -1.80000677500000 
 C -2.57776215312500 -2.94015727187501 -2.53010377500000 
 C -1.43776515312500 -3.36440727187501 -1.84243677500000 
 N 4.570684687500215E-002 -6.93598427187501 -2.66190677500000 
 N -2.10665615312500 -6.18341427187501 -3.73319477500000 
 N -2.71694515312500 -6.75934327187501 0.105909224999998 
 N -0.341180153124998 -3.58794827187501 -2.55641177500000 
 N -2.31619215312500 -2.74998427187501 -3.81434777500000 
 N -3.30281915312500 -2.87583927187501 -5.068177500000148E-002
 S -0.552018153124997 -6.51416827187501 -4.17467377500000 
 S -3.58095415312500 -6.36461227187501 -1.27509077500000 
 S -1.06811115312500 -6.95363627187501 -7.977577500000166E-002
 S -0.752490153124998 -3.12388627187501 -4.10277277500000 
 S -3.91768615312500 -2.43236427187501 -1.57666577500000 
 S -1.69841115312500 -3.31469027187501 -8.675377500000137E-002
