16

 C -2.43315883437501 -6.52153709062500 -2.55471080312500 
 C -1.18350583437501 -6.70348909062500 -1.85350580312500 
 C -2.41807683437501 -3.23860809062500 -2.13599180312500 
 C -1.06928983437501 -3.54328609062500 -1.53530880312500 
 N -0.106451834375005 -6.94765509062500 -2.63806180312500 
 N -2.30376783437501 -6.50441909062500 -3.88778780312500 
 N -2.94717683437501 -6.56079509062500 -5.923803124999960E-003
 N -6.194083437500542E-002 -3.60883109062500 -2.43361580312500 
 N -2.39106883437501 -3.06838509062500 -3.44833680312500 
 N -2.81732083437501 -3.60129509062500 0.404715196875000 
 S -0.685059834375005 -6.73067009062500 -4.19342580312500 
 S -3.74428383437501 -6.29644909062500 -1.47841280312500 
 S -1.27370083437501 -6.80404509062500 -0.118781803125000 
 S -0.848634834375006 -3.39290509062500 -3.90775480312500 
 S -3.71102783437501 -3.36001309062500 -0.978244803125000 
 S -1.18860683437501 -3.68589209062500 0.200827196875000 
