16

 C -2.38769843125000 -6.45473504375000 -2.58537283437500 
 C -1.15985043125000 -6.96057604375000 -1.96468683437500 
 C -2.38768043125000 -2.60389704375000 -2.51668383437500 
 C -1.14165243125000 -3.26838604375000 -2.08387283437500 
 N -0.219461431249998 -7.23940704375000 -2.85877283437500 
 N -2.31949543125000 -6.34333504375000 -3.91998583437500 
 N -2.87156243125000 -6.51668904375000 -5.865883437499853E-002
 N -0.108337431249998 -3.16421504375000 -2.90703183437500 
 N -2.25441043125000 -2.07986204375000 -3.73956983437500 
 N -2.63576743125000 -3.17561304375000 -3.051483437499858E-002
 S -0.777514431249998 -6.84707404375000 -4.40734683437500 
 S -3.78734643125000 -6.24845704375000 -1.49859283437500 
 S -1.33659343125000 -7.21397404375000 -0.291281834374999 
 S -0.722383431249998 -2.39993204375000 -4.27649983437500 
 S -3.57155043125000 -2.51984304375000 -1.27386183437500 
 S -1.06365843125000 -3.63714804375000 -0.385323834374999 
