16

 C -2.14767008124999 -6.37692082187500 -2.33961940000000 
 C -0.955282081249995 -6.89870582187500 -1.72020940000000 
 C -2.89735408125000 -2.59654282187500 -2.53491040000000 
 C -1.64544708125000 -2.88423082187500 -1.87527040000000 
 N 6.448691875000545E-002 -6.99140482187500 -2.57291240000000 
 N -2.06712508125000 -6.06229382187500 -3.63430140000000 
 N -2.73529708125000 -6.69667982187500 0.126525599999999 
 N -0.577540081249995 -2.91331382187500 -2.68407940000000 
 N -2.73896308125000 -2.31931782187500 -3.83433540000000 
 N -3.33990808124999 -2.82605282187500 -5.831040000000121E-002
 S -0.554595081249995 -6.49963282187500 -4.05929140000000 
 S -3.49389008124999 -6.16654682187500 -1.24942440000000 
 S -1.13336008124999 -7.11766182187500 -2.429640000000122E-002
 S -1.18120108124999 -2.53019882187500 -4.26404440000000 
 S -4.17097408124999 -2.41292082187500 -1.40680840000000 
 S -1.74652108124999 -3.23066682187500 -0.219251400000001 
