16

 C -2.34710930625001 -6.43986252187500 -2.32712864375000 
 C -1.11372030625001 -6.86797952187500 -1.77328064375000 
 C -2.55702130625001 -2.71859952187500 -2.39616264375000 
 C -1.44274130625001 -3.29204552187500 -1.71106664375000 
 N -0.142149306250008 -6.91906352187500 -2.67524564375000 
 N -2.35145830625001 -6.19421052187500 -3.64307064375000 
 N -2.71671830625001 -6.79759952187500 0.222081356250001 
 N -0.340901306250008 -3.44956752187500 -2.46451564375000 
 N -2.35642530625001 -2.56437852187500 -3.68646164375000 
 N -3.24366030625001 -2.97487652187500 1.862435625000058E-002
 S -0.792308306250008 -6.48788052187500 -4.13816464375000 
 S -3.61701030625001 -6.41110752187500 -1.09285964375000 
 S -1.08954330625001 -7.16596552187500 -9.334664374999946E-002
 S -0.842925306250009 -3.00560352187500 -4.06742864375000 
 S -3.90908830625001 -2.39793452187500 -1.43085564375000 
 S -1.62964730625001 -3.40022052187500 5.464356250000524E-003
