16

 C -2.53813383749999 -6.16991594687500 -2.48146831562500 
 C -1.41567383749999 -6.85296694687500 -1.86743231562500 
 C -2.59210383749999 -2.60877294687500 -2.42817531562500 
 C -1.51030683749999 -3.13424394687500 -1.68508031562500 
 N -0.383216837499988 -7.09351394687500 -2.64082931562500 
 N -2.33303583749999 -5.98828094687500 -3.76093631562500 
 N -3.23954483749999 -6.64733594687500 -4.707231562500080E-002
 N -0.408680837499988 -3.25922894687500 -2.49748031562500 
 N -2.47194583749999 -2.47731194687500 -3.75404531562500 
 N -3.45267383749999 -2.88344494687500 -4.817731562500072E-002
 S -0.771876837499987 -6.53415394687500 -4.15884531562500 
 S -3.84633883749999 -5.94463294687500 -1.41745831562500 
 S -1.66816283749999 -7.28331194687500 -0.230772315625001 
 S -0.841708837499987 -2.84883394687500 -3.98175931562500 
 S -3.99320883749999 -2.19739594687500 -1.49408231562500 
 S -1.86754383749999 -3.36316394687500 5.337684374999263E-003
