16

 C -2.42761885312500 -6.36629060312500 -2.56922310625000 
 C -1.30053685312500 -6.69690960312500 -1.76456510625000 
 C -2.31292585312500 -2.67573260312500 -2.39246610625000 
 C -1.18947385312500 -3.25968860312500 -1.74081610625000 
 N -0.211835853124995 -6.96761760312500 -2.44999110625000 
 N -2.19731585312500 -6.37117960312500 -3.88255710625000 
 N -3.28264585312500 -6.47051360312500 -0.121156106250000 
 N -0.178137853124995 -3.55477160312500 -2.53720210625000 
 N -2.22842685312500 -2.56177760312500 -3.70323610625000 
 N -3.04068285312499 -2.86388960312500 6.678289374999968E-002
 S -0.581038853124995 -6.79457560312500 -4.07622910625000 
 S -3.89863485312500 -6.10840160312500 -1.60599710625000 
 S -1.66643385312500 -6.76737560312500 -7.168710625000041E-002
 S -0.694661853124996 -3.06941660312500 -4.12300810625000 
 S -3.66674185312500 -2.36559960312500 -1.36187210625000 
 S -1.43204485312499 -3.43293360312500 -1.487106250000370E-003
