16

 C -2.26267260000000 -6.36210785937499 -2.46089220625000 
 C -1.14151660000000 -6.85448285937499 -1.71350520625000 
 C -2.72207760000000 -2.49395985937499 -2.50654120625000 
 C -1.47944760000000 -2.86208585937499 -1.87273920625000 
 N -3.659559999999562E-002 -6.97113685937499 -2.45673020625000 
 N -2.06512360000000 -6.14725485937499 -3.75853820625000 
 N -3.03308560000000 -6.46065485937499 -3.771120624999780E-002
 N -0.433055599999996 -2.84169585937499 -2.69941620625000 
 N -2.67618260000000 -2.31331285937499 -3.80178120625000 
 N -3.29187660000000 -2.89672385937499 2.267879375000192E-002
 S -0.479262599999996 -6.62320885937499 -4.01570120625000 
 S -3.71101160000000 -6.17722685937499 -1.50410520625000 
 S -1.45602160000000 -7.07414385937499 -5.120520624999791E-002
 S -1.03409560000000 -2.54288385937499 -4.15446120625000 
 S -4.08244060000000 -2.45671485937499 -1.40062920625000 
 S -1.65738060000000 -2.93431385937499 -7.853920624999811E-002
