16

 C -2.30833367187500 -6.15187025625001 -2.02294288437500 
 C -1.04073567187500 -6.68321525625001 -1.53212888437500 
 C -2.37419767187500 -2.67370025625001 -2.38067888437500 
 C -1.20224567187500 -3.14608725625001 -1.65723788437500 
 N -5.179367187499828E-002 -6.77250325625001 -2.41005888437500 
 N -2.25939367187500 -5.83581525625001 -3.32234788437500 
 N -2.67803767187500 -6.75711625625001 0.435314115625002 
 N -0.111208671874999 -3.32472125625001 -2.41038988437500 
 N -2.17709967187500 -2.71399625625001 -3.71385988437500 
 N -3.11449167187500 -2.75471725625001 0.125144115625002 
 S -0.767077671874999 -6.35924525625001 -3.87057788437500 
 S -3.58021067187500 -6.14001925625001 -0.867478884374998 
 S -1.16490867187500 -7.26276925625001 5.632211562500178E-002
 S -0.620772671874999 -3.10260825625001 -4.03290788437500 
 S -3.74595267187500 -2.33821825625001 -1.38341688437500 
 S -1.55132467187500 -3.40721825625001 8.934511562500180E-002
