16

 C -2.31911568750000 -6.61855687500000 -2.50199466250000 
 C -1.12013768750000 -7.10415287500000 -1.84104766250000 
 C -2.36854268750000 -2.93904587500000 -2.54050366250000 
 C -1.17037168750000 -3.45409687500000 -1.85272966250000 
 N -3.239268749999891E-002 -7.15776787500000 -2.61231466250000 
 N -2.13654768750000 -6.32843487500000 -3.79888166250000 
 N -3.00684668750000 -6.88098787500000 -1.963766249999899E-002
 N -0.101410687499999 -3.56592487500000 -2.60374466250000 
 N -2.23508368750000 -2.83180487500000 -3.85703166250000 
 N -3.06390568750000 -3.21114287500000 -3.907766249999933E-002
 S -0.573707687499999 -6.63338687500000 -4.12946166250000 
 S -3.71966768750000 -6.48321687500000 -1.47816966250000 
 S -1.41483968750000 -7.39222587500000 -4.131466249999893E-002
 S -0.641013687499998 -3.18446687500000 -4.22507266250000 
 S -3.74194368750000 -2.61466287500000 -1.43713566250000 
 S -1.46006668750000 -3.74839987500000 -9.770566249999901E-002
