16

 C -2.30940775312500 -6.38579183437500 -2.22971945625000 
 C -1.13458075312500 -6.88426583437500 -1.62019945625000 
 C -2.42466175312500 -2.61257083437500 -2.41859445625000 
 C -1.15808675312500 -3.11971483437500 -1.83842445625000 
 N -0.147511753125001 -6.90216383437500 -2.48378445625000 
 N -2.25821875312500 -6.21025783437500 -3.55297545625000 
 N -2.84519075312500 -6.68150683437500 0.305659543750001 
 N -0.159830753125001 -3.25210683437500 -2.71122945625000 
 N -2.26132075312500 -2.41704283437500 -3.70935545625000 
 N -3.03917375312500 -3.10485583437500 3.299954375000125E-002
 S -0.707426753125001 -6.51769483437500 -4.05103145625000 
 S -3.67865175312500 -6.30188083437500 -1.16102245625000 
 S -1.35249775312500 -7.27281283437500 5.066354375000115E-002
 S -0.730074753125001 -2.73195583437500 -4.15551445625000 
 S -3.77485975312500 -2.48202583437500 -1.36197145625000 
 S -1.34087475312500 -3.50058883437500 -8.726445624999890E-002
