16

 C -2.26112247187499 -6.41066903437500 -2.23598365000000 
 C -1.07823747187499 -6.98680903437500 -1.72592565000000 
 C -2.29340447187499 -2.52628403437500 -2.46395165000000 
 C -1.11884147187499 -3.18170603437500 -1.89113465000000 
 N -0.104366471874994 -7.31529703437500 -2.59450965000000 
 N -2.23948947187499 -6.29025003437500 -3.55214665000000 
 N -2.72884747187499 -6.74113903437500 0.316594349999998 
 N -0.116689471874993 -3.37238603437500 -2.76071365000000 
 N -2.17910047187499 -2.29878003437500 -3.77487665000000 
 N -2.85981447187499 -3.13720903437500 -1.104865000000244E-002
 S -0.701844471874994 -6.88020503437500 -4.08472065000000 
 S -3.52145947187499 -6.09850503437500 -1.01303765000000 
 S -1.10047247187499 -7.28484403437500 4.852349999997507E-003
 S -0.687597471874994 -2.76489303437500 -4.22773365000000 
 S -3.64627247187499 -2.39374003437500 -1.26396065000000 
 S -1.21802247187499 -3.59502403437500 -0.210440650000002 
