16

 C -2.38145879062500 -6.58869130312500 -2.50976478125000 
 C -1.12163879062500 -7.05128230312500 -1.92305878125000 
 C -2.38663379062500 -2.91314930312500 -2.50458378125000 
 C -1.26432079062500 -3.51597030312500 -1.81456278125000 
 N -7.992779062499800E-002 -7.12335030312500 -2.75263378125000 
 N -2.26195579062500 -6.28478830312500 -3.80640678125000 
 N -2.84419179062500 -7.07559630312500 1.571721875000121E-002
 N -0.219778790624998 -3.83744030312500 -2.54086778125000 
 N -2.19650579062500 -2.68830830312500 -3.81826778125000 
 N -3.11225579062500 -3.17963330312500 -4.205878124999862E-002
 S -0.694763790624997 -6.57876130312500 -4.19589378125000 
 S -3.73822279062500 -6.66113930312500 -1.33398678125000 
 S -1.19814279062500 -7.35684430312500 -0.240814781249999 
 S -0.673524790624998 -3.28030330312500 -4.09446278125000 
 S -3.75847479062500 -2.69261430312500 -1.48478978125000 
 S -1.50615679062500 -3.70808530312500 -0.114145781249999 
