16

 C -2.27257770000000 -6.73465472187500 -2.39407748750000 
 C -1.09386770000000 -7.17591172187500 -1.66301648750000 
 C -2.95959670000000 -3.06068672187500 -2.35225648750000 
 C -1.76740070000000 -3.56531272187500 -1.72281848750000 
 N -7.859969999999983E-002 -7.46104372187500 -2.44598348750000 
 N -2.14420370000000 -6.68469872187500 -3.72077448750000 
 N -2.98187070000000 -6.87704072187500 0.102622512500001 
 N -0.734639700000000 -3.90582872187500 -2.49955248750000 
 N -2.84572270000000 -2.94566172187500 -3.66703248750000 
 N -3.48487370000000 -3.32738772187500 0.165195512500001 
 S -0.569155700000000 -7.18479172187500 -4.00697248750000 
 S -3.70637870000000 -6.53641672187500 -1.36411548750000 
 S -1.37608670000000 -7.28068772187500 2.461051250000090E-002
 S -1.26807570000000 -3.41916172187500 -4.05004448750000 
 S -4.22795370000000 -2.77932272187500 -1.20741148750000 
 S -1.87297870000000 -3.75163072187500 3.473351250000101E-002
