16

 C -2.47393178750000 -6.23911767187500 -2.47435652500000 
 C -1.27483078750000 -6.67989167187500 -1.77693052500000 
 C -2.41493478750000 -2.25981567187500 -2.37653952500000 
 C -1.19704778750000 -2.87954667187500 -1.83054652500000 
 N -0.206512787499999 -6.94423067187500 -2.48555552500000 
 N -2.30475978750000 -6.17973767187500 -3.77340152500000 
 N -3.09849778750000 -6.48378667187500 -8.530524999998290E-003
 N -0.208836787499999 -3.17463867187500 -2.70167352500000 
 N -2.30033578750000 -1.97522167187500 -3.67877652500000 
 N -2.98621378750000 -2.90490367187500 9.203547500000187E-002
 S -0.701732787499999 -6.70463367187500 -4.02634552500000 
 S -3.80264278750000 -5.90675367187500 -1.37250752500000 
 S -1.48158078750000 -6.87054567187500 -9.711052499999817E-002
 S -0.829714787499999 -2.56010067187500 -4.12739052500000 
 S -3.77170278750000 -2.20017867187500 -1.22660852500000 
 S -1.38813578750000 -3.22047467187500 -0.104902524999998 
