16

 C -2.43309590312500 -6.42462383437500 -2.32751917187500 
 C -1.14934390312500 -6.72292183437500 -1.69828017187500 
 C -2.33051690312500 -2.98177583437500 -2.11078417187500 
 C -1.05206990312500 -3.31017183437500 -1.49555217187500 
 N -0.107757903124997 -6.94544783437500 -2.51534817187500 
 N -2.35096190312500 -6.26816783437500 -3.66956517187500 
 N -2.99365790312500 -6.87407083437500 7.633182812499761E-002
 N -2.395190312499729E-002 -3.49086483437500 -2.35037617187500 
 N -2.23547190312500 -2.87138183437500 -3.44242417187500 
 N -2.75586490312500 -3.31034283437500 0.413076828124998 
 S -0.735798903124997 -6.56937283437500 -3.98940217187500 
 S -3.80743290312500 -6.52056283437500 -1.28498717187500 
 S -1.31283690312500 -6.94800983437500 -2.943317187500227E-002
 S -0.665513903124997 -3.15915583437500 -3.84541617187500 
 S -3.61513390312500 -2.97260583437500 -0.967898171875002 
 S -1.16919890312500 -3.56253583437500 0.211564828124998 
