16

 C -2.39306248750000 -6.49701831562500 -2.43355827187500 
 C -1.12954948750000 -6.82845031562500 -1.82666827187500 
 C -2.43366248750000 -3.17388731562500 -2.18474927187500 
 C -1.06567848750000 -3.33801131562500 -1.68306127187500 
 N -4.903448750000283E-002 -6.93346331562500 -2.59503527187500 
 N -2.26490048750000 -6.29734631562500 -3.72586227187500 
 N -2.93394248750000 -6.61907531562500 0.154213728124999 
 N -0.147459487500003 -3.36544131562500 -2.65549427187500 
 N -2.59030848750000 -3.11914531562500 -3.52154727187500 
 N -2.58622648750000 -3.36797431562500 0.436038728124999 
 S -0.655844487500003 -6.60585031562500 -4.14430527187500 
 S -3.72812648750000 -6.29348831562500 -1.24045427187500 
 S -1.29264948750000 -7.00427731562500 -7.339327187500078E-002
 S -1.03803548750000 -3.15809031562500 -4.06544827187500 
 S -3.59362348750000 -3.25428731562500 -0.870658271875001 
 S -0.943589487500003 -3.47768931562500 9.545272812499928E-002
