16

 C -2.28536174374999 -6.25262900000000 -2.37135821562500 
 C -1.05883574374999 -6.82319800000000 -1.75990421562500 
 C -2.56554274374999 -2.51728700000000 -2.51708921562500 
 C -1.48837574374999 -3.15796000000000 -1.82830721562500 
 N -0.134944743749988 -6.94282500000000 -2.70151321562500 
 N -2.31399374374999 -6.03905200000000 -3.66701721562500 
 N -2.88092274374999 -6.78707100000000 8.520178437500303E-002
 N -0.521131743749988 -3.58540500000000 -2.65006221562500 
 N -2.35446674374999 -2.33877400000000 -3.83522521562500 
 N -3.19849274374999 -2.53972800000000 -1.402121562499703E-002
 S -0.786099743749988 -6.46372500000000 -4.14910921562500 
 S -3.59663774374999 -5.95192100000000 -1.23522721562500 
 S -1.25206274374999 -7.07006500000000 -4.673721562499700E-002
 S -0.904122743749988 -3.10612600000000 -4.18398421562500 
 S -3.88652374374999 -2.11829600000000 -1.45021521562500 
 S -1.64209774374999 -3.12851200000000 -7.442721562499699E-002
