16

 C -2.41814849062500 -6.26486745937500 -2.32180834375000 
 C -1.28850749062500 -6.86251245937500 -1.67753034375000 
 C -2.39557049062500 -2.31829745937500 -2.47918634375000 
 C -1.21023549062500 -2.84301045937500 -1.85210934375000 
 N -0.242694490624997 -7.12055145937500 -2.41836734375000 
 N -2.24690749062500 -6.16021245937500 -3.61152234375000 
 N -3.13504149062500 -6.61887045937500 0.108790656249999 
 N -0.240378490624996 -3.13087045937500 -2.71839834375000 
 N -2.27311049062500 -2.14547545937500 -3.83146034375000 
 N -2.93915449062500 -2.40294445937500 -4.995343750000547E-003
 S -0.654672490624996 -6.56762045937500 -3.98143034375000 
 S -3.76144849062500 -5.95076345937500 -1.27459534375000 
 S -1.60486949062500 -7.22546745937500 9.238656249999089E-003
 S -0.730046490624996 -2.73655645937500 -4.18726034375000 
 S -3.65818849062500 -1.84541345937500 -1.41287234375000 
 S -1.41612449062500 -3.00059945937500 -0.133420343750001 
