16

 C -2.37078117187500 -6.32849363125000 -2.55063756562500 
 C -1.07787717187500 -6.55353963125000 -1.94326156562500 
 C -2.80183817187500 -2.78436363125000 -2.36526556562500 
 C -1.60686617187500 -3.30863763125000 -1.71347656562500 
 N -0.135260171874998 -6.84562963125000 -2.81547356562500 
 N -2.39186917187500 -6.35864363125000 -3.87566856562500 
 N -2.77089717187500 -6.35258463125000 -2.184256562500142E-002
 N -0.530903171874998 -3.47706563125000 -2.51478056562500 
 N -2.71214617187500 -2.57510363125000 -3.69388456562500 
 N -3.27850617187500 -2.84193763125000 0.202035434374999 
 S -0.798951171874998 -6.72097063125000 -4.34254556562500 
 S -3.60517017187500 -6.08332163125000 -1.42899156562500 
 S -1.16851617187500 -6.70352963125000 -0.191842565625001 
 S -1.15345917187500 -3.08975963125000 -4.04908856562500 
 S -4.09013417187500 -2.54458963125000 -1.22232056562500 
 S -1.69942717187500 -3.23536063125000 3.995543437499860E-002
