16

 C -2.46225844062500 -6.56653109687501 -2.42372051562500 
 C -1.20794044062500 -6.82623909687501 -1.70953151562500 
 C -2.21637444062500 -2.91897609687501 -2.18562451562500 
 C -0.923964440624996 -3.33101109687501 -1.60082051562500 
 N -0.131049440624996 -6.81253609687501 -2.51180851562500 
 N -2.26059844062500 -6.32091909687501 -3.72922151562500 
 N -3.03316544062500 -6.67605809687501 0.140744484375002 
 N 5.580055937500461E-002 -3.38997709687501 -2.49467151562500 
 N -2.23357444062500 -2.73552409687501 -3.50625851562500 
 N -2.66936044062500 -3.23906009687501 0.330053484375002 
 S -0.622606440624996 -6.50206109687501 -4.08233451562500 
 S -3.81232844062500 -6.42558309687501 -1.35812751562500 
 S -1.38585844062500 -6.86978209687501 5.335748437500198E-002
 S -0.684234440624996 -3.04392209687501 -4.01700951562500 
 S -3.51955044062500 -2.88277909687501 -1.06761651562500 
 S -0.987345440624996 -3.57751809687501 0.158804484375002 
