16

 C -2.51217772500000 -6.52397820625000 -2.42185667187500 
 C -1.24567772500000 -6.93038820625000 -1.94897567187500 
 C -2.63495272500000 -2.73526020625000 -2.50537167187500 
 C -1.48283172500000 -3.22905820625000 -1.69707967187500 
 N -0.284464724999997 -6.90968320625000 -2.88742567187500 
 N -2.50885872500000 -6.35812320625000 -3.74373167187500 
 N -2.76069572500000 -6.86356620625000 7.068332812500122E-002
 N -0.506098724999998 -3.61797120625000 -2.49803067187500 
 N -2.41555672500000 -2.70749320625000 -3.80587667187500 
 N -3.30088472500000 -2.66799120625000 -4.839367187499866E-002
 S -1.00510072500000 -6.55919420625000 -4.33443567187500 
 S -3.75205972500000 -6.46070120625000 -1.24187367187500 
 S -1.22148472500000 -7.49579820625000 -0.248370671874999 
 S -0.883126724999997 -3.33052820625000 -4.07187667187500 
 S -3.89262072500000 -2.05291820625000 -1.51617267187500 
 S -1.76223072500000 -3.23107620625000 -3.160967187499875E-002
