16

 C -2.52030441562501 -6.65386947187500 -2.26534648750000 
 C -1.34414141562501 -7.08702447187500 -1.66616248750000 
 C -2.34647541562501 -2.48121247187500 -2.54451248750000 
 C -1.21827141562501 -2.99886447187500 -1.83793148750000 
 N -0.290855415625008 -7.35837847187500 -2.43147948750000 
 N -2.33829641562501 -6.53727347187500 -3.57875148750000 
 N -3.02303541562501 -6.69625147187500 0.249168512499999 
 N -0.160445415625007 -3.10960347187500 -2.61085548750000 
 N -2.16038541562501 -2.25352247187500 -3.82691448750000 
 N -2.95744241562501 -2.68335347187500 -3.379348750000122E-002
 S -0.799322415625008 -7.10408047187500 -3.98171748750000 
 S -3.73248141562501 -6.23138547187500 -1.15782148750000 
 S -1.38805541562501 -7.25918647187500 4.952851249999868E-002
 S -0.527734415625008 -2.56815347187500 -4.14299148750000 
 S -3.74806941562501 -2.38347247187500 -1.49273048750000 
 S -1.43611641562501 -3.32445647187500 -0.113016487500001 
