16

 C -2.37815145937501 -6.54209085937500 -2.12060025625000 
 C -1.14827345937501 -6.97983185937500 -1.60386125625000 
 C -2.24825245937501 -2.74698185937500 -2.66216625625000 
 C -1.09657245937501 -3.12098385937500 -1.92965425625000 
 N -0.133151459375006 -6.98412185937500 -2.44471925625000 
 N -2.25008045937501 -6.05406185937500 -3.33977525625000 
 N -2.88646245937501 -7.08955485937500 0.282941743750000 
 N -1.698445937500637E-002 -3.31981385937500 -2.69778225625000 
 N -2.10384545937501 -2.72840685937500 -3.98824125625000 
 N -2.85262545937501 -2.52352285937500 -0.134357256250000 
 S -0.747476459375006 -6.30620785937500 -3.84082125625000 
 S -3.64535945937501 -6.35643585937500 -1.06555225625000 
 S -1.27892545937501 -7.40159085937500 0.107555743750000 
 S -0.484779459375006 -3.05797085937500 -4.29248525625000 
 S -3.57691745937501 -2.33640485937500 -1.63686825625000 
 S -1.32570645937501 -3.23948185937500 -0.170127256250000 
