16

 C -2.33571396250000 -6.07204377187500 -2.22540563437500 
 C -1.14136296250000 -6.65262277187500 -1.61770463437500 
 C -2.62877796250000 -2.49660177187500 -2.57724463437500 
 C -1.38991796250000 -2.83199977187500 -1.95176263437500 
 N -0.185899962500003 -6.93782077187500 -2.49096963437500 
 N -2.27329296250000 -5.81439177187500 -3.54493963437500 
 N -2.76050896250000 -6.21909777187500 0.373718365624998 
 N -0.338592962500003 -3.07592777187500 -2.76893663437500 
 N -2.55206396250000 -2.40188177187500 -3.92008363437500 
 N -3.17700596250000 -2.40297977187500 -1.880663437500218E-002
 S -0.770281962500004 -6.43944377187500 -3.98496263437500 
 S -3.61380096250000 -5.84888577187500 -0.975524634375002 
 S -1.19687096250000 -6.88036977187500 0.104499365624998 
 S -0.995673962500003 -2.79713977187500 -4.33559363437500 
 S -3.95674096250000 -2.03160877187500 -1.44960263437500 
 S -1.53970296250000 -2.92479877187500 -0.154659634375002 
