16

 C -2.23534979062500 -6.65489125937500 -2.56904395000000 
 C -1.01369779062500 -7.00890925937500 -1.92469795000000 
 C -2.50457279062500 -2.54718025937500 -2.51478195000000 
 C -1.31078879062500 -3.11131325937500 -1.99078995000000 
 N -0.110089790625003 -7.44981125937500 -2.80057595000000 
 N -2.26090079062500 -6.79391425937500 -3.88808095000000 
 N -2.64696279062500 -6.45054225937500 -4.976594999999850E-002
 N -0.356888790625003 -3.39403925937500 -2.89321795000000 
 N -2.57171779062500 -2.53005025937500 -3.83290695000000 
 N -2.94262979062500 -2.85223325937500 5.706305000000134E-002
 S -0.791690790625004 -7.36098625937500 -4.30557395000000 
 S -3.57215179062500 -6.27267225937500 -1.46895695000000 
 S -1.10478779062500 -6.92312125937500 -0.227792949999999 
 S -0.980119790625004 -2.95837125937500 -4.35853095000000 
 S -3.69521879062500 -2.21518725937500 -1.29885395000000 
 S -1.45608479062500 -3.43216225937500 -0.263401949999999 
