16

 C -2.37735184999999 -6.74482964687500 -2.33982577187500 
 C -1.14746684999999 -7.13072864687500 -1.71981377187500 
 C -2.86798784999999 -3.15730864687500 -2.17265277187500 
 C -1.64813284999999 -3.51722264687500 -1.44887077187500 
 N -0.150476849999994 -7.27871264687500 -2.55608377187500 
 N -2.28426984999999 -6.61953464687500 -3.66645477187500 
 N -2.96193084999999 -6.90872264687500 0.171390228125000 
 N -0.616308849999994 -3.66438064687500 -2.26076377187500 
 N -2.68624984999999 -3.10662164687500 -3.47438377187500 
 N -3.44203684999999 -3.27218864687500 0.363961228125000 
 S -0.707476849999994 -6.89803264687500 -4.08353477187500 
 S -3.70403584999999 -6.45466464687500 -1.20942277187500 
 S -1.27476884999999 -7.19746364687500 1.370122812500019E-002
 S -1.07608184999999 -3.32048364687500 -3.77376077187500 
 S -4.25794484999999 -3.18781964687500 -1.14092777187500 
 S -1.81373084999999 -3.73140264687500 0.284279228125000 
