16

 C -2.56869071875000 -6.25588124687500 -2.39430223437500 
 C -1.43728271875000 -6.98884024687500 -1.91111623437500 
 C -2.46705971875000 -2.62449724687500 -2.19568523437500 
 C -1.35782171875000 -3.38726624687500 -1.60229723437500 
 N -0.458262718749999 -7.23454624687500 -2.78967623437500 
 N -2.50652071875000 -5.98493724687500 -3.68994023437500 
 N -3.02364371875000 -6.58573424687500 6.501276562499791E-002
 N -0.430040718749999 -3.69509524687500 -2.47347323437500 
 N -2.27905771875000 -2.36674024687500 -3.47521023437500 
 N -2.95406571875000 -2.86565624687500 0.244837765624998 
 S -1.02813471875000 -6.55692324687500 -4.21226723437500 
 S -3.86452471875000 -5.99844224687500 -1.28596823437500 
 S -1.54752171875000 -7.31014824687500 -0.218195234375002 
 S -0.850631718749999 -3.11745724687500 -3.98972423437500 
 S -3.79487671875000 -2.43347624687500 -1.12378423437500 
 S -1.54593871875000 -3.68051724687500 4.422276562499783E-002
