16

 C -2.48773075937500 -6.34317766562500 -2.39098730000000 
 C -1.22724275937500 -6.79904466562500 -1.81537930000000 
 C -2.48430275937500 -2.48006166562500 -2.31716830000000 
 C -1.31836775937500 -3.03384266562500 -1.71936830000000 
 N -0.203012759374998 -6.94618266562500 -2.69623930000000 
 N -2.32989575937500 -5.98901566562500 -3.68303330000000 
 N -2.96347275937500 -6.35052966562500 8.550869999999988E-002
 N -0.330182759374998 -3.25992266562500 -2.55910530000000 
 N -2.38735475937500 -2.42393266562500 -3.63510230000000 
 N -3.11810375937500 -2.64441066562500 0.149727700000000 
 S -0.841907759374998 -6.45380966562500 -4.16353130000000 
 S -3.75708275937500 -6.06572566562500 -1.35504830000000 
 S -1.47067075937500 -7.01752666562500 -7.078629999999997E-002
 S -0.814925759374998 -2.79057966562500 -4.08882930000000 
 S -3.72147375937500 -1.95154766562500 -1.22694330000000 
 S -1.55231375937500 -3.24142566562500 -3.581730000000016E-002
