16

 C -2.61326982812500 -6.66599486562500 -2.42373895625000 
 C -1.42537682812500 -7.21784786562500 -1.77246895625000 
 C -2.51855182812500 -2.55706886562500 -2.40536895625000 
 C -1.40058082812500 -3.22722986562500 -1.77606695625000 
 N -0.360942828125000 -7.58851486562500 -2.50395395625000 
 N -2.37808982812500 -6.50072386562500 -3.73476095625000 
 N -3.06816582812500 -6.60984786562500 0.180986043750000 
 N -0.404872828125000 -3.52386586562500 -2.58830695625000 
 N -2.33023382812500 -2.33516086562500 -3.69089495625000 
 N -3.19694182812500 -2.84950886562500 6.268104375000028E-002
 S -0.820440828125000 -7.03566986562500 -3.98711795625000 
 S -3.80923682812500 -6.10679786562500 -1.31291795625000 
 S -1.53103982812500 -7.22046286562500 -2.918195624999975E-002
 S -0.910442828125000 -3.03280586562500 -4.09189395625000 
 S -3.89986782812500 -2.33616186562500 -1.35009295625000 
 S -1.61164982812500 -3.32540386562500 -0.102251956250000 
