16

 C -2.42193830937500 -6.38110048125000 -2.51336616250000 
 C -1.13414930937500 -6.59097748125000 -1.82500016250000 
 C -2.44654630937500 -2.13679748125000 -2.73923016250000 
 C -1.51323330937500 -2.89125248125000 -1.98227016250000 
 N -7.236030937499915E-002 -6.60113048125000 -2.60611516250000 
 N -2.24097830937500 -6.39426848125000 -3.82807116250000 
 N -2.99104930937500 -6.64202648125000 -1.329516250000151E-002
 N -0.421728309374999 -3.24312548125000 -2.68953016250000 
 N -2.10306330937500 -1.89514848125000 -4.03352516250000 
 N -3.43433030937500 -2.60985648125000 -0.337221162500001 
 S -0.612405309374999 -6.63369448125000 -4.16414916250000 
 S -3.80704430937500 -6.38357248125000 -1.44662116250000 
 S -1.32679830937500 -6.76767648125000 -9.805316250000140E-002
 S -0.574067309374999 -2.50914548125000 -4.14308216250000 
 S -3.92951530937500 -1.91391748125000 -1.79392416250000 
 S -2.02026030937500 -3.44468148125000 -0.441097162500002 
