16

 C -2.15045412500000 -6.09857946875000 -2.60423273125000 
 C -1.02858912500000 -6.54538046875000 -1.83625973125000 
 C -2.36817312500000 -2.74702846875000 -2.53014973125000 
 C -1.08555512500000 -3.14177646875000 -1.85084973125000 
 N 5.520487499999760E-002 -6.89634146875000 -2.56630673125000 
 N -1.89792012500000 -5.96527546875000 -3.89959073125000 
 N -2.98885412500000 -6.32762146875000 -0.201951731249999 
 N -8.587212500000163E-002 -3.33541946875000 -2.72905873125000 
 N -2.30804912500000 -2.71209646875000 -3.87625373125000 
 N -2.97280312500000 -2.90369946875000 3.272526875000104E-002
 S -0.385886125000002 -6.61701246875000 -4.14468273125000 
 S -3.62847312500000 -5.85807246875000 -1.66103973125000 
 S -1.40143112500000 -6.84977446875000 -0.139874731249999 
 S -0.741233125000002 -3.04572446875000 -4.21907473125000 
 S -3.75876012500000 -2.77831746875000 -1.43746973125000 
 S -1.30950212500000 -3.30604246875000 -0.125329731249999 
