16

 C -2.21754856250000 -6.39427525312500 -2.39079051562500 
 C -0.960228562500000 -6.76125325312500 -1.78216451562500 
 C -2.52098956250000 -2.64122025312500 -2.38193651562500 
 C -1.32837656250000 -2.96730325312500 -1.68209251562500 
 N 7.528843750000025E-002 -6.75150125312500 -2.60496951562500 
 N -2.14568556250000 -6.27144625312500 -3.72173651562500 
 N -2.66639056250000 -6.84050925312500 9.822048437499920E-002
 N -0.328213562500000 -3.22066125312500 -2.52927551562500 
 N -2.44054956250000 -2.59018225312500 -3.71958451562500 
 N -3.17065556250000 -3.00169525312500 0.125218484374999 
 S -0.561857562500000 -6.51395325312500 -4.12924451562500 
 S -3.49224356250000 -6.32323525312500 -1.24092251562500 
 S -1.01401056250000 -7.05991325312500 -5.881651562500090E-002
 S -0.872586562500000 -2.95406525312500 -4.06931151562500 
 S -3.89760356250000 -2.52997025312500 -1.29554751562500 
 S -1.52278656250000 -3.35190125312500 1.569748437499929E-002
