16

 C -2.50743589062500 -6.51243609062500 -2.52065584687500 
 C -1.37630989062500 -6.85093509062500 -1.69348084687500 
 C -2.48387489062500 -2.83182609062500 -2.38396084687500 
 C -1.24142489062500 -3.22909309062500 -1.72469784687500 
 N -0.300257890624998 -7.06754609062500 -2.44036484687500 
 N -2.34365389062500 -6.44178609062500 -3.84050584687500 
 N -3.26243589062500 -6.19684809062500 -9.218884687499984E-002
 N -0.130723890624997 -3.29378109062500 -2.46573284687500 
 N -2.31504489062500 -2.87290909062500 -3.69536184687500 
 N -3.01129489062500 -2.96342809062500 0.103660153125000 
 S -0.728044890624997 -6.87066609062500 -4.07120484687500 
 S -3.87544789062500 -5.94728909062500 -1.62186284687500 
 S -1.68915489062500 -6.69592009062500 -5.418784687499989E-002
 S -0.657356890624998 -3.17763409062500 -4.02376584687500 
 S -3.80209289062500 -2.55113909062500 -1.26751884687500 
 S -1.42049789062500 -3.51582409062500 -3.198784687499989E-002
