16

 C -2.58175169374999 -6.33232949375000 -2.26090470000000 
 C -1.41523769374999 -7.00474649375000 -1.73277870000000 
 C -2.32390669374999 -2.52696949375000 -2.47471470000000 
 C -1.16909969374999 -3.18717049375000 -1.86623070000000 
 N -0.431118693749994 -7.14751349375000 -2.65347170000000 
 N -2.52675669374999 -5.95123349375000 -3.55890070000000 
 N -3.13146869374999 -6.68702249375000 0.233876300000000 
 N -0.140228693749994 -3.38228149375000 -2.65405970000000 
 N -2.13612769374999 -2.27928749375000 -3.75852170000000 
 N -2.90209069374999 -2.91532849375000 2.951630000000005E-002
 S -1.07074369374999 -6.52191949375000 -4.05866770000000 
 S -3.89791169374999 -6.11413549375000 -1.11630270000000 
 S -1.54248669374999 -7.24780149375000 -1.673070000000010E-002
 S -0.642663693749994 -2.75753449375000 -4.20882070000000 
 S -3.68972769374999 -2.30609549375000 -1.35049870000000 
 S -1.27516169374999 -3.31509849375000 -0.156064700000000 
