16

 C -2.60440861875001 -6.62608099687499 -2.35587427812500 
 C -1.33975561875001 -7.06181099687499 -1.72259927812500 
 C -2.40205161875001 -2.96947499687499 -2.34718527812500 
 C -1.16997961875001 -3.53396499687499 -1.83052327812500 
 N -0.354527618750008 -7.38014399687499 -2.57967427812500 
 N -2.51000661875001 -6.53574699687499 -3.68598027812500 
 N -3.04172461875001 -6.82087399687499 0.199598721875002 
 N -0.216389618750008 -3.68188699687499 -2.71700527812500 
 N -2.40582461875001 -2.80081799687499 -3.63100627812500 
 N -2.79556361875001 -3.29899099687499 0.175126721875002 
 S -0.982732618750008 -7.00475999687499 -4.09993927812500 
 S -3.88473661875001 -6.56481299687499 -1.23911927812500 
 S -1.47070861875001 -7.25460599687499 2.437372187500220E-002
 S -0.925469618750007 -3.18289899687499 -4.25873927812500 
 S -3.63636861875001 -2.74807199687499 -1.14637527812500 
 S -1.21389661875001 -3.83727199687499 -0.140490278124998 
