16

 C -2.48388699375000 -6.62102068124999 -2.45229237187500 
 C -1.18865199375000 -6.66467668124999 -1.79786437187500 
 C -2.43166899375000 -2.15281968124999 -2.70764837187500 
 C -1.44019399375000 -2.91967968124999 -2.02803037187500 
 N -0.130635993750001 -6.63913068124999 -2.57508037187500 
 N -2.33532899375000 -6.51816468124999 -3.76595437187500 
 N -3.06834899375000 -6.52473768124999 1.678262812499809E-002
 N -0.323744993750001 -3.15366568124999 -2.76048837187500 
 N -2.06530599375000 -1.76587368124999 -3.95382037187500 
 N -3.47987099375000 -2.67229068124999 -0.480134371875002 
 S -0.710961993750002 -6.44262268124999 -4.14582537187500 
 S -3.76515999375000 -6.37791668124999 -1.43311437187500 
 S -1.35540699375000 -6.78790968124999 -7.522837187500175E-002
 S -0.605781993750001 -2.52223168124999 -4.27236537187500 
 S -3.96398899375000 -1.84298468124999 -1.83354737187500 
 S -1.96925099375000 -3.35157168124999 -0.444153371875002 
