16

 C -2.40110549062501 -6.54614009687501 -2.49964685625000 
 C -1.15097449062501 -6.84839609687501 -1.85643685625000 
 C -2.42841549062501 -2.68222809687500 -2.36140085625000 
 C -1.30131049062501 -3.01947009687501 -1.63264885625000 
 N -8.550849062500543E-002 -6.85588409687500 -2.65293585625000 
 N -2.30692849062501 -6.34929109687500 -3.79774385625000 
 N -2.93394049062501 -6.96225109687500 -4.274785624999922E-002
 N -0.253206490625005 -3.34623209687500 -2.40379285625000 
 N -2.28385249062501 -2.59274709687501 -3.66983985625000 
 N -3.23930249062500 -2.73522609687500 9.795414375000067E-002
 S -0.699737490625005 -6.51369809687500 -4.18857785625000 
 S -3.69362049062501 -6.57333809687500 -1.45161185625000 
 S -1.37060049062501 -7.29230509687500 -0.167770856249999 
 S -0.685121490625005 -3.04378109687500 -3.96751685625000 
 S -3.83677849062501 -2.31057909687500 -1.45380285625000 
 S -1.67464649062501 -3.19215709687500 3.776014375000059E-002
