16

 C -2.49541929687500 -6.23789400625000 -2.25824922187500 
 C -1.38556629687500 -6.90483700625000 -1.68031322187500 
 C -2.29012929687500 -2.32387400625000 -2.48932922187500 
 C -1.05178029687500 -2.84412600625000 -1.89056822187500 
 N -0.408936296875003 -7.14309100625000 -2.53767522187500 
 N -2.38771729687500 -6.02951400625000 -3.56106322187500 
 N -3.11485229687500 -6.69650100625000 0.191841778125001 
 N -3.683129687500308E-002 -3.03401300625000 -2.75257722187500 
 N -2.21505329687500 -2.21749500625000 -3.79890122187500 
 N -2.88571229687500 -2.49833400625000 -7.432221874999367E-003
 S -0.858222296875003 -6.55911600625000 -4.01950422187500 
 S -3.86797429687500 -6.02907200625000 -1.16930622187500 
 S -1.57876429687500 -7.21727100625000 -2.295122187499921E-002
 S -0.667392296875003 -2.71619900625000 -4.23952122187500 
 S -3.59625529687500 -1.92210800625000 -1.40350022187500 
 S -1.36154329687500 -3.20949500625000 -0.158240221874999 
