16

 C -2.55221430937500 -6.25575180937499 -2.39396885625000 
 C -1.29018630937500 -6.62723480937499 -1.78544385625000 
 C -2.49005630937500 -2.44263480937499 -2.87881285625000 
 C -1.32356630937500 -2.91982680937499 -2.13754285625000 
 N -0.206511309375004 -6.73964080937499 -2.55072485625000 
 N -2.42751830937500 -6.11364980937499 -3.72750585625000 
 N -3.01367530937500 -6.64053680937499 0.170767143750001 
 N -0.205780309375004 -2.96839080937499 -2.85729685625000 
 N -2.26066730937500 -2.13902880937499 -4.16020385625000 
 N -3.26539330937500 -2.72503580937499 -0.417600856249998 
 S -0.832935309375004 -6.43832480937499 -4.04514085625000 
 S -3.90331530937500 -6.55079780937499 -1.26810885625000 
 S -1.40788330937500 -6.90133380937499 -1.583985624999862E-002
 S -0.653781309375004 -2.53719080937499 -4.44018285625000 
 S -3.93820630937500 -2.24485180937499 -1.87582485625000 
 S -1.61520330937500 -3.13601780937499 -0.517414856249999 
