16

 C -2.36684940937499 -6.63273835625001 -2.30356919687500 
 C -1.12656340937499 -6.92621035625001 -1.66681119687500 
 C -2.52913040937499 -2.60191435625001 -2.40914219687500 
 C -1.36019740937499 -3.24328835625001 -1.82448619687500 
 N -0.145583409374990 -7.04495235625001 -2.54266919687500 
 N -2.37569940937499 -6.51126335625001 -3.61758519687500 
 N -2.90440540937499 -6.67304235625001 0.208433803124999 
 N -0.384815409374990 -3.44771035625001 -2.68534219687500 
 N -2.43414040937499 -2.43218935625001 -3.71789819687500 
 N -3.06981340937499 -2.88815135625001 -3.388119687500080E-002
 S -0.814755409374991 -6.79395535625001 -4.06244819687500 
 S -3.71027240937499 -6.44499335625001 -1.22914519687500 
 S -1.23906740937499 -6.97164835625001 3.250080312499914E-002
 S -0.902425409374990 -3.05602235625001 -4.17152319687500 
 S -3.80933540937499 -2.35381835625001 -1.38780719687500 
 S -1.51304540937499 -3.47673735625001 -0.117779196875001 
