16

 C -2.30391392500001 -6.34544484062500 -2.39796186250000 
 C -1.12690892500001 -6.76385984062501 -1.70422486250000 
 C -2.62190792500001 -2.65562784062501 -2.61923386250000 
 C -1.38739092500001 -3.01322384062501 -1.93097386250000 
 N -0.136814925000010 -7.07313484062501 -2.55885086250000 
 N -2.17419992500001 -6.19086584062500 -3.74569386250000 
 N -2.72481592500001 -6.26750284062500 0.181696137499999 
 N -0.352758925000010 -3.20675984062501 -2.72021086250000 
 N -2.52127192500001 -2.70367684062500 -3.95032286250000 
 N -3.21387992500001 -2.78027884062501 -6.419186250000131E-002
 S -0.647454925000011 -6.75262084062501 -4.11701386250000 
 S -3.63207592500001 -6.01726584062501 -1.17296886250000 
 S -1.25661092500001 -7.03458784062501 -4.621186250000142E-002
 S -0.925821925000011 -3.05596084062500 -4.30735286250000 
 S -3.91285392500001 -2.27590884062501 -1.49614986250000 
 S -1.58852492500001 -3.20461284062501 -0.190946862500001 
