16

 C -2.46672154687500 -6.55198044375001 -2.55644982500000 
 C -1.29846654687500 -7.07484644375001 -1.87066282500000 
 C -2.73358054687500 -2.89339944375001 -2.49919182500000 
 C -1.56865054687500 -3.44255844375001 -1.86744482500000 
 N -0.222487546875004 -7.16442044375001 -2.66219282500000 
 N -2.28537054687500 -6.28109344375001 -3.85166582500000 
 N -3.06745454687500 -6.78828544375001 -7.693082500000226E-002
 N -0.532684546875004 -3.61647544375001 -2.68661482500000 
 N -2.55397254687500 -2.58491244375001 -3.77808082500000 
 N -3.48821354687500 -3.24073444375001 -5.190982500000230E-002
 S -0.696864546875004 -6.60680944375001 -4.10583882500000 
 S -3.81092054687500 -6.32857444375001 -1.46951682500000 
 S -1.49952054687500 -7.26811044375001 -0.188795825000002 
 S -0.986462546875003 -3.18169244375001 -4.22173882500000 
 S -4.02620354687500 -2.46897744375001 -1.41040182500000 
 S -1.87441054687500 -3.73702644375001 -9.960782500000231E-002
