16

 C -2.26806771250001 -6.37357403750000 -2.48564739687500 
 C -1.07361371250001 -6.76136503750000 -1.80000539687500 
 C -2.55545471250000 -2.50683203750000 -2.64917139687500 
 C -1.46077371250001 -3.14003903750000 -1.92039939687500 
 N -7.128471250000512E-002 -6.87468603750000 -2.63740539687500 
 N -2.18507071250001 -6.24850903750000 -3.77691439687500 
 N -3.00151071250001 -6.59383503750000 -9.408539687499973E-002
 N -0.308185712500006 -3.30738303750000 -2.65080339687500 
 N -2.16856071250001 -2.20289503750000 -3.90100639687500 
 N -3.46772171250000 -2.73660103750000 -0.311929396875000 
 S -0.602924712500005 -6.60754103750000 -4.19384639687500 
 S -3.67447471250000 -6.36456503750000 -1.52871039687500 
 S -1.29598471250001 -6.74634703750000 -0.114833396875000 
 S -0.609449712500005 -2.61426003750000 -4.10036739687500 
 S -4.03059871250001 -2.10236803750000 -1.75564839687500 
 S -1.88881771250001 -3.36575203750000 -0.220516396875000 
