16

 C -2.68037183437501 -6.30302955312500 -2.44326541562500 
 C -1.45930483437501 -6.70079055312500 -1.79019941562500 
 C -2.50180283437501 -2.97217055312500 -2.30729741562500 
 C -1.21179383437501 -3.27297355312500 -1.65556841562500 
 N -0.434912834375007 -6.77241355312500 -2.62776941562500 
 N -2.65019183437501 -6.22266255312500 -3.77613541562500 
 N -3.27071183437501 -6.60800555312500 4.792058437500102E-002
 N -0.176430834375007 -3.46756355312500 -2.47809541562500 
 N -2.37365083437501 -2.88852055312500 -3.63235141562500 
 N -2.98281283437501 -3.07237955312500 0.256782584375001 
 S -1.06835583437501 -6.53215055312500 -4.14116841562500 
 S -4.02903883437501 -6.15767855312500 -1.35466841562500 
 S -1.65473083437501 -6.91326255312500 -0.109784415624999 
 S -0.783904834375007 -3.11509655312500 -4.00016741562500 
 S -3.77711283437501 -2.72049555312500 -1.19085941562500 
 S -1.37513183437501 -3.48193055312500 6.392258437500087E-002
