16

 C -2.43984791249999 -6.61308012812500 -2.23689869687500 
 C -1.19354091249999 -6.76268112812500 -1.59392469687500 
 C -2.33473591249999 -2.74334212812500 -2.52752269687500 
 C -1.13882591249999 -3.24872712812500 -1.93757269687500 
 N -0.121219912499992 -6.76974612812500 -2.37174869687500 
 N -2.37627791249999 -6.49869212812500 -3.54091969687500 
 N -2.99947791249999 -6.88054212812500 0.234151303124999 
 N -0.205794912499992 -3.45150312812500 -2.83339969687500 
 N -2.32718991249999 -2.63361412812500 -3.82065069687500 
 N -2.78850691249999 -2.92109112812500 4.609303124999187E-003
 S -0.750206912499992 -6.67443612812500 -3.92491369687500 
 S -3.74540591249999 -6.71995012812500 -1.19412869687500 
 S -1.33366091249999 -7.03748112812500 0.121327303124999 
 S -0.777346912499993 -3.07676712812500 -4.31865669687500 
 S -3.55106991249999 -2.42615512812500 -1.38760569687500 
 S -1.18487291249999 -3.42023112812500 -0.277484696875001 
