16

 C -2.41755084375000 -6.63517759375000 -2.42849404687500 
 C -1.16294784375000 -6.97482159375000 -1.77020004687500 
 C -2.54509084375000 -2.86311659375000 -2.26601204687500 
 C -1.32747084375000 -3.33861559375000 -1.68836504687500 
 N -0.174241843750002 -7.16735559375000 -2.58705904687500 
 N -2.29926784375000 -6.60544359375000 -3.72861204687500 
 N -2.81334984375000 -6.73593959375000 0.152571953124998 
 N -0.365896843750002 -3.55984759375000 -2.59051404687500 
 N -2.57737384375000 -2.74819159375000 -3.60546604687500 
 N -2.92024384375000 -3.13274159375000 0.271851953124998 
 S -0.746157843750002 -7.01545059375000 -4.14916304687500 
 S -3.72120484375000 -6.40066659375000 -1.28837604687500 
 S -1.30290384375000 -7.27864659375000 -9.317204687500236E-002
 S -0.989172843750001 -3.02148459375000 -4.06071404687500 
 S -3.74705484375000 -2.53433959375000 -1.05567104687500 
 S -1.28283184375000 -3.28363059375000 9.594595312499776E-002
