16

 C -2.21648038750000 -6.35321153437500 -2.61995757500000 
 C -1.09943938750000 -6.96886453437500 -1.91979857500000 
 C -2.69602238750000 -2.42212353437500 -2.41283457500000 
 C -1.58258738750000 -3.11926153437500 -1.70616857500000 
 N -0.122144387500004 -7.33288853437500 -2.71466857500000 
 N -2.03409138750000 -6.21670153437500 -3.92810857500000 
 N -2.80875938750000 -6.52174353437500 -6.447457500000131E-002
 N -0.500846387500005 -3.35160153437500 -2.46151357500000 
 N -2.41999538750000 -2.17256353437500 -3.71021857500000 
 N -3.34656838750000 -2.45793853437500 9.365542499999857E-002
 S -0.496385387500005 -6.84380353437500 -4.24541257500000 
 S -3.55690238750000 -6.15773353437500 -1.50296857500000 
 S -1.29595138750000 -7.20316053437500 -0.228298575000001 
 S -0.948742387500005 -2.83100953437500 -4.00256657500000 
 S -4.04732838750000 -2.09923953437500 -1.36664057500000 
 S -1.78491338750000 -3.11223253437500 6.013442499999866E-002
