16

 C -2.47093247812500 -6.63225941250000 -2.42758832500000 
 C -1.19719347812500 -6.89129941250000 -1.83696932500000 
 C -2.05454147812500 -2.77745641250000 -2.29484932500000 
 C -0.947600478124998 -3.34679741250000 -1.60719732500000 
 N -0.107910478124998 -6.87872241250000 -2.60055032500000 
 N -2.33660547812500 -6.40789841250000 -3.71535232500000 
 N -2.92516647812500 -6.93592641250000 0.188040674999999 
 N 0.147480521875002 -3.36595341250000 -2.36333532500000 
 N -1.91382347812500 -2.53760141250000 -3.59802132500000 
 N -2.90864247812500 -3.17880641250000 8.295167499999945E-002
 S -0.720796478124998 -6.68395041250000 -4.17648232500000 
 S -3.80120247812500 -6.68215241250000 -1.25449732500000 
 S -1.34971747812500 -7.26756741250000 -7.904032500000069E-002
 S -0.306846478124998 -2.92090341250000 -3.89042232500000 
 S -3.48981147812500 -2.48058441250000 -1.31976732500000 
 S -1.38153047812500 -3.69010041250000 3.711467499999932E-002
