16

 C -2.57178461875000 -6.59275733125000 -2.41355624375000 
 C -1.31908461875000 -6.87936833125000 -1.72150224375000 
 C -2.68001361875000 -2.81116033125000 -2.50450224375000 
 C -1.46878561875000 -3.28660833125000 -1.86644224375000 
 N -0.245340618749999 -7.01899833125000 -2.46854024375000 
 N -2.42912361875000 -6.55556433125000 -3.73264524375000 
 N -3.09790361875000 -6.44831333125000 8.415475625000024E-002
 N -0.491744618749999 -3.44473833125000 -2.75460224375000 
 N -2.59177461875000 -2.74001633125000 -3.83643824375000 
 N -3.06422961875000 -2.89414033125000 3.997275625000030E-002
 S -0.799206618750000 -6.84475833125000 -4.03691024375000 
 S -3.90147661875000 -6.18922933125000 -1.38277224375000 
 S -1.47277761875000 -6.87245033125000 4.952875625000042E-002
 S -0.982572618750000 -2.97764233125000 -4.25209524375000 
 S -3.87338761875000 -2.47528133125000 -1.33222224375000 
 S -1.52642161875000 -3.37646033125000 -0.137360243750000 
