16

 C -2.44196213125000 -6.32703927187500 -2.54892173750000 
 C -1.24361113125000 -6.74242227187500 -1.82678373750000 
 C -2.74991713125000 -2.92471227187500 -2.49757273750000 
 C -1.55945513125000 -3.47332327187500 -1.87883373750000 
 N -0.226773131250001 -6.94950327187500 -2.61611273750000 
 N -2.28899413125000 -6.31156127187500 -3.87729073750000 
 N -3.13849713125000 -6.61371827187500 -0.168575737499998 
 N -0.557576131250001 -3.74606227187500 -2.71144773750000 
 N -2.56657413125000 -2.65998227187500 -3.77369773750000 
 N -3.32318313125000 -3.29866827187500 -2.291873749999751E-002
 S -0.717140131250001 -6.69505927187500 -4.15924173750000 
 S -3.86102113125000 -6.24430927187500 -1.59916573750000 
 S -1.52357613125000 -7.11431227187500 -0.134021737499997 
 S -0.993858131250001 -3.09118127187500 -4.15785173750000 
 S -4.11235313125000 -2.59445827187500 -1.38563273750000 
 S -1.76488513125000 -3.85765027187500 -0.211936737499998 
