16

 C -2.50629671562500 -6.49733953437501 -2.58322255937500 
 C -1.27667471562500 -6.77723053437501 -1.82746855937500 
 C -2.44994371562500 -2.55069853437501 -2.40747455937500 
 C -1.23822771562500 -3.04494553437501 -1.79201255937500 
 N -0.185870715624997 -6.77934653437501 -2.57265055937500 
 N -2.28752371562500 -6.30442453437501 -3.87924855937500 
 N -3.07350371562500 -6.60985353437501 -4.069155937499924E-002
 N -0.190858715624997 -3.24898153437501 -2.60448655937500 
 N -2.33603671562500 -2.55772653437501 -3.72385855937500 
 N -3.00122371562500 -2.74688953437501 0.125134440625001 
 S -0.624961715624996 -6.46664853437501 -4.15540455937500 
 S -3.94904671562500 -6.33371853437501 -1.49387855937500 
 S -1.49193071562500 -6.99956953437501 -0.150239559374999 
 S -0.762695715624996 -2.95440853437501 -4.18617755937500 
 S -3.79000571562500 -2.24375253437501 -1.32424255937500 
 S -1.38907471562500 -3.17824453437501 -4.849555937499916E-002
