16

 C -2.46159186562500 -6.59921484687500 -2.37104675937500 
 C -1.23792386562500 -6.96786684687500 -1.77176675937500 
 C -2.15251386562501 -3.23273784687500 -2.25475375937500 
 C -0.939495865625005 -3.60872484687500 -1.56229575937500 
 N -0.240975865625005 -7.17102984687500 -2.64286775937500 
 N -2.42791286562501 -6.52603484687500 -3.70528275937500 
 N -2.79305986562500 -6.70944284687500 0.203462240625002 
 N 2.704613437499503E-002 -3.91351684687500 -2.41828775937500 
 N -2.06824186562501 -3.10981484687500 -3.53676175937500 
 N -2.75561586562501 -3.26060784687500 0.220555240625002 
 S -0.894134865625006 -7.02962784687500 -4.15950275937500 
 S -3.72058586562501 -6.39079984687500 -1.15660375937500 
 S -1.20216586562501 -6.97704884687500 -5.768175937499764E-002
 S -0.530632865625005 -3.58010984687500 -3.97141075937500 
 S -3.53730186562500 -3.08223884687500 -1.21685175937500 
 S -1.13746686562501 -3.67343984687500 0.143478240625002 
