16

 C -2.42986020625000 -6.38172757812499 -2.22057697500000 
 C -1.16101320625000 -6.95056257812499 -1.69689497500000 
 C -2.51642920625000 -2.74425157812499 -2.48633497500000 
 C -1.43718720625000 -3.34782457812499 -1.75170497500000 
 N -0.188482206249995 -6.93794557812499 -2.58889397500000 
 N -2.37820320625000 -6.13923457812499 -3.51466297500000 
 N -2.82357820625000 -6.96687057812499 0.221090025000000 
 N -0.395554206249995 -3.71510157812499 -2.51166097500000 
 N -2.31872020625000 -2.58415957812499 -3.80070397500000 
 N -3.26124820625000 -3.03835457812499 -1.208974999999946E-003
 S -0.871887206249996 -6.55421957812499 -4.04799597500000 
 S -3.76473320625000 -6.39231957812499 -1.05879497500000 
 S -1.18837820625000 -7.32474857812499 -7.740797499999985E-002
 S -0.784150206249995 -3.12932357812499 -4.02143497500000 
 S -3.88876020625000 -2.45587557812499 -1.45916597500000 
 S -1.71270220625000 -3.60647557812499 -6.007997499999984E-002
