16

 C -2.41744375937499 -6.48574943437499 -2.61176644062500 
 C -1.19043875937499 -6.93835043437499 -1.98025044062500 
 C -2.61219575937499 -2.54930843437499 -2.35419244062500 
 C -1.48222875937499 -3.08058343437499 -1.67839544062500 
 N -0.125477759374995 -7.04897743437499 -2.76246644062500 
 N -2.21377575937499 -6.19029043437499 -3.90745044062500 
 N -2.96235875937499 -6.86480943437499 -7.983544062500236E-002
 N -0.473610759374995 -3.49177443437499 -2.44508544062500 
 N -2.42779275937500 -2.34030343437499 -3.67542744062500 
 N -3.38442475937499 -2.91675843437499 0.170708559374998 
 S -0.656070759374995 -6.58469643437499 -4.26851444062500 
 S -3.75856675937499 -6.47257843437500 -1.44980344062500 
 S -1.36529375937499 -7.15558343437499 -0.267872440625002 
 S -0.865333759374995 -3.02428643437499 -3.97962344062500 
 S -3.95281275937499 -2.22101243437499 -1.24784644062500 
 S -1.73650075937499 -3.25220943437499 6.108855937499746E-002
