16

 C -2.39971746562500 -6.53690523125000 -2.38189273437500 
 C -1.16225146562500 -6.90825223125000 -1.76943773437500 
 C -2.14095746562500 -2.58698223125000 -2.25955973437500 
 C -1.07010546562500 -3.26717023125001 -1.61443573437500 
 N -0.112528465625002 -7.07536223125001 -2.60244473437500 
 N -2.35255646562500 -6.40128923125001 -3.68318573437500 
 N -2.93652046562500 -6.75509323125001 0.104986265624999 
 N -4.913246562500184E-002 -3.49996423125001 -2.41877873437500 
 N -1.89869446562500 -2.21260923125001 -3.52607573437500 
 N -2.82622146562500 -3.19962923125000 0.205269265624999 
 S -0.760247465625002 -6.66277623125000 -4.10739373437500 
 S -3.73192446562500 -6.53892623125000 -1.35396073437500 
 S -1.34488746562500 -7.18263723125001 -1.519573437500132E-002
 S -0.359056465625001 -2.72726423125000 -3.84707973437500 
 S -3.58222746562500 -2.52872623125000 -1.19653073437500 
 S -1.24216846562500 -3.74156823125000 3.196326562499885E-002
