16

 C -2.27963386874999 -6.43133136562500 -2.30932266562500 
 C -0.968011868749992 -6.91249836562500 -1.80317466562500 
 C -2.66094486874999 -2.59116336562500 -2.47390966562500 
 C -1.50633586874999 -3.16357636562500 -1.81164266562500 
 N -1.115386874999125E-002 -6.92118936562500 -2.71727166562500 
 N -2.28192786874999 -6.11944236562500 -3.60457266562500 
 N -2.60763086874999 -6.69295536562500 0.218853334374999 
 N -0.459133868749992 -3.48110036562500 -2.53281566562500 
 N -2.38642486874999 -2.36697036562500 -3.75502666562500 
 N -3.32198186874999 -2.98364936562500 -2.206466562500120E-002
 S -0.772458868749991 -6.40685636562500 -4.14549566562500 
 S -3.50710586874999 -6.30272836562500 -1.08467466562500 
 S -1.01245886874999 -7.19220236562500 -8.515366562500093E-002
 S -0.879036868749991 -2.87593836562500 -4.14226166562500 
 S -4.01056986874999 -2.39723436562500 -1.39257766562500 
 S -1.73299086874999 -3.34727236562500 -8.525666562500112E-002
