16

 C -2.25594332187500 -6.63880284375000 -2.25480641250000 
 C -0.928690321875002 -6.95193184375000 -1.79250141250000 
 C -2.50976232187500 -2.70908384375000 -2.33322541250000 
 C -1.29846032187500 -3.27245984375000 -1.70497141250000 
 N 3.008067812499871E-002 -6.99158484375000 -2.72569141250000 
 N -2.35835232187500 -6.43657284375000 -3.57531841250000 
 N -2.40258332187500 -6.96984484375000 0.287089587500000 
 N -0.351789321875001 -3.47829784375000 -2.59470041250000 
 N -2.48609532187500 -2.63438784375000 -3.64898741250000 
 N -3.03052432187500 -3.00687584375000 0.183416587500000 
 S -0.792308321875002 -6.67017084375000 -4.18258841250000 
 S -3.42442632187500 -6.56485884375000 -1.00053141250000 
 S -0.809469321875001 -7.28373484375000 -4.525641249999990E-002
 S -0.910313321875002 -3.07483284375000 -4.12000641250000 
 S -3.82578932187500 -2.44572084375000 -1.22498641250000 
 S -1.46062032187500 -3.54618284375000 -3.594124999999337E-004
