16

 C -2.51681112812500 -6.26296585625000 -2.46536949687500 
 C -1.28318412812500 -6.57328585625000 -1.86477349687500 
 C -2.40770512812500 -2.92465885625000 -2.53117049687500 
 C -1.17333712812500 -3.17193185625000 -1.82013049687500 
 N -0.290710128125005 -6.65223885625000 -2.71192149687500 
 N -2.50538612812500 -6.10968585625000 -3.79095949687500 
 N -3.05445412812500 -6.50294785625000 2.508350312500007E-002
 N -0.114861128125004 -3.42929085625000 -2.56039549687500 
 N -2.31418212812500 -2.98014585625000 -3.83551449687500 
 N -3.02605612812500 -2.78452585625000 -6.439349687499996E-002
 S -0.937195128125005 -6.47941285625000 -4.22864249687500 
 S -3.75397912812500 -6.01211385625000 -1.32871449687500 
 S -1.40665612812500 -6.81009485625000 -0.144719496875000 
 S -0.726540128125005 -3.41073285625000 -4.13583849687500 
 S -3.75948712812500 -2.71304985625000 -1.53913649687500 
 S -1.45057612812500 -3.14642585625000 -0.147261496875000 
