16

 C -2.44094114687500 -6.16630185312500 -2.45528829375000 
 C -1.25379114687500 -6.73490485312500 -1.85057629375000 
 C -2.55249514687500 -2.48814585312500 -2.42314029375000 
 C -1.44554914687500 -3.09189185312500 -1.74199129375000 
 N -0.269123146875001 -6.99982885312500 -2.66733429375000 
 N -2.31687714687500 -5.91520985312500 -3.74064629375000 
 N -2.81903114687500 -6.48067185312500 0.150829706250003 
 N -0.414987146875001 -3.38971585312500 -2.54873029375000 
 N -2.37029814687500 -2.31760985312500 -3.72430929375000 
 N -3.04703014687500 -2.38352785312500 6.500270625000271E-002
 S -0.736011146875001 -6.42404085312500 -4.12381629375000 
 S -3.75866814687500 -6.09667085312500 -1.23458629375000 
 S -1.31713514687500 -7.08509385312500 -0.125664293749997 
 S -0.897134146875000 -3.00541285312500 -4.06144629375000 
 S -3.80495014687500 -2.03443685312500 -1.35327729375000 
 S -1.60767914687500 -3.26938085312500 -2.204529374999709E-002
