16

 C -2.65572062812501 -6.32473728125000 -2.58145521875000 
 C -1.43517062812501 -6.76482228125000 -1.91854721875000 
 C -2.72920962812501 -2.64875828125000 -2.49687221875000 
 C -1.57377862812501 -3.19318328125000 -1.83481421875000 
 N -0.404317628125010 -6.95904428125000 -2.72443321875000 
 N -2.47059862812501 -6.11946228125000 -3.87288221875000 
 N -3.20445862812501 -6.68907928125000 -7.669721875000279E-002
 N -0.480320628125010 -3.42787728125000 -2.61940421875000 
 N -2.51822562812501 -2.31131228125000 -3.76549521875000 
 N -3.38281662812501 -2.84563428125000 -5.161521875000252E-002
 S -0.840773628125009 -6.42376928125000 -4.18528221875000 
 S -3.97365162812501 -6.12730328125000 -1.42998821875000 
 S -1.59346762812501 -7.02478728125000 -0.247755218750003 
 S -0.989502628125010 -2.77126528125000 -4.14391621875000 
 S -4.11919662812501 -2.52838628125000 -1.51857321875000 
 S -1.81201762812501 -3.44052628125000 -0.101822218750003 
