16

 C -2.42048272500000 -6.53959012187500 -2.35857103125000 
 C -1.15373772500000 -6.92191712187500 -1.73539003125000 
 C -2.16222972500000 -2.54749212187500 -2.22169303125000 
 C -1.08898672500000 -3.33616112187500 -1.63580703125000 
 N -0.143103724999997 -7.12042112187500 -2.57208303125000 
 N -2.34577472500000 -6.38937312187500 -3.68687103125000 
 N -2.91005472500000 -6.71304712187500 9.359896874999984E-002
 N -6.198872499999730E-002 -3.46382612187500 -2.47726003125000 
 N -1.92094672500000 -2.09865012187500 -3.46542003125000 
 N -2.80830972500000 -3.20845512187500 0.223415968750000 
 S -0.758233724999998 -6.65866612187500 -4.08131603125000 
 S -3.74539372500000 -6.48891412187500 -1.39195203125000 
 S -1.33189772500000 -7.15404012187500 -7.553031250000064E-003
 S -0.387263724999997 -2.69834712187500 -3.85415303125000 
 S -3.60539672500000 -2.54395012187500 -1.15680003125000 
 S -1.23874272500000 -3.73651112187500 2.432796874999976E-002
