16

 C -2.38347250312500 -6.33349120937500 -2.60517840937500 
 C -1.19288250312500 -6.74236120937500 -1.88209040937500 
 C -2.40568950312500 -2.63766220937500 -2.60503240937500 
 C -1.16037950312500 -3.01960720937500 -1.97433740937500 
 N -0.111749503125004 -6.92933020937500 -2.62782740937500 
 N -2.20746850312500 -6.28419420937500 -3.93640040937500 
 N -3.06077050312500 -6.31003020937500 -0.138772409375001 
 N -0.164894503125004 -3.22032620937500 -2.85095340937500 
 N -2.29373950312500 -2.48544720937500 -3.93323940937500 
 N -2.84018350312500 -3.06787520937500 -4.226940937500134E-002
 S -0.627615503125004 -6.67647220937500 -4.18056840937500 
 S -3.77036050312500 -6.20926520937500 -1.58959040937500 
 S -1.44943150312500 -6.86719520937500 -0.132717409375001 
 S -0.689217503125004 -2.77558420937500 -4.30921040937500 
 S -3.65193950312500 -2.60944120937500 -1.39984540937500 
 S -1.25135050312500 -3.29809220937500 -0.256367409375001 
