16

 C -2.27165564999999 -6.27779416250000 -2.24141957812500 
 C -1.11827164999999 -6.78288216250000 -1.52601157812500 
 C -2.33393164999999 -2.45534916250000 -2.11992757812500 
 C -1.15586364999999 -3.10530816250000 -1.63548757812500 
 N -8.300664999999441E-002 -6.89211416250000 -2.35783357812500 
 N -2.11632464999999 -6.03961716250000 -3.53190457812500 
 N -3.06448764999999 -6.47859316250000 0.247720421874999 
 N -8.434164999999449E-002 -3.10809016250000 -2.41205257812500 
 N -2.20959164999999 -2.10367916250000 -3.39303957812500 
 N -2.92733664999999 -3.28208516250000 0.255381421874999 
 S -0.609144649999994 -6.56557416250000 -3.89462157812500 
 S -3.71939164999999 -6.10111416250000 -1.19745157812500 
 S -1.50844564999999 -7.10499216250000 0.138398421874999 
 S -0.649098649999995 -2.45148116250000 -3.87093357812500 
 S -3.66348164999999 -2.47302816250000 -0.985513578125001 
 S -1.35869264999999 -3.75638816250000 -1.283157812500124E-002
