16

 C -2.18793738437500 -6.16680932812500 -2.12253038437500 
 C -1.03423938437500 -6.85302332812500 -1.47721738437500 
 C -2.40917238437500 -2.64006332812500 -2.64347438437500 
 C -1.20451638437500 -3.06801132812500 -2.00629338437500 
 N -1.424838437500142E-002 -6.92225032812500 -2.30647538437500 
 N -2.04091338437500 -5.90104332812500 -3.42888638437500 
 N -2.85061238437500 -6.61811432812500 0.282077615624998 
 N -0.221998384375002 -3.39365232812500 -2.86756438437500 
 N -2.29421938437500 -2.57804232812500 -3.95396138437500 
 N -2.95191538437500 -3.00644132812500 -0.163803384375002 
 S -0.528590384375002 -6.51164732812500 -3.82807038437500 
 S -3.63466138437500 -6.23052832812500 -1.12720838437500 
 S -1.29993838437500 -7.31979532812500 0.122346615624998 
 S -0.734222384375002 -3.00849832812500 -4.40786638437500 
 S -3.72031638437500 -2.49591032812500 -1.55122938437500 
 S -1.34789938437500 -3.22142132812500 -0.300975384375002 
