16

 C -2.47851095625000 -6.51278712812500 -2.22674185625000 
 C -1.22466595625000 -6.93662912812500 -1.70901385625000 
 C -2.52103295625000 -2.81754512812500 -2.47887985625000 
 C -1.40155195625000 -3.40411712812500 -1.80086985625000 
 N -0.234041956250000 -7.08587312812500 -2.62035885625000 
 N -2.46130195625000 -6.21457312812500 -3.53080885625000 
 N -2.84106895625000 -7.08354212812500 0.332190143749997 
 N -0.315122956250000 -3.56984312812500 -2.55533985625000 
 N -2.33149195625000 -2.61974812812500 -3.79421785625000 
 N -3.26949395625000 -3.10536412812500 -4.797185625000333E-002
 S -0.876433956250000 -6.54774112812500 -4.04040885625000 
 S -3.69152195625000 -6.36356412812500 -0.925219856250003 
 S -1.22026895625000 -7.39659212812500 -1.265085625000317E-002
 S -0.767155956250000 -3.17102212812500 -4.10449285625000 
 S -3.80650995625000 -2.35203712812500 -1.40363285625000 
 S -1.67146195625000 -3.60619612812500 -3.993785625000323E-002
