16

 C -2.33656941250000 -6.06852285000000 -2.22488834375000 
 C -1.13798041250000 -6.65214285000000 -1.61752534375000 
 C -2.63001641250000 -2.49940885000000 -2.57006134375000 
 C -1.39098141250000 -2.83062085000000 -1.94706434375000 
 N -0.187315412499996 -6.94026785000000 -2.49176334375000 
 N -2.27692941250000 -5.81626885000000 -3.54313134375000 
 N -2.76602741250000 -6.21726285000000 0.369291656249999 
 N -0.335354412499996 -3.08473785000000 -2.76079634375000 
 N -2.54742041250000 -2.40124585000000 -3.91731934375000 
 N -3.17688441250000 -2.40014485000000 -1.800334375000090E-002
 S -0.777776412499995 -6.43825585000000 -3.98211434375000 
 S -3.61691141250000 -5.85214085000000 -0.976670343750001 
 S -1.20035641250000 -6.87924985000000 0.103462656249999 
 S -0.993674412499995 -2.79671885000000 -4.33751634375000 
 S -3.95249141250000 -2.03564585000000 -1.44769834375000 
 S -1.53879941250000 -2.92695885000000 -0.152455343750001 
