16

 C -2.24696219375000 -6.45165270000000 -2.60163313125000 
 C -1.05973619375000 -6.98382469999999 -1.95142713125000 
 C -2.76046719375000 -2.52503269999999 -2.34387313125000 
 C -1.54314619375000 -2.91755169999999 -1.62647513125000 
 N -7.468919375000471E-002 -7.22532569999999 -2.79673813125000 
 N -2.17969119375000 -6.29341969999999 -3.89905013125000 
 N -2.80583719375000 -6.46051869999999 -8.347613125000075E-002
 N -0.458131193750004 -3.19529169999999 -2.37636513125000 
 N -2.61762619375000 -2.57868569999999 -3.67581013125000 
 N -3.43432619375000 -2.85461069999999 0.134700868749999 
 S -0.608277193750005 -6.78043669999999 -4.34445813125000 
 S -3.57230919375000 -6.10040869999999 -1.53763813125000 
 S -1.22049019375000 -6.94294469999999 -0.233827131250001 
 S -1.01395319375000 -2.97766569999999 -3.97492913125000 
 S -4.15150819375000 -2.20789869999999 -1.29415313125000 
 S -1.80982519375000 -3.09903169999999 0.103985868749999 
