16

 C -2.37718764375001 -6.38917407500000 -2.23368872812500 
 C -1.16186064375001 -6.88292907500000 -1.71027172812500 
 C -2.52690564375001 -2.73197207500000 -2.42076672812500 
 C -1.45379564375001 -3.33769407500000 -1.74654472812500 
 N -0.177712643750006 -6.91732307500000 -2.60202572812500 
 N -2.35853264375001 -6.10845607500000 -3.52961272812500 
 N -2.80282064375001 -6.90027807500000 0.183443271874999 
 N -0.451154643750006 -3.72616807500000 -2.49725672812500 
 N -2.28937364375001 -2.56583407500000 -3.72300472812500 
 N -3.26482464375001 -2.99692007500000 4.376271874998672E-003
 S -0.874428643750006 -6.54499507500000 -4.05753972812500 
 S -3.74895364375001 -6.41699207500000 -1.12489372812500 
 S -1.21831964375001 -7.29170507500000 -6.947572812500136E-002
 S -0.767258643750006 -3.12387307500000 -4.02361972812500 
 S -3.92818564375001 -2.50050807500000 -1.47778072812500 
 S -1.72377764375001 -3.60046407500000 -8.731572812500143E-002
