16

 C -2.34614369687500 -6.39923458125000 -2.41644129062500 
 C -1.10991869687500 -6.74930058125000 -1.74557629062500 
 C -2.54280569687500 -2.67060758125000 -2.57273029062500 
 C -1.38748369687500 -3.11135658125000 -1.86647729062500 
 N -6.528569687499974E-002 -6.86423958125000 -2.58374429062500 
 N -2.24494269687500 -6.40545858125000 -3.73557929062500 
 N -2.91282669687500 -6.60114958125000 5.348570937499719E-002
 N -0.363611696875000 -3.55292858125000 -2.61309329062500 
 N -2.43193569687500 -2.61327458125000 -3.90146529062500 
 N -3.28330969687500 -2.92511658125000 -4.687029062500292E-002
 S -0.652401696875000 -6.73466358125000 -4.11683829062500 
 S -3.72734669687500 -6.26240358125000 -1.37121129062500 
 S -1.26697369687500 -6.90057158125000 -2.114929062500259E-002
 S -0.889897696875000 -3.22467258125000 -4.17023729062500 
 S -3.94428969687500 -2.46316858125000 -1.51548629062500 
 S -1.67422569687500 -3.41328258125000 -0.112592290625003 
