16

 C -2.77948501875000 -6.75773133437500 -2.32196895312500 
 C -1.50710801875000 -7.03456633437500 -1.71108995312500 
 C -2.40523901875000 -3.09102233437500 -2.42304495312500 
 C -1.09846501875000 -3.14410233437500 -1.88675195312500 
 N -0.439348018750000 -7.03768333437500 -2.52510095312500 
 N -2.71288101875000 -6.60568633437500 -3.65581195312500 
 N -3.15012101875000 -6.69234333437500 0.192263046875000 
 N -0.151335018749999 -3.21862133437500 -2.80842695312500 
 N -2.51640801875000 -3.27918033437500 -3.74768895312500 
 N -2.76382101875000 -3.11113733437500 0.101531046875000 
 S -1.07365101875000 -6.71141133437500 -4.00650795312500 
 S -4.02497101875000 -6.34100333437500 -1.19349595312500 
 S -1.50813401875000 -7.02373133437500 7.226046875000280E-003
 S -0.968030018749999 -3.22144733437500 -4.29146995312500 
 S -3.66159801875000 -2.99750933437500 -1.23498995312500 
 S -1.11816301875000 -3.32813533437500 -0.158756953125000 
