16

 C -2.35145040937501 -6.52256575937500 -2.44800158750000 
 C -1.14218340937501 -6.88093875937500 -1.75960558750000 
 C -2.50570540937501 -3.20351375937500 -2.29536458750000 
 C -1.25543840937501 -3.47856875937500 -1.63527758750000 
 N -6.260440937500977E-002 -6.98324875937500 -2.52253458750000 
 N -2.23431940937501 -6.43474775937500 -3.75356258750000 
 N -3.05406340937501 -6.69755375937500 1.160041250000043E-002
 N -0.241948409375009 -3.65147375937500 -2.47004658750000 
 N -2.40678240937501 -3.13463375937500 -3.63800858750000 
 N -2.97047840937501 -3.33062075937500 0.233293412500000 
 S -0.683274409375009 -6.81422475937500 -4.10566358750000 
 S -3.72263540937501 -6.34907475937500 -1.42933058750000 
 S -1.39670440937501 -6.95274075937500 2.306741250000033E-002
 S -0.817905409375009 -3.41098775937500 -4.04093858750000 
 S -3.86659640937501 -3.35503175937500 -1.19081558750000 
 S -1.29703740937501 -3.57144175937500 5.362341250000036E-002
