16

 C -2.33417470937501 -6.62914762187499 -2.29421749375000 
 C -1.10786170937501 -7.00188362187499 -1.68165349375000 
 C -2.32631870937501 -2.78815662187499 -2.46028949375000 
 C -1.14475170937501 -3.14969862187499 -1.72253749375000 
 N -5.013470937501019E-002 -7.04593762187499 -2.50677749375000 
 N -2.27534670937501 -6.37918262187499 -3.59004449375000 
 N -2.91453970937501 -7.05710962187499 0.238212506250003 
 N -4.796670937501002E-002 -3.32285962187499 -2.47818349375000 
 N -2.21961770937501 -2.75451062187499 -3.79182749375000 
 N -3.06084470937501 -2.91303362187499 1.619450625000307E-002
 S -0.729150709375010 -6.63580762187499 -4.01329849375000 
 S -3.71234170937501 -6.64611462187499 -1.22205949375000 
 S -1.26780070937501 -7.30452662187499 4.341150625000312E-002
 S -0.564555709375010 -3.07203562187499 -4.04000649375000 
 S -3.76467470937501 -2.55643162187499 -1.47717649375000 
 S -1.45538870937501 -3.13310462187499 3.910250625000300E-002
