16

 C -2.43966541562500 -6.61323150312500 -2.46525464062500 
 C -1.17533741562500 -6.78696250312500 -1.75632664062500 
 C -2.46556941562500 -2.18086050312500 -2.81327464062500 
 C -1.46552641562500 -2.90636950312500 -2.10128764062500 
 N -0.167618415624996 -6.65125150312500 -2.59773964062500 
 N -2.38706941562500 -6.49545450312500 -3.78987464062500 
 N -2.98284141562500 -6.49198950312500 6.492235937500146E-002
 N -0.326926415624996 -3.12455650312500 -2.77207064062500 
 N -2.11106841562500 -1.79348550312500 -4.03213964062500 
 N -3.47479841562500 -2.73327950312500 -0.465672640624999 
 S -0.779044415624996 -6.37752050312500 -4.11970764062500 
 S -3.84347741562500 -6.39996150312500 -1.42448364062500 
 S -1.37557141562500 -6.80217050312500 4.732359375001494E-003
 S -0.653890415624995 -2.50241450312500 -4.28438564062500 
 S -3.83590041562500 -1.93200550312500 -1.88562764062500 
 S -1.92280741562500 -3.25999250312500 -0.430983640624998 
