16

 C -2.68512726875000 -6.71995201562500 -2.38502993750000 
 C -1.40917226875000 -6.99310901562500 -1.79183393750000 
 C -2.23284226875000 -3.07316301562500 -2.23336593750000 
 C -1.07750926875000 -3.49505801562500 -1.56395493750000 
 N -0.397684268750004 -7.22417301562500 -2.63051693750000 
 N -2.57981426875000 -6.58197501562500 -3.71321793750000 
 N -3.08337426875000 -6.77289301562500 0.115672062499999 
 N 5.795731249996550E-003 -3.62702301562500 -2.34250093750000 
 N -2.10408026875000 -2.96468601562500 -3.54676593750000 
 N -2.89489926875000 -3.32449001562500 0.201939062499999 
 S -1.03025026875000 -6.98485401562500 -4.13750293750000 
 S -3.95469726875000 -6.46554001562500 -1.29351693750000 
 S -1.43894126875000 -7.09026501562500 -0.119244937500001 
 S -0.516949268750004 -3.27566101562500 -3.90218693750000 
 S -3.60378626875000 -2.84248601562500 -1.20214793750000 
 S -1.29750226875000 -3.87091801562500 0.146102062499999 
