16

 C -2.25654783125000 -6.35881336562500 -2.60916111562500 
 C -1.14849483125000 -7.01199236562500 -1.96863711562500 
 C -2.69198983125000 -2.48462236562500 -2.41037211562500 
 C -1.56978983125000 -3.03274936562500 -1.64727511562500 
 N -0.100561831249997 -7.33682836562500 -2.72206211562500 
 N -2.07478083125000 -6.21359636562500 -3.91665011562500 
 N -2.80339783125000 -6.50532436562500 -6.674811562499805E-002
 N -0.514007831249997 -3.31709136562500 -2.41591211562500 
 N -2.47882283125000 -2.18850236562500 -3.68976411562500 
 N -3.35634883125000 -2.54492736562500 0.122200884375002 
 S -0.502096831249997 -6.82972936562500 -4.26057811562500 
 S -3.56037883125000 -6.15337936562500 -1.52988711562500 
 S -1.26435783125000 -7.14943336562500 -0.220692115624998 
 S -0.961465831249997 -2.86851136562500 -3.97792511562500 
 S -4.03856483125000 -2.14932736562500 -1.37587511562500 
 S -1.81843783125000 -3.09429336562500 5.069788437500211E-002
