16

 C -2.39838895624999 -6.47056193750000 -2.55044989375000 
 C -1.13945195624999 -6.85639893750000 -1.87203089375000 
 C -2.51539695624999 -2.53866193750000 -2.38121289375000 
 C -1.35909495624999 -3.10978193750000 -1.62980089375000 
 N -0.104920956249995 -6.90991893750000 -2.73059989375000 
 N -2.27155595624999 -6.26258393750000 -3.86715489375000 
 N -3.00217295624999 -6.87889493750000 -6.005989375000009E-002
 N -0.275499956249995 -3.40720093750000 -2.37493389375000 
 N -2.33028695624999 -2.48510093750000 -3.69349489375000 
 N -3.29243295624999 -2.80888493750000 1.981410624999969E-002
 S -0.690467956249995 -6.54121693750000 -4.20664489375000 
 S -3.77670495624999 -6.55946093750000 -1.51068489375000 
 S -1.30263895624999 -7.27929193750000 -0.203230893750000 
 S -0.815810956249995 -3.04431093750000 -3.91657389375000 
 S -3.91581495624999 -2.26222793750000 -1.40179589375000 
 S -1.63941695624999 -3.21182393750000 6.143310624999976E-002
