16

 C -2.37334789062500 -6.34150819375000 -2.47503842812500 
 C -1.21785489062500 -6.83680619375000 -1.74626142812500 
 C -2.60932589062500 -2.74279219375000 -2.57615142812500 
 C -1.39271889062500 -3.04220619375000 -1.88402442812500 
 N -0.133730890625004 -7.19920419375000 -2.48913442812500 
 N -2.11348089062500 -6.41857919375000 -3.79200442812500 
 N -2.98711589062500 -6.38556819375000 6.204857187500057E-002
 N -0.360663890625004 -3.10045719375000 -2.69604942812500 
 N -2.45896289062500 -2.48354219375000 -3.85370442812500 
 N -3.12891689062500 -2.88208319375000 -4.292642812499947E-002
 S -0.543708890625004 -6.93283719375000 -4.07268642812500 
 S -3.70945189062500 -6.03827419375000 -1.39230442812500 
 S -1.32916989062500 -6.79876219375000 -1.145442812499953E-002
 S -0.841174890625004 -2.77336319375000 -4.26475042812500 
 S -3.90708689062500 -2.69492919375000 -1.47290242812500 
 S -1.50058589062500 -3.06574819375000 -0.151195428125000 
