16

 C -2.23063130625000 -6.68423383437500 -2.22418426875000 
 C -0.973151306249998 -7.03369983437500 -1.61835826875000 
 C -2.52343730625000 -2.62444583437500 -2.49696326875000 
 C -1.19715930625000 -2.90810583437500 -1.84147726875000 
 N 6.709169375000101E-002 -7.04976683437500 -2.45903526875000 
 N -2.13297230625000 -6.43592283437500 -3.52885026875000 
 N -2.69247530625000 -6.72228783437500 0.246566731250000 
 N -0.178253306249998 -3.01180583437500 -2.67471226875000 
 N -2.45619830625000 -2.56557983437500 -3.82121426875000 
 N -2.98901030625000 -2.79018283437500 4.671073124999947E-002
 S -0.512866306249999 -6.56107283437500 -3.93388126875000 
 S -3.54883330625000 -6.49746583437500 -1.14301126875000 
 S -1.12490830625000 -7.31689883437500 9.560673124999952E-002
 S -0.876545306249999 -2.85661583437500 -4.20033726875000 
 S -3.84260730625000 -2.47813583437500 -1.35379426875000 
 S -1.34819030625000 -3.11155083437500 -0.119579268750001 
