16

 C -2.58357152187500 -6.63727203750000 -2.33526270625000 
 C -1.33828752187500 -7.06720403750000 -1.71517970625000 
 C -2.40302952187500 -2.97726103750000 -2.33279270625000 
 C -1.16304552187500 -3.51661203750000 -1.82668770625000 
 N -0.364813521874996 -7.36259603750000 -2.58270770625000 
 N -2.49672452187500 -6.51600203750000 -3.66912870625000 
 N -3.05474452187500 -6.81474603750000 0.191644293750000 
 N -0.243937521874996 -3.68829203750000 -2.71926670625000 
 N -2.41331052187500 -2.78369103750000 -3.63828570625000 
 N -2.79778752187500 -3.30224803750000 0.161117293750000 
 S -0.979852521874997 -7.00738603750000 -4.10714170625000 
 S -3.89164452187500 -6.57243103750000 -1.24934270625000 
 S -1.48157952187500 -7.26171003750000 2.563229375000020E-002
 S -0.930970521874997 -3.17839403750000 -4.25089670625000 
 S -3.63825852187500 -2.74718903750000 -1.14460670625000 
 S -1.21763652187500 -3.81892503750000 -0.150144706250000 
