16

 C -2.24582129687500 -6.37355386875000 -2.31344760312500 
 C -0.966000296874996 -6.84630686875000 -1.77872660312500 
 C -2.69864829687500 -2.54468786875000 -2.48932860312500 
 C -1.53120429687500 -3.12136386875000 -1.86193860312500 
 N -3.206229687499640E-002 -6.89771986875000 -2.69426460312500 
 N -2.22689629687500 -6.06282386875000 -3.61274760312500 
 N -2.52928829687500 -6.66787686875000 0.255056396874999 
 N -0.507866296874997 -3.27528686875000 -2.68789160312500 
 N -2.55153529687500 -2.28134586875000 -3.80721360312500 
 N -3.37476529687500 -2.96448686875000 -4.871660312500081E-002
 S -0.683266296874996 -6.45041886875000 -4.12511960312500 
 S -3.47924829687500 -6.25960386875000 -1.08596560312500 
 S -1.00704029687500 -7.21310986875000 -0.122272603125001 
 S -0.981618296874996 -2.80749886875000 -4.11049560312500 
 S -4.07673329687500 -2.34537186875000 -1.44074060312500 
 S -1.72054029687500 -3.36225286875000 -0.125160603125001 
