16

 C -2.41139482187500 -6.64237845312500 -2.36478444687500 
 C -1.18255482187500 -6.97983145312500 -1.75367644687500 
 C -2.50530182187500 -2.82700345312500 -2.24921444687500 
 C -1.25405782187500 -3.26803545312500 -1.67565844687500 
 N -0.144884821875002 -7.18252345312500 -2.58194044687500 
 N -2.26791682187500 -6.49753945312500 -3.68954444687500 
 N -2.82364082187500 -6.62705045312500 0.136018553124999 
 N -0.376425821875002 -3.55956445312500 -2.61672544687500 
 N -2.54258282187500 -2.74441745312500 -3.57183744687500 
 N -2.89918782187500 -3.09958145312500 0.281357553124999 
 S -0.709640821875002 -6.99552745312500 -4.11637244687500 
 S -3.72270982187500 -6.39280745312500 -1.30907344687500 
 S -1.26170582187500 -7.35064645312500 -5.232144687500084E-002
 S -1.00998582187500 -3.09109845312500 -4.02779444687500 
 S -3.68592382187500 -2.61997345312500 -1.08593744687500 
 S -1.28602182187500 -3.21662645312500 3.737455312499915E-002
