16

 C -2.62152241875001 -6.59450896562501 -2.41784040000000 
 C -1.43389041875001 -7.01214196562501 -1.73781240000000 
 C -2.15851341875000 -2.87402096562501 -2.37356540000000 
 C -1.01269541875001 -3.50834296562501 -1.68511940000000 
 N -0.425307418750005 -7.23290396562501 -2.56802940000000 
 N -2.44159941875001 -6.36467796562501 -3.71460440000000 
 N -3.24264941875000 -6.68375596562501 0.161227599999999 
 N -5.724187500053546E-004 -3.69077796562501 -2.48129940000000 
 N -1.85653441875001 -2.58368196562501 -3.61687840000000 
 N -2.89222941875000 -3.32263496562501 5.772599999999350E-003
 S -0.906257418750005 -6.84859096562501 -4.13545140000000 
 S -3.90483341875001 -6.21024296562501 -1.29636140000000 
 S -1.61590041875001 -7.14147996562501 1.736259999999934E-002
 S -0.299482418750005 -3.02472196562501 -3.98754740000000 
 S -3.57633241875001 -2.82128996562501 -1.40947040000000 
 S -1.34242441875000 -3.83704696562501 -7.907840000000066E-002
