16

 C -2.29129286562500 -6.49804788750000 -2.23512077500000 
 C -1.09602086562500 -6.97077288750000 -1.66038177500000 
 C -2.34011886562500 -2.57916688750000 -2.51349677500000 
 C -1.12963786562500 -3.26554888750000 -2.05935977500000 
 N -0.113579865624999 -7.17701488750000 -2.54815677500000 
 N -2.26609686562500 -6.24821088750000 -3.56110377500000 
 N -2.82643286562500 -6.66624388750000 0.342322225000001 
 N -0.170632865625000 -3.39134488750000 -2.98564377500000 
 N -2.34327086562500 -2.29665188750000 -3.81903577500000 
 N -2.70294986562500 -3.14080188750000 6.824522500000119E-002
 S -0.748071865625000 -6.69883288750000 -4.02072977500000 
 S -3.66993886562500 -6.50057688750000 -1.13958177500000 
 S -1.25653986562500 -7.15196188750000 0.107343225000001 
 S -0.879548865624999 -2.80796488750000 -4.39729477500000 
 S -3.54855286562500 -2.41209188750000 -1.20958977500000 
 S -1.12401986562500 -3.49124988750000 -0.253573774999999 
