16

 C -2.42424905625001 -6.51700877812501 -2.43622324062500 
 C -1.32292505625001 -7.07666177812501 -1.66930424062500 
 C -2.28898805625001 -2.72245677812501 -2.55356624062500 
 C -1.18362405625000 -3.31464977812501 -1.89835424062500 
 N -0.251724056250005 -7.41327577812501 -2.41633624062500 
 N -2.23188705625001 -6.44979677812501 -3.76405324062500 
 N -3.29950205625001 -6.65909777812501 3.528759375001078E-003
 N -7.959605625000510E-002 -3.54101677812501 -2.64668424062500 
 N -2.16530305625001 -2.52358477812501 -3.87452224062500 
 N -2.97241205625000 -3.00867077812501 -2.499324062499864E-002
 S -0.706154056250005 -6.95586677812501 -3.99583224062500 
 S -3.85040405625000 -6.07581477812501 -1.47288824062500 
 S -1.75926805625001 -7.10908277812501 4.813375937500108E-002
 S -0.598050056250005 -2.99622077812501 -4.21567724062500 
 S -3.68028305625000 -2.71398777812501 -1.47466424062500 
 S -1.42050005625001 -3.42480777812501 -0.139347240624999 
