16

 C -2.47357531875001 -6.19085906250000 -2.70258573750000 
 C -1.27760231875001 -6.61893006250000 -2.00401573750000 
 C -2.43926231875001 -2.76556906250000 -2.56120973750000 
 C -1.25068531875001 -3.07392306250000 -1.86550973750000 
 N -0.198957318750008 -6.84576606250000 -2.77764873750000 
 N -2.29031031875001 -6.01185206250000 -4.02292273750000 
 N -3.15836231875001 -6.50834206250000 -0.197155737500000 
 N -0.156762318750007 -3.09559206250000 -2.63694473750000 
 N -2.35273531875001 -2.63229806250000 -3.89020873750000 
 N -3.08275031875001 -2.81170806250000 -2.121973750000028E-002
 S -0.674413318750007 -6.38224506250000 -4.35976473750000 
 S -3.84518531875001 -6.08017706250000 -1.61329773750000 
 S -1.56186231875001 -6.89184006250000 -0.317966737500000 
 S -0.751725318750007 -2.92466106250000 -4.21847173750000 
 S -3.85772331875001 -2.69707506250000 -1.53284373750000 
 S -1.44278731875001 -3.18894206250000 -0.119914737500000 
