16

 C -2.23176074687500 -6.50712867187500 -2.27853250937500 
 C -1.06388774687500 -7.08125267187500 -1.74657150937500 
 C -2.28228774687500 -2.61607067187500 -2.46582450937500 
 C -1.11161574687500 -3.17945767187500 -1.84787650937500 
 N -0.100826746875002 -7.32041467187500 -2.64046250937500 
 N -2.21807274687500 -6.31040867187500 -3.59368750937500 
 N -2.57219774687500 -6.61759667187500 0.281081490625000 
 N -4.128874687500250E-002 -3.27896067187500 -2.64481350937500 
 N -2.14412274687500 -2.29620967187500 -3.76699450937500 
 N -2.90767774687500 -3.02642467187500 9.012249062500044E-002
 S -0.754306746875002 -6.82699167187500 -4.08420850937500 
 S -3.34812574687500 -6.05260667187500 -1.05385250937500 
 S -1.16275174687500 -7.36134367187500 2.934149062500047E-002
 S -0.570321746875003 -2.81167367187500 -4.13261450937500 
 S -3.58094474687500 -2.41915367187500 -1.33741650937500 
 S -1.37725374687500 -3.58366167187500 -0.171620509375000 
