16

 C -2.54063152187499 -6.53063654062500 -2.43583265312500 
 C -1.31495052187499 -6.85165754062500 -1.71232865312500 
 C -2.65054452187499 -2.86185454062500 -2.54117965312500 
 C -1.46121452187499 -3.25911554062500 -1.89081665312500 
 N -0.226069521874992 -6.94682454062500 -2.48718865312500 
 N -2.41590952187499 -6.56938454062500 -3.76159665312500 
 N -3.06910552187499 -6.43417854062500 8.170434687499872E-002
 N -0.464003521874992 -3.47792654062500 -2.72128365312500 
 N -2.61769752187499 -2.70384354062500 -3.87232865312500 
 N -3.11318352187499 -2.89261554062500 5.999834687499872E-002
 S -0.749717521874993 -6.84329854062500 -4.05066365312500 
 S -3.86098652187499 -6.20883554062500 -1.37410665312500 
 S -1.45206752187499 -6.88760854062500 3.484034687499871E-002
 S -0.968585521874992 -2.98937454062500 -4.24535665312500 
 S -3.90260052187499 -2.45128954062500 -1.36678565312500 
 S -1.53474452187499 -3.39712654062500 -0.117436653125001 
