16

 C -2.17963430312501 -6.12816152500000 -2.58900839062500 
 C -1.02364330312501 -6.58722752500000 -1.82956339062500 
 C -2.34578830312501 -2.78964852500000 -2.48010839062500 
 C -1.12863030312501 -3.13073452500000 -1.86931539062500 
 N 3.653169687499336E-002 -6.87818452500000 -2.57386039062500 
 N -1.90859330312501 -5.99550852500000 -3.88487139062500 
 N -2.99160330312501 -6.38711452500000 -0.192714390624999 
 N -0.134490303125007 -3.38775552500000 -2.72194339062500 
 N -2.29181130312501 -2.70140652500000 -3.80253339062500 
 N -2.87902230312501 -2.88523652500000 3.823960937500082E-002
 S -0.417672303125007 -6.62570352500000 -4.10685039062500 
 S -3.58095930312501 -5.87375452500000 -1.67737939062500 
 S -1.37546630312501 -6.82538352500000 -0.129719390624999 
 S -0.719645303125007 -3.05317252500000 -4.23860139062500 
 S -3.74425830312501 -2.79103652500000 -1.41159539062500 
 S -1.27450730312501 -3.29620352500000 -0.143894390624999 
