16

 C -2.45731974062501 -6.57454604687500 -2.33589731875000 
 C -1.22958974062501 -7.01929804687500 -1.59246931875000 
 C -2.44699474062501 -2.57492504687500 -2.52859431875000 
 C -1.25060974062501 -3.05613004687500 -1.83740331875000 
 N -0.279353740625006 -7.44118804687500 -2.42713331875000 
 N -2.37567174062501 -6.58507404687500 -3.66367331875000 
 N -2.96439074062501 -6.61075504687500 0.219732681250000 
 N -0.165293740625006 -3.04534004687500 -2.60417331875000 
 N -2.20276174062501 -2.25649504687500 -3.82114331875000 
 N -3.02789574062501 -2.72091804687500 -3.491318750000083E-003
 S -0.828157740625006 -7.17515504687500 -3.95210631875000 
 S -3.81630674062501 -6.22822004687500 -1.22184531875000 
 S -1.43056674062501 -7.29678504687500 7.127368124999989E-002
 S -0.590025740625006 -2.58634904687500 -4.14039731875000 
 S -3.74564974062501 -2.32270104687500 -1.43956031875000 
 S -1.46083574062501 -3.36140404687500 -0.131414318750000 
