16

 C -2.26510023437500 -6.45949642812501 -2.49397724062500 
 C -1.04293323437499 -6.91131242812501 -1.91003724062500 
 C -2.52043423437499 -2.54226942812501 -2.50477724062500 
 C -1.28493123437500 -3.13395842812501 -1.93171024062500 
 N -0.171378234374995 -7.31850242812501 -2.81077024062500 
 N -2.28848723437499 -6.52590642812501 -3.83985224062500 
 N -2.59010623437500 -6.38305942812501 6.850575937500114E-002
 N -0.335992234374995 -3.43871642812501 -2.79294124062500 
 N -2.38267923437500 -2.28319642812501 -3.82072124062500 
 N -2.96682223437499 -3.02714342812501 -5.943024062499869E-002
 S -0.865101234374995 -7.20337942812501 -4.32185724062500 
 S -3.56261523437500 -6.30606242812501 -1.32791524062500 
 S -1.04854323437500 -6.89173642812501 -0.153351240624999 
 S -1.00012223437500 -3.07379942812501 -4.26999724062500 
 S -3.74608123437500 -2.25895342812501 -1.31945124062500 
 S -1.37596523437499 -3.45710342812501 -0.236865240624999 
