16

 C -2.54395690937501 -6.52883058125000 -2.45764523750000 
 C -1.31121890937501 -7.02319458125000 -1.82328223750000 
 C -2.39643390937501 -2.62811358125000 -2.26751823750000 
 C -1.19924790937501 -3.17658858125000 -1.72353923750000 
 N -0.308479909375010 -7.17879558125000 -2.69265123750000 
 N -2.47682690937501 -6.41767858125000 -3.77394423750000 
 N -3.09873290937501 -6.81948158125000 9.701376249999982E-002
 N -0.191123909375010 -3.40807158125000 -2.55339623750000 
 N -2.34797690937501 -2.42111958125000 -3.58719523750000 
 N -2.80112790937501 -3.13370258125000 0.223858762500000 
 S -0.870040909375010 -6.73753658125000 -4.21198123750000 
 S -3.79885590937501 -6.38741658125000 -1.30663623750000 
 S -1.51466290937501 -7.23929658125000 -9.983623750000015E-002
 S -0.825841909375010 -2.91811458125000 -4.02005823750000 
 S -3.56727790937501 -2.42165458125000 -1.05477823750000 
 S -1.22553690937501 -3.53943058125000 -5.716923750000014E-002
