16

 C -2.66437223750000 -6.38754412187500 -2.48521467187500 
 C -1.34975423750001 -6.81610212187500 -2.09325267187500 
 C -2.70625823750000 -3.03572912187500 -2.33135667187500 
 C -1.53854423750001 -3.46810212187500 -1.55824367187500 
 N -0.451350237500005 -6.90991912187500 -3.03017567187500 
 N -2.66766423750000 -6.15618712187500 -3.77480067187500 
 N -2.78331923750001 -6.61634812187500 1.981832812500106E-002
 N -0.525619237500005 -3.76931812187500 -2.39574967187500 
 N -2.49634923750000 -2.87401712187500 -3.63820367187500 
 N -3.35714223750001 -3.18809412187500 0.143160328125001 
 S -1.19779323750001 -6.61097212187500 -4.47890667187500 
 S -3.82531923750000 -6.20762412187500 -1.30136567187500 
 S -1.27493323750001 -7.16104412187500 -0.364249671874999 
 S -0.880323237500005 -3.18516312187500 -3.88239167187500 
 S -4.04092423750000 -2.69710412187500 -1.32504067187500 
 S -1.71223123750000 -3.34042812187500 0.134682328125001 
