16

 C -2.24568730312499 -6.26721618750000 -2.36729536250000 
 C -1.19469730312499 -6.89147018750000 -1.61650236250000 
 C -2.54067330312499 -2.55750718750000 -2.49654936250000 
 C -1.28725130312499 -3.04251618750000 -1.95323536250000 
 N -0.187267303124991 -7.16940718750000 -2.40913236250000 
 N -2.08016230312499 -6.19233218750000 -3.67225136250000 
 N -2.94716130312499 -6.20164118750000 9.790863750000089E-002
 N -0.267219303124992 -3.02589418750000 -2.81936836250000 
 N -2.42925730312499 -2.15448218750000 -3.77167436250000 
 N -2.90415530312499 -2.81192618750000 -9.446362499999195E-003
 S -0.567046303124991 -6.70101718750000 -3.98257136250000 
 S -3.66732830312499 -5.93529118750000 -1.38180036250000 
 S -1.47063930312499 -6.92879218750000 5.308063750000080E-002
 S -0.865491303124991 -2.47720218750000 -4.26399636250000 
 S -3.77508530312499 -2.35894118750000 -1.33387036250000 
 S -1.34964230312499 -3.39371318750000 -0.257602362499999 
