16

 C -2.41117420312500 -6.30789303749999 -2.15335010937500 
 C -1.19249720312500 -6.84824903749999 -1.61012410937500 
 C -2.21225720312500 -2.71847703749999 -2.62952310937500 
 C -1.00971520312500 -3.09709203749999 -1.92342710937500 
 N -0.145993203125000 -7.01835403749999 -2.46712810937500 
 N -2.29970920312500 -6.09957203749999 -3.47830110937500 
 N -2.84583320312500 -6.88698803749999 0.407850890624998 
 N 0.120565796875001 -3.22717303749999 -2.62243310937500 
 N -2.04289520312500 -2.61429003749999 -3.96025510937500 
 N -2.94105120312500 -2.72062603749999 -0.174013109375002 
 S -0.760765203125001 -6.52531603749999 -3.93864110937500 
 S -3.75374720312500 -6.45825603749999 -0.981395109375002 
 S -1.33318920312500 -7.46473903749999 4.651889062499825E-002
 S -0.458872203125000 -3.00625403749999 -4.17146210937500 
 S -3.60169120312500 -2.29011403749999 -1.61452610937500 
 S -1.31103220312500 -3.16641103749999 -0.191609109375002 
