16

 C -2.65686061562501 -6.36360977187501 -2.50123661875000 
 C -1.35515961562501 -6.82984577187501 -2.08406461875000 
 C -2.70142761562501 -3.02514177187501 -2.31541861875000 
 C -1.54524861562501 -3.45175477187501 -1.56827561875000 
 N -0.437503615625006 -6.91074277187501 -3.03945961875000 
 N -2.67351061562501 -6.16747877187501 -3.81927261875000 
 N -2.76271361562501 -6.60144777187501 1.763638124999956E-002
 N -0.524304615625006 -3.74291277187501 -2.40129261875000 
 N -2.48411961562501 -2.83337077187501 -3.62454861875000 
 N -3.34175961562501 -3.19911377187501 0.152445381250000 
 S -1.18201461562501 -6.62906977187501 -4.48647661875000 
 S -3.84502361562501 -6.23669777187501 -1.27918061875000 
 S -1.27174361562501 -7.15903477187501 -0.346175618750000 
 S -0.890632615625006 -3.17194577187501 -3.87995061875000 
 S -4.01524261562501 -2.69422677187501 -1.30740761875000 
 S -1.72109861562501 -3.35202277187501 0.126819381250000 
