16

 C -2.22689374687500 -6.70451329687500 -2.22068262500000 
 C -1.02207974687500 -7.12688829687500 -1.60736062500000 
 C -2.44931874687500 -2.63592429687500 -2.46279862500000 
 C -1.21512374687500 -2.84247029687500 -1.88840162500000 
 N 4.205425312500299E-002 -7.00147729687500 -2.42934162500000 
 N -2.14710074687500 -6.37235629687500 -3.51545762500000 
 N -2.77737474687500 -6.79727829687500 0.288509374999999 
 N -0.192765746874997 -3.07005329687500 -2.69835962500000 
 N -2.41659274687500 -2.63566529687500 -3.77960762500000 
 N -2.93289674687500 -2.86235829687500 6.547337499999895E-002
 S -0.573588746874997 -6.49723229687500 -3.89505162500000 
 S -3.61084274687500 -6.54417129687500 -1.14039862500000 
 S -1.21093774687500 -7.32743029687500 0.125327374999999 
 S -0.821434746874997 -2.84992229687500 -4.20885862500000 
 S -3.76753874687500 -2.46049029687500 -1.32269862500000 
 S -1.34484474687500 -3.15762829687500 -0.181319625000001 
