16

 C -2.22163460937500 -6.70772691250000 -2.23852170625000 
 C -0.884515609375002 -7.02931891250000 -1.71955070625000 
 C -2.50920560937500 -2.68712391250000 -2.28775670625000 
 C -1.34983560937500 -3.25896391250000 -1.74212370625000 
 N -1.460460937500230E-002 -7.03794991250000 -2.69892370625000 
 N -2.30839960937500 -6.42850791250000 -3.51954570625000 
 N -2.48087960937500 -6.99181991250000 0.279148293750000 
 N -0.364652609375002 -3.47148691250000 -2.60485070625000 
 N -2.46230460937500 -2.56098191250000 -3.60708270625000 
 N -3.00624260937500 -3.06280391250000 0.164129293750000 
 S -0.775707609375002 -6.63782791250000 -4.14892270625000 
 S -3.43381460937500 -6.49171491250000 -1.01134070625000 
 S -0.834910609375002 -7.27512591250000 1.062293750000221E-003
 S -0.893636609375002 -3.06914191250000 -4.10036970625000 
 S -3.78196760937500 -2.45556591250000 -1.18745270625000 
 S -1.43352360937500 -3.54853991250000 -1.029970624999965E-002
