16

 C -2.27079016562500 -6.43287607500000 -2.44286540625000 
 C -1.02168016562500 -6.75654607500000 -1.76740340625000 
 C -2.54676016562500 -2.70116807500000 -2.53503940625000 
 C -1.45202416562500 -3.25389907500000 -1.85383740625000 
 N -1.427016562500061E-002 -6.96687207500000 -2.61241340625000 
 N -2.21696016562500 -6.25355607500000 -3.77741340625000 
 N -2.83174716562500 -6.76227007500000 7.580059374999992E-002
 N -0.384778165625001 -3.55231507500000 -2.56309740625000 
 N -2.34194616562500 -2.65865807500000 -3.82561140625000 
 N -3.27847116562500 -2.93050307500000 -0.132856406250000 
 S -0.598829165625000 -6.61085007500000 -4.14028640625000 
 S -3.58833416562500 -6.30814407500000 -1.33184840625000 
 S -1.17220316562500 -6.88160107500000 -5.066440625000013E-002
 S -0.788636165625000 -3.25663407500000 -4.15848240625000 
 S -3.95339416562500 -2.44788907500000 -1.55517140625000 
 S -1.69867416562500 -3.34815007500000 -0.108027406250000 
