16

 C -2.46834397500000 -6.55029317187500 -2.40016558750000 
 C -1.21684397500000 -6.82686617187500 -1.71895758750000 
 C -2.21486897500000 -2.91607617187500 -2.18000058750000 
 C -0.927088975000000 -3.32313517187500 -1.56979158750000 
 N -0.128351975000000 -6.82101517187500 -2.51478558750000 
 N -2.25118897500000 -6.32537417187500 -3.71535058750000 
 N -3.01803797500000 -6.69492717187500 0.143168412500001 
 N 3.631502500000039E-002 -3.40293517187500 -2.48981958750000 
 N -2.23861597500000 -2.75062017187500 -3.50914658750000 
 N -2.67735197500000 -3.24080517187500 0.330912412500000 
 S -0.628488975000000 -6.50285417187500 -4.08164458750000 
 S -3.81902297500000 -6.43327217187500 -1.35774258750000 
 S -1.38078197500000 -6.87139217187500 5.006641250000055E-002
 S -0.679033975000000 -3.04915617187500 -4.00943258750000 
 S -3.53063897500000 -2.88745217187500 -1.06304658750000 
 S -0.985980975000000 -3.58179917187500 0.171535412500001 
