16

 C -2.46295185625001 -6.23356589375000 -2.69750010937500 
 C -1.24440085625001 -6.64801589375000 -2.02156110937500 
 C -2.44726485625001 -2.79290889375000 -2.59570410937500 
 C -1.24612385625001 -3.07647189375000 -1.88078610937500 
 N -0.156807856250012 -6.89254089375000 -2.78651110937500 
 N -2.25855985625001 -6.01618589375000 -3.98605410937500 
 N -3.15904285625001 -6.47665189375000 -0.185598109375001 
 N -0.149124856250012 -3.09254489375000 -2.64604610937500 
 N -2.36629285625001 -2.63969689375000 -3.94289810937500 
 N -3.11668985625001 -2.83119189375000 -4.246410937500023E-002
 S -0.641480856250012 -6.36796389375000 -4.32741810937500 
 S -3.82372085625001 -6.02927689375000 -1.62891710937500 
 S -1.54648785625001 -6.87470089375000 -0.307343109375000 
 S -0.737879856250012 -2.91009889375000 -4.19804610937500 
 S -3.85789985625001 -2.68556789375000 -1.52130810937500 
 S -1.45052385625001 -3.19626889375000 -0.118336109375001 
