16

 C -2.47583778125000 -6.70057971250000 -2.33771768125000 
 C -1.20878278125000 -7.11636671250000 -1.74241468125000 
 C -2.66344378125000 -3.25219771250000 -2.04126268125000 
 C -1.45290878125000 -3.51806271250000 -1.34715968125000 
 N -0.137448781250004 -7.12722771250000 -2.57992168125000 
 N -2.39466378125000 -6.52826871250000 -3.65598368125000 
 N -2.91920378125000 -6.86853971250000 0.180299318749998 
 N -0.389648781250004 -3.55335371250000 -2.16783668125000 
 N -2.52181078125000 -3.04425671250000 -3.36420668125000 
 N -3.29385978125000 -3.29188771250000 0.449734318749998 
 S -0.793933781250004 -6.68932071250000 -4.02249468125000 
 S -3.67886978125000 -6.44379971250000 -1.19613568125000 
 S -1.24703178125000 -7.19770871250000 -9.968681250001721E-003
 S -0.927093781250004 -3.28525371250000 -3.67518868125000 
 S -4.05913578125000 -3.20203971250000 -1.02756068125000 
 S -1.70101978125000 -3.60921871250000 0.294894318749998 
