16

 C -2.42187696875001 -6.38649899375000 -2.52702811250000 
 C -1.14371796875001 -6.73145699375000 -1.92308711250000 
 C -2.74751096875001 -2.75557299375000 -2.30273211250000 
 C -1.50618496875001 -3.19797599375000 -1.70007011250000 
 N -0.158408968750009 -6.84165199375000 -2.83047411250000 
 N -2.38967996875001 -6.31572999375000 -3.87218511250000 
 N -2.82810296875001 -6.33869199375000 4.263888749999900E-002
 N -0.580069968750009 -3.57272999375000 -2.57766911250000 
 N -2.61392196875001 -2.61043499375000 -3.61982011250000 
 N -3.22859096875001 -2.94645999375000 0.196546887499999 
 S -0.861545968750009 -6.60362799375000 -4.32416811250000 
 S -3.73739396875001 -6.11109799375000 -1.35301711250000 
 S -1.19379296875001 -6.63127999375000 -0.183031112500001 
 S -1.12900796875001 -3.16438699375000 -4.06767811250000 
 S -4.07110596875001 -2.61588199375000 -1.21759211250000 
 S -1.62464896875001 -3.34955499375000 6.182887499998957E-003
