16

 C -2.64191367500000 -6.17493375937500 -2.26605172812500 
 C -1.41028067500000 -6.68583375937500 -1.70990672812500 
 C -2.38703367500000 -2.51587575937500 -2.46265772812500 
 C -1.25158467500000 -3.04719175937500 -1.80133472812500 
 N -0.404789674999999 -6.94003875937500 -2.52307472812500 
 N -2.57462267500000 -6.07868175937500 -3.57522072812500 
 N -3.09186267500000 -6.46303475937500 0.248525271875000 
 N -0.209417674999999 -3.33215675937500 -2.62011272812500 
 N -2.29410167500000 -2.43945275937500 -3.82113572812500 
 N -3.08343467500000 -2.71180975937500 4.212127187500014E-002
 S -0.987483674999999 -6.53101175937500 -4.01851472812500 
 S -3.84777267500000 -5.84383375937500 -1.05641972812500 
 S -1.47511767500000 -6.84240075937500 1.148327187500020E-002
 S -0.725672674999999 -2.97231675937500 -4.12060772812500 
 S -3.77497967500000 -2.28628775937500 -1.35749672812500 
 S -1.45941567500000 -2.99841475937500 -3.080272812499962E-002
