16

 C -2.40103233125000 -6.54395477500000 -2.53152218750000 
 C -1.26063133125000 -7.12006877500000 -1.85177718750000 
 C -2.46394833125000 -2.85305077500000 -2.39061018750000 
 C -1.23337133125000 -3.20755677500000 -1.73776518750000 
 N -0.225838331249999 -7.42759877500000 -2.63358718750000 
 N -2.14290633125000 -6.31370377500000 -3.82840418750000 
 N -3.01676933125000 -6.70287077500000 5.491812499999638E-003
 N -0.158910331250000 -3.38206677500000 -2.49768818750000 
 N -2.38938533125000 -2.76368077500000 -3.69683918750000 
 N -3.04490933125000 -3.01027777500000 5.131781249999978E-002
 S -0.653252331249999 -7.00970377500000 -4.19304918750000 
 S -3.68738933125000 -6.13111077500000 -1.43031818750000 
 S -1.48574633125000 -7.30265377500000 -0.138974187500000 
 S -0.864189331250000 -3.11406877500000 -4.13739918750000 
 S -3.77005033125000 -2.52652877500000 -1.38769418750000 
 S -1.41332033125000 -3.35280177500000 2.098581249999976E-002
