16

 C -2.68171341875000 -6.28390829375001 -2.29721840625000 
 C -1.47678541875000 -6.78711629375001 -1.67966840625000 
 C -2.36868341875000 -2.67118529375001 -2.44251740625000 
 C -1.13249441875000 -3.08580129375001 -1.73735240625000 
 N -0.476618418750003 -6.97247329375001 -2.54240840625000 
 N -2.61126241875000 -6.17951629375001 -3.62121140625000 
 N -3.16979941875000 -6.33860229375001 0.176683593749997 
 N -0.118892418750003 -3.22510629375001 -2.58366540625000 
 N -2.24591441875000 -2.65269929375001 -3.77150740625000 
 N -3.03847741875000 -2.80449729375001 -4.605840625000268E-002
 S -1.06466241875000 -6.69796629375001 -4.06847240625000 
 S -3.94230141875000 -5.91250529375001 -1.23407340625000 
 S -1.59301241875000 -6.95435029375001 8.071659374999740E-002
 S -0.660365418750003 -3.03167529375001 -4.06635240625000 
 S -3.76499641875000 -2.32493929375001 -1.45048640625000 
 S -1.37616641875000 -3.16826729375001 -7.862406250002785E-003
