16

 C -2.43607390312501 -6.43837600937500 -2.58534794687500 
 C -1.23539890312501 -6.85992700937500 -1.86068494687500 
 C -2.72071290312501 -2.84450800937500 -2.49124594687500 
 C -1.60538990312501 -3.49773800937500 -1.87823994687500 
 N -0.183483903125007 -6.98345800937500 -2.63231394687500 
 N -2.24169790312501 -6.24843800937500 -3.91062994687500 
 N -3.14067490312501 -6.67482000937500 -3.228794687500014E-002
 N -0.544416903125007 -3.70051200937500 -2.64873094687500 
 N -2.59879090312501 -2.66652000937500 -3.78183994687500 
 N -3.38293590312501 -3.22363500937500 -3.473194687500025E-002
 S -0.643806903125007 -6.68440500937500 -4.23692794687500 
 S -3.89147390312501 -6.28927900937500 -1.51757294687500 
 S -1.57979890312501 -7.15732600937500 -0.148697946875000 
 S -1.04727190312501 -3.11376300937500 -4.13588394687500 
 S -4.00412690312501 -2.55272200937500 -1.40547694687500 
 S -1.83271790312501 -3.84098200937500 -0.209462946875000 
