16

 C -2.41070696562499 -6.59773168750000 -2.28622497500000 
 C -1.26361496562499 -7.12264468750000 -1.58444697500000 
 C -2.47239896562499 -2.52492968750000 -2.41919197500000 
 C -1.25622296562499 -3.03936268750000 -1.79624997500000 
 N -0.302404965624991 -7.45285068750000 -2.45676497500000 
 N -2.32217196562499 -6.59782068750000 -3.60409397500000 
 N -3.07733296562499 -6.45260068750000 0.174404024999997 
 N -0.213142965624990 -3.14694668750000 -2.60913097500000 
 N -2.32628696562499 -2.38355168750000 -3.72901497500000 
 N -3.11690196562499 -2.97568168750000 -4.368297500000251E-002
 S -0.856758965624991 -7.25478968750000 -4.03084297500000 
 S -3.73512396562499 -6.24932868750000 -1.29008197500000 
 S -1.58352196562499 -7.27478568750000 8.728002499999743E-002
 S -0.751547965624990 -2.68934468750000 -4.11832297500000 
 S -3.75858496562499 -2.19777068750000 -1.36971497500000 
 S -1.53299996562499 -3.35489068750000 -0.173591975000003 
