16

 C -2.31303976250000 -6.64389635000000 -2.40014405625000 
 C -1.12998976250000 -7.09942535000000 -1.72174505625000 
 C -2.92386576250000 -3.15189035000000 -2.32497405625000 
 C -1.75246176250000 -3.63760335000000 -1.63805105625000 
 N -2.434976250000354E-002 -7.42829835000000 -2.45202905625000 
 N -2.16687176250000 -6.62224335000000 -3.72552805625000 
 N -2.94766476250000 -6.92497835000000 0.128045943750001 
 N -0.748192762500003 -3.80175735000000 -2.49311305625000 
 N -2.81825976250000 -2.94782035000000 -3.65492705625000 
 N -3.53117676250000 -3.35637635000000 0.202234943750001 
 S -0.613958762500003 -7.20620035000000 -4.00230705625000 
 S -3.70216976250000 -6.54151935000000 -1.38981405625000 
 S -1.34879376250000 -7.26557035000000 7.729394375000087E-002
 S -1.25092976250000 -3.42887435000000 -4.04989905625000 
 S -4.29169476250000 -2.83748835000000 -1.21201705625000 
 S -1.85810876250000 -3.75361535000000 9.878594375000072E-002
