16

 C -2.34817238750000 -6.68860890937500 -2.39329080312500 
 C -1.13610838750000 -7.16045590937500 -1.72318080312500 
 C -2.38234038750000 -2.50075890937500 -2.26188680312500 
 C -1.32904238750000 -3.32916290937500 -1.76788780312500 
 N -0.115204387499999 -7.35796790937500 -2.56484980312500 
 N -2.23781438750000 -6.34894390937500 -3.71580180312500 
 N -3.02194538750000 -7.01910690937500 0.144965196874999 
 N -0.366505387499998 -3.72410590937500 -2.61837580312500 
 N -2.23824338750000 -2.26547790937500 -3.55770980312500 
 N -2.97277238750000 -2.80827690937500 0.160470196874999 
 S -0.632888387499999 -6.76620490937500 -4.05158880312500 
 S -3.71796438750000 -6.43273990937500 -1.23927980312500 
 S -1.36808438750000 -7.29743390937500 5.066519687499937E-002
 S -0.810404387499998 -2.97034790937500 -4.07793580312500 
 S -3.65251538750000 -2.06790290937500 -1.18856180312500 
 S -1.56137638750000 -3.68849490937500 -3.768780312500075E-002
