16

 C -2.51846018437500 -6.23570747187500 -2.37455498125000 
 C -1.26049918437500 -6.59776947187500 -1.67604798125000 
 C -2.50317218437500 -2.48897547187500 -2.89014898125000 
 C -1.33459618437500 -2.90362447187500 -2.21375598125000 
 N -0.253105184375001 -6.75040547187500 -2.53971198125000 
 N -2.44097418437500 -6.06036847187500 -3.71846198125000 
 N -3.06832318437500 -6.71513147187500 0.129574018750001 
 N -0.191176184375001 -2.88577247187500 -2.88321998125000 
 N -2.30442518437500 -2.18284947187500 -4.16910698125000 
 N -3.20345418437500 -2.74220747187500 -0.431603981249999 
 S -0.835182184375001 -6.44103847187500 -4.06445198125000 
 S -3.89895918437500 -6.53741747187500 -1.24082498125000 
 S -1.38189518437500 -6.91555247187500 4.501875000118005E-005
 S -0.679919184375001 -2.56915747187500 -4.45825998125000 
 S -3.85479918437500 -2.34386047187500 -1.87069998125000 
 S -1.60345718437500 -3.11561947187500 -0.499217981249999 
