16

 C -2.34704220937501 -6.70787671562501 -2.45633346562500 
 C -1.08760220937501 -6.96774871562500 -1.77746946562500 
 C -2.27765420937501 -3.47128671562501 -2.22059846562500 
 C -1.02518520937501 -3.54956871562501 -1.52224646562500 
 N -4.882120937500734E-002 -7.08341571562501 -2.58098146562500 
 N -2.26676920937501 -6.54679371562501 -3.78141846562500 
 N -2.87622920937501 -6.54840171562500 0.102021534374999 
 N 6.669779062499259E-002 -3.65485371562500 -2.28280046562500 
 N -2.16536320937501 -3.50961071562500 -3.57356346562500 
 N -2.86938420937501 -3.33042571562501 0.246096534374999 
 S -0.695165209375007 -6.90525771562501 -4.12726646562500 
 S -3.67503420937501 -6.30612271562500 -1.34636046562500 
 S -1.24562820937501 -6.89611071562500 -3.977246562500092E-002
 S -0.577849209375008 -3.60488271562501 -3.91698246562500 
 S -3.65144220937501 -3.19141071562500 -1.18835846562500 
 S -1.21767820937501 -3.55441471562500 0.201619534374999 
