16

 C -2.56799371875001 -6.33751620000000 -2.47092851875000 
 C -1.31646371875001 -6.63380320000000 -1.82652351875000 
 C -2.76747371875001 -2.66379520000000 -2.57168851875000 
 C -1.53014471875001 -3.06610720000000 -1.95270351875000 
 N -0.304041718750008 -6.72739020000000 -2.68314351875000 
 N -2.47508971875001 -6.06870920000000 -3.75069651875000 
 N -3.20710971875001 -6.62610820000000 -4.285351875000210E-002
 N -0.515646718750008 -3.16709820000000 -2.82096951875000 
 N -2.70753571875001 -2.46052620000000 -3.93230051875000 
 N -3.23846771875001 -3.10634720000000 -3.145251875000232E-002
 S -0.896284718750008 -6.45474620000000 -4.21168051875000 
 S -3.93629071875001 -6.38280020000000 -1.48777051875000 
 S -1.53890271875001 -6.88871220000000 -8.881251875000196E-002
 S -1.06466471875001 -2.73516820000000 -4.30140151875000 
 S -4.03679371875001 -2.43826020000000 -1.34198651875000 
 S -1.62410771875001 -3.36977320000000 -0.255128518750002 
