16

 C -2.59300183125000 -6.66937618750000 -2.36374258750000 
 C -1.36970083125000 -7.08141418750000 -1.67980258750000 
 C -2.51085083125000 -2.87500418750000 -2.35078058750000 
 C -1.28020383125000 -3.44989918750000 -1.85266558750000 
 N -0.381186831250002 -7.31093018750000 -2.52527458750000 
 N -2.45105583125000 -6.51432318750000 -3.69123058750000 
 N -3.11901983125000 -6.80338518750000 0.148607412499999 
 N -0.338176831250002 -3.65874018750000 -2.71051058750000 
 N -2.41297983125000 -2.64378718750000 -3.65168658750000 
 N -2.90238083125000 -3.31346818750000 0.168093412500000 
 S -0.855814831250002 -6.84749418750000 -4.04883758750000 
 S -3.92220883125000 -6.58227718750000 -1.26984758750000 
 S -1.52637183125000 -7.30578118750000 -1.183358750000041E-002
 S -0.937039831250002 -3.15661618750000 -4.23426858750000 
 S -3.74624883125000 -2.68907618750000 -1.13975058750000 
 S -1.24211483125000 -3.57003318750000 -8.534858750000041E-002
