16

 C -2.12023325312500 -6.77914953750000 -2.48872603437500 
 C -1.01781925312500 -7.36873553750000 -1.79258903437500 
 C -2.57762025312500 -2.61883953750000 -2.59219203437500 
 C -1.34806025312500 -3.05728853750000 -1.87724903437500 
 N -8.405825312500070E-002 -7.73670153750000 -2.63872603437500 
 N -2.07052025312500 -6.74622753750000 -3.84267303437500 
 N -2.74845825312500 -6.64879553750000 3.985296562499974E-002
 N -0.310531253125000 -3.36794253750000 -2.66174303437500 
 N -2.37799425312500 -2.53004653750000 -3.89974303437500 
 N -3.20418125312500 -2.81789853750000 -0.128206034375000 
 S -0.568994253125000 -7.45053753750000 -4.24271803437500 
 S -3.47752025312500 -6.41170253750000 -1.35941903437500 
 S -1.28991625312500 -7.44979553750000 -4.586603437500014E-002
 S -0.937043253125000 -3.18562153750000 -4.22450803437500 
 S -3.93716325312500 -2.41485053750000 -1.55458903437500 
 S -1.49429225312500 -3.09483453750000 -0.100933034375000 
