16

 C -2.23549994375000 -6.65203521250000 -2.56708833125000 
 C -1.01744194375000 -7.00059121250001 -1.92537433125000 
 C -2.50210594375000 -2.53724521250000 -2.51149733125000 
 C -1.30863594375000 -3.11198121250000 -1.98499133125000 
 N -0.103764943749996 -7.44542021250000 -2.80167433125000 
 N -2.26324494375000 -6.77878021250000 -3.88181033125000 
 N -2.64758594375000 -6.44465521250000 -5.262333124999707E-002
 N -0.362970943749996 -3.39095321250000 -2.89321933125000 
 N -2.56974694375000 -2.52679621250000 -3.83481233125000 
 N -2.94447994375000 -2.86000321250000 5.930466875000295E-002
 S -0.800572943749996 -7.35916521250000 -4.29922433125000 
 S -3.57002194375000 -6.27676421250001 -1.47017633125000 
 S -1.10071594375000 -6.92253521250001 -0.229542331249997 
 S -0.977000943749996 -2.96305521250000 -4.35995933125000 
 S -3.69724094375000 -2.21498921250000 -1.29775733125000 
 S -1.45301894375000 -3.43514321250000 -0.263409331249997 
