16

 C -2.50740456874999 -6.29779741562499 -2.41954169687500 
 C -1.29023256874999 -6.88593041562499 -1.82666869687500 
 C -2.65061556874999 -2.93689441562499 -2.40510069687500 
 C -1.47773556874999 -3.43800841562499 -1.69294369687500 
 N -0.409675568749990 -7.30880941562499 -2.75433569687500 
 N -2.47518256874999 -6.19053841562499 -3.72711369687500 
 N -3.05697856874999 -6.60652441562499 9.962030312500070E-002
 N -0.377365568749989 -3.61937441562499 -2.43763169687500 
 N -2.46221456874999 -2.73941841562499 -3.71874669687500 
 N -3.24579256874999 -2.70145941562499 0.117928303125001 
 S -1.04446956874999 -6.82631641562499 -4.21337569687500 
 S -3.81446556874999 -6.08300141562500 -1.29428369687500 
 S -1.47980156874999 -7.31230841562499 -0.120539696874999 
 S -0.920145568749990 -3.26473641562499 -3.98760569687500 
 S -3.96609356874999 -2.41493241562499 -1.36171469687500 
 S -1.73409456874999 -3.37567141562499 1.799930312500053E-002
