16

 C -2.55771959687501 -6.35604904062500 -2.28059126875000 
 C -1.30322659687501 -6.84874104062500 -1.67571926875000 
 C -2.56662859687501 -3.08842004062500 -2.38368426875000 
 C -1.30544159687501 -3.35880104062500 -1.75351626875000 
 N -0.313054596875007 -7.05398804062500 -2.56934726875000 
 N -2.41816859687501 -6.13117304062500 -3.59444026875000 
 N -3.12724259687501 -6.56687904062500 0.277683731250001 
 N -0.267753596875007 -3.42738404062500 -2.59148226875000 
 N -2.50642659687501 -3.05432304062500 -3.70788826875000 
 N -3.07427159687501 -3.11251604062500 0.136876731250001 
 S -0.913971596875007 -6.66668204062500 -4.08000826875000 
 S -3.89991459687501 -6.12015604062500 -1.12252626875000 
 S -1.48046359687501 -7.09782204062500 0.112307731250001 
 S -0.852525596875007 -3.14582604062500 -4.12585426875000 
 S -3.94389959687501 -2.95588504062500 -1.28849326875000 
 S -1.44817959687501 -3.46340304062500 -3.157326874999944E-002
