16

 C -2.29904615000000 -6.47640508750000 -2.48465150625000 
 C -1.06958315000000 -6.71478508750000 -1.74611150625000 
 C -2.59486115000000 -2.72005808750000 -2.51158750625000 
 C -1.36579315000000 -2.98787408750000 -1.75996850625000 
 N -3.644415000000123E-002 -6.89964208750000 -2.54004150625000 
 N -2.17253015000000 -6.44148308750000 -3.80446750625000 
 N -3.07192115000000 -6.44266208750000 -1.480750624999994E-002
 N -0.266040150000001 -3.02043308750000 -2.52926250625000 
 N -2.44549415000000 -2.61679008750000 -3.86094750625000 
 N -3.25130515000000 -2.95993508750000 1.567849375000008E-002
 S -0.588127150000001 -6.80310208750000 -4.16367750625000 
 S -3.75774615000000 -6.18122008750000 -1.54153650625000 
 S -1.46264915000000 -6.82425308750000 1.222849375000012E-002
 S -0.821526150000001 -2.79098408750000 -4.08612850625000 
 S -3.96513915000000 -2.58719708750000 -1.42854950625000 
 S -1.64212015000000 -3.25675408750000 -3.526350624999974E-002
