16

 C -2.14167447187500 -6.18923800625000 -2.12572903750000 
 C -1.03771347187500 -6.79620400625000 -1.50525803750000 
 C -2.39185847187500 -2.64894500625000 -2.61062603750000 
 C -1.16332947187500 -3.04896900625000 -2.02767903750000 
 N 6.175281249962694E-004 -6.94611600625000 -2.31852903750000 
 N -1.97862747187500 -5.92511900625000 -3.39226803750000 
 N -2.82350447187500 -6.57261500625000 0.258064962500001 
 N -0.222410471875004 -3.34181100625000 -2.87550903750000 
 N -2.34164147187500 -2.56763500625000 -3.93076503750000 
 N -3.00075847187500 -3.05371500625000 -0.169302037499999 
 S -0.563314471875003 -6.55457200625000 -3.85231003750000 
 S -3.60806047187500 -6.17577300625000 -1.17308403750000 
 S -1.34699947187500 -7.27136900625000 0.157656962500001 
 S -0.781196471875004 -2.96114000625000 -4.40652703750000 
 S -3.74797647187500 -2.49615000625000 -1.51860803750000 
 S -1.35772647187500 -3.24055600625000 -0.335410037499999 
