16

 C -2.50011202187500 -6.56957312500001 -2.44385831875000 
 C -1.17669402187500 -6.94825012500000 -1.92962331875000 
 C -2.62934402187500 -2.78834712500000 -2.47406531875000 
 C -1.49497702187500 -3.23104012500001 -1.80409731875000 
 N -0.260677021874995 -6.93012212500000 -2.86805731875000 
 N -2.56648002187500 -6.35979112500000 -3.73396531875000 
 N -2.83968002187500 -6.87150712500000 7.570668125000135E-002
 N -0.426618021874996 -3.54314612500001 -2.52472531875000 
 N -2.42157502187500 -2.72954912500000 -3.78260131875000 
 N -3.27930502187500 -2.67632012500000 -8.069531874999858E-002
 S -1.04579102187500 -6.55270112500000 -4.33282531875000 
 S -3.74210602187500 -6.46287812500000 -1.27339131875000 
 S -1.27563902187500 -7.43388812500000 -0.254831318749999 
 S -0.848554021874996 -3.29545612500000 -4.08166531875000 
 S -3.91076502187500 -2.10840112500000 -1.52315831875000 
 S -1.72341702187500 -3.24069412500000 -5.428131874999864E-002
