16

 C -2.31208541562500 -6.35487360937500 -2.34822803750000 
 C -1.08823441562500 -6.76361860937500 -1.72701903750000 
 C -2.52283841562500 -2.73822060937500 -2.44551103750000 
 C -1.44810241562500 -3.41380260937500 -1.76545303750000 
 N -0.151602415625002 -6.94724460937500 -2.66567703750000 
 N -2.36920641562500 -6.11268060937500 -3.67416303750000 
 N -2.92753741562500 -6.68873760937500 0.185152962500002 
 N -0.353043415625002 -3.67903160937500 -2.49488403750000 
 N -2.25315341562500 -2.38057060937500 -3.72465803750000 
 N -3.30925041562500 -2.91193660937500 1.606962500001918E-003
 S -0.803961415625002 -6.48080160937500 -4.14597003750000 
 S -3.66718741562500 -6.48741960937500 -1.27226103750000 
 S -1.31034941562500 -7.15883760937500 -4.654037499998154E-003
 S -0.782559415625003 -3.11092660937500 -4.00371203750000 
 S -4.03502941562500 -2.60686460937500 -1.44670603750000 
 S -1.77569541562500 -3.57147460937500 -2.803503749999803E-002
