16

 C -2.48470819062500 -6.81225550000000 -2.27151609375000 
 C -1.20693119062500 -7.14029150000000 -1.76006309375000 
 C -2.64160119062500 -2.78736350000000 -2.45004109375000 
 C -1.40977919062500 -3.27963750000000 -1.83215409375000 
 N -0.237641190624998 -7.33231050000000 -2.67540409375000 
 N -2.51685319062500 -6.70695250000000 -3.59926209375000 
 N -2.74365019062500 -7.09684450000000 0.363340906250001 
 N -0.396823190624998 -3.52506850000000 -2.66904509375000 
 N -2.48559419062500 -2.43682850000000 -3.71481509375000 
 N -3.13604219062500 -3.22118050000000 0.149318906250002 
 S -1.00896419062500 -7.09553950000000 -4.12412109375000 
 S -3.69966019062500 -6.73513150000000 -0.982603093749998 
 S -1.14954819062500 -7.30353950000000 -1.084809374999840E-002
 S -0.986758190624998 -2.94095350000000 -4.18879409375000 
 S -3.89322119062500 -2.60106050000000 -1.20760009375000 
 S -1.52343319062500 -3.43252250000000 -0.109943093749999 
