16

 C -2.31865994375000 -6.30431103125000 -2.56617198750000 
 C -1.04855894375000 -6.53156303125000 -1.81698198750000 
 C -2.53307494375000 -2.43533703125000 -2.72820798750000 
 C -1.53726294375000 -3.14664403125000 -1.98808998750000 
 N -1.620494374999915E-002 -6.83301403125000 -2.61109498750000 
 N -2.21196294375000 -6.28360303125000 -3.88302298750000 
 N -2.93846494375000 -6.66608503125000 -2.241398749999934E-002
 N -0.354186943749999 -3.20337503125000 -2.57242898750000 
 N -2.16661494375000 -1.98217203125000 -3.91114898750000 
 N -3.41821794375000 -2.63050903125000 -0.343211987499999 
 S -0.643025943749999 -6.64792703125000 -4.14947998750000 
 S -3.72895894375000 -6.39458103125000 -1.53087098750000 
 S -1.32662794375000 -6.74607503125000 -9.538798749999922E-002
 S -0.579469943749999 -2.56875803125000 -4.13741598750000 
 S -3.96745894375000 -2.01173403125000 -1.77018298750000 
 S -1.97178294375000 -3.42550003125000 -0.337934987499999 
