16

 C -2.40281960625000 -6.41110150625001 -2.41054179687500 
 C -1.13977760625000 -6.83439950625001 -1.81456779687500 
 C -2.57112160625000 -2.77388250625001 -2.40058279687500 
 C -1.49123760625000 -3.32441750625001 -1.69931879687500 
 N -9.677660625000062E-002 -6.92583350625001 -2.65201679687500 
 N -2.23652160625000 -6.18505750625001 -3.71040779687500 
 N -2.92750860625000 -6.61255850625001 7.687320312499923E-002
 N -0.447613606250001 -3.55609050625001 -2.46837179687500 
 N -2.32120760625000 -2.47460550625001 -3.67469779687500 
 N -3.37080960625000 -2.96503050625001 2.231020312499932E-002
 S -0.683524606250001 -6.48367550625001 -4.16451179687500 
 S -3.77445260625000 -6.43908550625001 -1.34550279687500 
 S -1.32064160625000 -6.98233650625001 -3.057679687500081E-002
 S -0.764610606250001 -3.00166150625001 -4.02908879687500 
 S -3.96257760625000 -2.61492650625001 -1.47050379687500 
 S -1.78288560625000 -3.51290350625001 1.219420312499930E-002
