16

 C -2.49691633437500 -6.68176064375000 -2.33113364062500 
 C -1.17840833437500 -7.01040164375000 -1.74041264062500 
 C -2.24970033437500 -3.18394464375000 -2.27876164062500 
 C -1.04242833437500 -3.63899064375000 -1.65720964062500 
 N -0.263912334375002 -7.28308464375000 -2.65104464062500 
 N -2.55400533437500 -6.68397864375000 -3.67438464062500 
 N -2.87900133437500 -6.77464164375000 0.222617359375000 
 N -4.490833437500186E-002 -3.90611064375000 -2.48293764062500 
 N -2.12602533437500 -2.95672364375000 -3.61899964062500 
 N -2.74262233437500 -3.37354464375000 0.206517359375000 
 S -1.01746333437500 -6.98513764375000 -4.14782364062500 
 S -3.73460133437500 -6.38882764375000 -1.15379564062500 
 S -1.25752033437500 -7.09102964375000 -7.883640624999799E-003
 S -0.619900334375002 -3.46315164375000 -4.10776264062500 
 S -3.53766033437500 -2.93395664375000 -1.16319564062500 
 S -1.14627633437500 -3.78231164375000 6.018835937500033E-002
