16

 C -2.31737063125000 -6.53194465312500 -2.33997445625000 
 C -1.15451063125000 -7.10484565312500 -1.77364345625000 
 C -2.47524163125000 -2.79376065312500 -2.27933945625000 
 C -1.14663663125000 -3.18005565312500 -1.68707545625000 
 N -0.117652631249997 -7.34524865312500 -2.59548445625000 
 N -2.21391463125000 -6.38371465312500 -3.66266545625000 
 N -2.78951663125000 -6.62796165312500 0.163379543750000 
 N -0.212765631249997 -3.41061765312500 -2.58376045625000 
 N -2.44008163125000 -2.68244065312500 -3.58351945625000 
 N -2.85228863125000 -2.90362165312500 0.265630543750000 
 S -0.683874631249997 -6.78331065312500 -4.11149645625000 
 S -3.61154163125000 -6.36413465312500 -1.26534645625000 
 S -1.34865163125000 -7.30777365312500 -1.586745624999986E-002
 S -0.986281631249997 -3.29907665312500 -4.12008445625000 
 S -3.83429263125000 -2.75581165312500 -1.11071345625000 
 S -1.20522963125000 -3.15703765312500 7.210354375000017E-002
