16

 C -2.37599807187500 -6.32792207812500 -2.57479566562500 
 C -1.15104607187500 -6.68038007812500 -1.84800466562500 
 C -2.39348007187500 -2.77066407812500 -2.60896166562500 
 C -1.15864307187500 -3.11781807812500 -1.94932266562500 
 N -0.108419071875000 -6.93107007812500 -2.63386766562500 
 N -2.21922207187500 -6.28009207812500 -3.88251866562500 
 N -3.04474707187500 -6.30853707812500 -9.198866562500085E-002
 N -0.129585071875000 -3.25357707812500 -2.76412666562500 
 N -2.30088707187500 -2.57896207812500 -3.92645566562500 
 N -2.87927707187500 -2.97712507812500 -6.118966562500083E-002
 S -0.604529071875000 -6.61801807812500 -4.24133966562500 
 S -3.85597907187500 -6.22340007812500 -1.58116666562500 
 S -1.49908607187500 -6.84233607812500 -0.104019665625001 
 S -0.731089071874999 -2.83869907812500 -4.29908866562500 
 S -3.72467407187500 -2.55815807812500 -1.43814466562500 
 S -1.22664407187500 -3.23835907812500 -0.177499665625001 
