16

 C -2.46186783437500 -6.79909797500001 -2.21229371875000 
 C -1.18462383437500 -7.13152697500001 -1.65818271875000 
 C -2.59820583437500 -2.76084797500001 -2.38770371875000 
 C -1.35877783437500 -3.31353197500001 -1.83196271875000 
 N -0.212297834375004 -7.30754897500001 -2.54451771875000 
 N -2.49770583437500 -6.72559897500001 -3.52478171875000 
 N -2.81209083437500 -7.12621497500001 0.270202281250001 
 N -0.390599834375005 -3.39941397500001 -2.72506171875000 
 N -2.59176183437500 -2.55232197500001 -3.68502671875000 
 N -3.00890683437500 -3.02605997500001 6.283828125000079E-002
 S -0.926550834375004 -7.06507997500001 -4.04180771875000 
 S -3.76577083437500 -6.66139197500001 -0.993747718749999 
 S -1.13495783437500 -7.33149497500001 4.564028125000097E-002
 S -0.985936834375004 -2.92607597500001 -4.13742071875000 
 S -3.86869483437500 -2.53719897500001 -1.24671471875000 
 S -1.37642283437500 -3.44907297500001 -7.905271874999897E-002
