16

 C -2.35861783125000 -6.84858179687500 -2.38958272812500 
 C -1.01719883125000 -6.98646379687500 -1.87982372812500 
 C -2.52417783125000 -2.69227879687500 -2.38319572812500 
 C -1.37054983125000 -3.31018979687500 -1.72654972812500 
 N -0.106359831249995 -7.00914779687500 -2.82197872812500 
 N -2.51037883125000 -6.60625879687500 -3.68406172812500 
 N -2.60576983125000 -7.04530879687500 0.192340271875000 
 N -0.337380831249996 -3.59152679687500 -2.51637372812500 
 N -2.30602183125000 -2.53823579687500 -3.68122072812500 
 N -3.20849183125000 -2.98288279687500 4.217227187500039E-002
 S -0.937522831249995 -6.68202879687500 -4.29162672812500 
 S -3.58077183125000 -6.77979079687500 -1.14027572812500 
 S -1.00056483125000 -7.02815979687500 -0.148650728125000 
 S -0.727475831249996 -3.07976379687500 -4.05031372812500 
 S -3.89434083125000 -2.52474479687500 -1.41000372812500 
 S -1.63957083125000 -3.40833079687500 -3.641872812499947E-002
