16

 C -2.39015274374999 -6.66335189375000 -2.46339758125000 
 C -1.10538074374999 -7.02117189375000 -1.96920358125000 
 C -2.46789774374999 -2.93257589375000 -2.46640658125000 
 C -1.30759274374999 -3.53824189375000 -1.76575058125000 
 N -0.155778743749995 -7.02683989375000 -2.90356958125000 
 N -2.47960974374999 -6.39027089375000 -3.77378958125000 
 N -2.76219074374999 -7.22756189375000 5.276041875000081E-002
 N -0.247847743749994 -3.78266189375000 -2.53848758125000 
 N -2.24346074374999 -2.65623189375000 -3.76766358125000 
 N -3.20251474374999 -3.09671889375000 -1.614658124999924E-002
 S -0.970365743749994 -6.67637389375000 -4.29597558125000 
 S -3.60942474374999 -6.73502689375000 -1.25387358125000 
 S -1.10087174374999 -7.34285789375000 -0.257412581249999 
 S -0.745905743749995 -3.22642689375000 -4.08305858125000 
 S -3.80568674374999 -2.67412589375000 -1.47263758125000 
 S -1.62259374374999 -3.70890489375000 -9.720558124999901E-002
