16

 C -2.50297394062500 -6.79135689062501 -2.42467489062500 
 C -1.20077394062500 -7.10797289062501 -1.96369589062500 
 C -2.57326094062500 -2.90468589062501 -2.45564289062500 
 C -1.39622094062500 -3.37508589062501 -1.78238489062500 
 N -0.268452940624999 -7.15993289062501 -2.90220789062500 
 N -2.57079794062500 -6.61908789062501 -3.76657389062500 
 N -2.62888194062500 -6.99954189062501 0.229232109374999 
 N -0.311874940624999 -3.53661889062501 -2.53583489062500 
 N -2.37930694062500 -2.73918889062501 -3.78496589062500 
 N -3.24791994062500 -3.17199289062501 5.621910937499952E-002
 S -1.02081994062500 -6.83564889062501 -4.31207389062500 
 S -3.61724794062500 -6.78627289062501 -1.06409989062500 
 S -1.04014694062500 -7.37051989062501 -0.216900890625001 
 S -0.808413940624999 -3.10270989062501 -4.14888489062500 
 S -3.91531694062500 -2.57246689062501 -1.34655089062500 
 S -1.66594794062500 -3.72239389062501 -9.784789062500043E-002
