16

 C -2.32965970625000 -6.39339553437500 -2.52932451875000 
 C -1.15937670625000 -6.68025753437500 -1.71839351875000 
 C -2.57126670625000 -2.71692653437500 -2.55684851875000 
 C -1.32872870625000 -3.02498953437500 -1.88491251875000 
 N -0.147772706250000 -7.12713953437500 -2.43717051875000 
 N -2.16915970625000 -6.44308753437500 -3.84648451875000 
 N -2.96174270625000 -6.42175953437500 6.910481250001821E-003
 N -0.243586706250001 -3.05061553437500 -2.65179351875000 
 N -2.46116170625000 -2.44879253437500 -3.88019951875000 
 N -3.15624870625000 -2.83879053437500 -2.659051874999818E-002
 S -0.571031706250001 -6.93445453437500 -4.01523351875000 
 S -3.71314270625000 -6.07751953437500 -1.46290351875000 
 S -1.37787070625000 -6.82137353437500 -5.528851874999829E-002
 S -0.871976706250001 -2.77466653437500 -4.16523551875000 
 S -3.95725970625000 -2.72248253437500 -1.47967451875000 
 S -1.51536170625000 -3.10204153437500 -0.132696518749998 
