16

 C -2.41850844687500 -6.59578818750000 -2.48490281875000 
 C -1.15455344687500 -6.98377318750000 -1.94248181875000 
 C -2.40279844687500 -2.87615918750000 -2.45652881875000 
 C -1.29133544687500 -3.56446318750000 -1.77112481875000 
 N -0.179163446875001 -7.06922718750000 -2.84125981875000 
 N -2.35440044687500 -6.31984218750000 -3.78207981875000 
 N -2.77658044687500 -7.18585518750000 1.911618124999803E-002
 N -0.302341446875001 -3.84269718750000 -2.62540281875000 
 N -2.13592444687500 -2.69746618750000 -3.76176981875000 
 N -3.12408144687500 -3.14598318750000 -1.504681875000191E-002
 S -0.752009446875001 -6.59826718750000 -4.31489181875000 
 S -3.70310544687500 -6.71011218750000 -1.27681181875000 
 S -1.14171344687500 -7.35724418750000 -0.218688818750002 
 S -0.635046446875001 -3.28276418750000 -4.16477681875000 
 S -3.83285444687500 -2.69769318750000 -1.47090781875000 
 S -1.57813644687500 -3.69723418750000 -3.426581875000223E-002
