16

 C -2.58992058437501 -6.33298076562500 -2.26508849375000 
 C -1.38662458437501 -6.99149676562500 -1.72288949375000 
 C -2.34146758437501 -2.55128276562500 -2.44174449375000 
 C -1.19739858437501 -3.20361176562500 -1.87964449375000 
 N -0.432060584375005 -7.16334976562500 -2.65047149375000 
 N -2.53950058437500 -5.97587676562500 -3.56372749375000 
 N -3.12515758437501 -6.69634476562500 0.243962506250001 
 N -0.147105584375005 -3.39156876562500 -2.64543349375000 
 N -2.13580758437501 -2.29348976562500 -3.75223549375000 
 N -2.91025858437501 -2.94591576562500 2.130550625000094E-002
 S -1.08042958437500 -6.50938976562500 -4.06589949375000 
 S -3.90459658437501 -6.11273576562500 -1.11417949375000 
 S -1.54258858437501 -7.24902676562500 -2.286649374999916E-002
 S -0.645234584375005 -2.76735276562500 -4.20957649375000 
 S -3.69246958437501 -2.34082376562500 -1.34679049375000 
 S -1.27586058437501 -3.32948776562500 -0.156868493749999 
