16

 C -2.54800099687500 -6.19602744062501 -2.26222186562500 
 C -1.39856199687500 -6.89025644062501 -1.70519886562500 
 C -2.26027299687500 -2.32085044062501 -2.50184686562500 
 C -1.07615899687500 -2.89181944062501 -1.88343586562500 
 N -0.408252996874997 -7.18671844062501 -2.58242886562500 
 N -2.40111699687500 -6.02592844062501 -3.58817986562500 
 N -3.13708099687500 -6.68679544062501 0.208605134375001 
 N -3.497599687499697E-002 -3.06301844062501 -2.69423686562500 
 N -2.19927199687500 -2.22402244062501 -3.78597686562500 
 N -2.88461199687500 -2.52904344062501 -7.488656249985404E-004
 S -0.877256996874997 -6.55379044062501 -4.00561286562500 
 S -3.88650399687500 -6.04883244062501 -1.14670986562500 
 S -1.56253799687500 -7.22652144062501 -2.805986562499863E-002
 S -0.685951996874997 -2.70909444062501 -4.25482386562500 
 S -3.57791299687500 -1.97149644062501 -1.41813886562500 
 S -1.35628199687500 -3.22569444062501 -0.152294865624998 
