16

 C -2.31689482500000 -6.15644930937500 -2.03265867187500 
 C -1.04134982500000 -6.67869030937500 -1.56573267187500 
 C -2.37452082500000 -2.67678230937500 -2.39568767187500 
 C -1.20182482500000 -3.14028630937500 -1.64642367187500 
 N -3.797182499999963E-002 -6.78005030937500 -2.43530167187500 
 N -2.27665182500000 -5.86896530937500 -3.31645367187500 
 N -2.68899882500000 -6.73817530937500 0.440260328124999 
 N -0.144315825000000 -3.33348830937500 -2.42351167187500 
 N -2.20130282500000 -2.73715730937500 -3.72796367187500 
 N -3.10319482500000 -2.74207230937500 0.108319328124999 
 S -0.765411824999999 -6.36312330937500 -3.90254067187500 
 S -3.56430682500000 -6.14202330937500 -0.857398671875001 
 S -1.16535182500000 -7.25976530937500 6.586132812499890E-002
 S -0.616438824999999 -3.09743730937500 -4.04141767187500 
 S -3.74997482500000 -2.33300230937500 -1.38054867187500 
 S -1.54952682500000 -3.41505730937500 7.634732812499889E-002
