16

 C -2.51331786875000 -6.44864116875000 -2.54154790312500 
 C -1.34098786875000 -6.79560716875000 -1.78137990312500 
 C -2.41481886875000 -2.86042416875000 -2.41470990312500 
 C -1.23349786875000 -3.22850116875000 -1.72015290312500 
 N -0.220342868750000 -7.06339516875000 -2.44734390312500 
 N -2.30086586875000 -6.46018416875000 -3.83992790312500 
 N -3.26192586875000 -6.24172216875000 -5.769490312500158E-002
 N -0.171278868750001 -3.30118916875000 -2.49300390312500 
 N -2.30220986875000 -2.74522216875000 -3.74830190312500 
 N -2.98270586875000 -2.93928616875000 0.110639096874998 
 S -0.673691868750001 -6.84278416875000 -4.07569390312500 
 S -3.89715086875000 -5.99899616875000 -1.63587390312500 
 S -1.70768186875000 -6.70391716875000 -3.027790312500156E-002
 S -0.670426868750001 -3.17185916875000 -4.00537090312500 
 S -3.74349886875000 -2.49125816875000 -1.28637190312500 
 S -1.44933886875000 -3.50472916875000 -2.720290312500162E-002
