16

 C -2.45678617187500 -6.34815274062500 -2.42323321562500 
 C -1.25650417187500 -6.93053274062500 -1.78293721562500 
 C -2.67133017187500 -2.88323674062500 -2.43210421562500 
 C -1.50287117187500 -3.45348274062500 -1.71697321562500 
 N -0.397795171875003 -7.34241474062500 -2.72817421562500 
 N -2.46359317187500 -6.20273574062500 -3.77231021562500 
 N -3.05143317187500 -6.60175774062500 0.146370784375000 
 N -0.425889171875004 -3.63779974062500 -2.46698821562500 
 N -2.42919317187500 -2.68682574062500 -3.71882821562500 
 N -3.21739317187500 -2.69787374062500 0.121610784375000 
 S -1.02314617187500 -6.87028974062500 -4.20661621562500 
 S -3.84135617187500 -6.08966174062500 -1.30314021562500 
 S -1.50253717187500 -7.31448574062500 -6.632121562500037E-002
 S -0.908269171875004 -3.20917274062500 -4.01109821562500 
 S -3.94164717187500 -2.40789974062500 -1.36424821562500 
 S -1.70973017187500 -3.35608574062500 3.271878437499942E-002
