16

 C -2.34887686875000 -6.63384210937500 -2.20730329375000 
 C -1.07498186875000 -7.03592410937500 -1.62590029375000 
 C -2.38807386875000 -2.84046910937500 -2.45597429375000 
 C -1.15215286875000 -3.11418110937500 -1.70009429375000 
 N -7.879186874999800E-002 -7.10441210937500 -2.52142829375000 
 N -2.27019586875000 -6.34482310937500 -3.48890929375000 
 N -2.92721286875000 -6.97590610937500 0.225692706249999 
 N -0.140308868749998 -3.33121010937500 -2.55571529375000 
 N -2.16083286875000 -2.69310010937500 -3.75904829375000 
 N -3.10193486875000 -3.01802710937500 4.358470624999922E-002
 S -0.698596868749997 -6.70382010937500 -4.04312929375000 
 S -3.75335986875000 -6.68939110937500 -1.15582129375000 
 S -1.24867686875000 -7.32499310937500 0.108774706249999 
 S -0.601881868749998 -3.08762610937500 -4.14237329375000 
 S -3.75095686875000 -2.60882210937500 -1.43088829375000 
 S -1.39606586875000 -3.11563310937500 4.775270624999917E-002
