16

 C -2.31904859062499 -6.49783522812500 -2.53262021250000 
 C -1.05934759062499 -6.75906322812500 -1.83142921250000 
 C -2.39823059062499 -3.26752222812500 -2.10937421250000 
 C -1.10212759062500 -3.41561522812500 -1.58043321250000 
 N -7.040259062499477E-002 -6.91474622812500 -2.68867421250000 
 N -2.26994559062500 -6.45684622812500 -3.86082021250000 
 N -2.96718159062500 -6.55156822812500 -1.710521249999775E-002
 N -0.122457590624995 -3.51948922812500 -2.47914721250000 
 N -2.49128959062500 -3.19817122812500 -3.45886721250000 
 N -2.78117259062499 -3.60964322812500 0.424354787500002 
 S -0.653878590624995 -6.70461322812500 -4.23776221250000 
 S -3.74103559062500 -6.25607122812500 -1.42637821250000 
 S -1.31565959062500 -6.82104722812500 -7.974721249999783E-002
 S -0.891945590624995 -3.38007222812500 -3.93704521250000 
 S -3.69179759062500 -3.35989322812500 -0.926780212499998 
 S -1.13605759062500 -3.66369022812500 0.206363787500002 
