16

 C -2.38822698125000 -6.64086772500000 -2.28712105312500 
 C -1.14623198125000 -6.96895772500000 -1.69841805312500 
 C -2.60323398125000 -3.15489872500000 -2.04804505312500 
 C -1.35458698125000 -3.48041172500000 -1.36869105312500 
 N -0.183201981249998 -7.08469372500000 -2.57823005312500 
 N -2.36727898125000 -6.47475372500000 -3.57896605312500 
 N -2.89406698125000 -6.89374972500000 0.191223946874998 
 N -0.294690981249999 -3.61545572500000 -2.13689805312500 
 N -2.50228098125000 -3.10523372500000 -3.35659805312500 
 N -3.23885198125000 -3.33117372500000 0.441744946874998 
 S -0.814338981249998 -6.64880272500000 -4.06021305312500 
 S -3.73259898125000 -6.46212472500000 -1.19815005312500 
 S -1.27999398125000 -7.18322372500000 -3.039205312500215E-002
 S -0.886454981249998 -3.23153072500000 -3.67311405312500 
 S -3.95957398125000 -3.16478572500000 -1.04587905312500 
 S -1.57020498125000 -3.58188372500000 0.363062946874998 
