16

 C -2.36664611249999 -6.94372523750000 -2.41473189687500 
 C -1.15904111250000 -7.34692323750000 -1.73050289687500 
 C -2.81889611249999 -2.94614623750000 -2.32469589687500 
 C -1.72100611250000 -3.57497623750000 -1.75224789687500 
 N -4.345411249999565E-002 -7.53833223750000 -2.43512389687500 
 N -2.12323711249999 -6.80953823750000 -3.71310989687500 
 N -2.95709311249999 -6.80042823750000 0.110210103124998 
 N -0.789806112499995 -3.93070023750000 -2.61994189687500 
 N -2.78088211250000 -2.82745223750000 -3.64484489687500 
 N -3.41002011249999 -3.20636823750000 0.165137103124998 
 S -0.521507112499995 -7.10093323750000 -3.99874289687500 
 S -3.68658811249999 -6.50111123750000 -1.39984989687500 
 S -1.41802711249999 -7.35163023750000 5.015910312499816E-002
 S -1.29091911249999 -3.43199823750000 -4.06898689687500 
 S -4.13531311250000 -2.60269123750000 -1.20091789687500 
 S -1.85912311249999 -3.76195923750000 -0.102175896875002 
