16

 C -2.34607919062500 -6.06152648750000 -2.34536691875000 
 C -1.19165219062500 -6.79883548750000 -1.79138491875000 
 C -2.72664019062500 -2.44817648750000 -2.72398991875000 
 C -1.46532319062500 -2.85316448750000 -2.08270591875000 
 N -0.298289190625002 -7.14872448750000 -2.73300591875000 
 N -2.35795319062500 -5.88322948750000 -3.67467091875000 
 N -2.70669919062500 -6.36660848750000 0.194475081249999 
 N -0.429282190625002 -3.12169648750000 -2.89091791875000 
 N -2.59533719062500 -2.39059948750000 -4.04103891875000 
 N -3.09695119062500 -2.41572948750000 -0.178759918750002 
 S -0.936136190625001 -6.55452048750000 -4.17212991875000 
 S -3.56206619062500 -5.75038348750000 -1.10719991875000 
 S -1.25169019062500 -7.09807348750000 -0.106794918750001 
 S -1.04790319062500 -2.78768448750000 -4.43239691875000 
 S -4.00518319062500 -2.09934548750000 -1.54083691875000 
 S -1.52684419062500 -2.89526548750000 -0.330578918750001 
