16

 C -2.36655530625000 -6.52657160312500 -2.50460528125000 
 C -1.26662330625000 -7.02363660312500 -1.70843128125000 
 C -2.38795230625000 -2.84963260312500 -2.54887828125000 
 C -1.13591930625000 -3.37790660312500 -1.88767728125000 
 N -0.123103306250001 -7.20731860312500 -2.36349928125000 
 N -2.11729230625000 -6.39800260312500 -3.82672128125000 
 N -3.15746530625000 -6.82276460312500 -2.572428124999826E-002
 N -5.860730625000077E-002 -3.47416460312500 -2.62822028125000 
 N -2.21849830625000 -2.66361360312500 -3.85836628125000 
 N -2.92716830625000 -3.09720860312500 -6.580428124999838E-002
 S -0.552342306250001 -6.92348260312500 -3.95048728125000 
 S -3.78577530625000 -6.25297960312500 -1.49357228125000 
 S -1.60245430625000 -7.30287860312500 -5.578428124999846E-002
 S -0.643971306250001 -3.09136060312500 -4.15379028125000 
 S -3.74024830625000 -2.68413860312500 -1.50330128125000 
 S -1.37650130625000 -3.64457860312500 -0.195662281249998 
