16

 C -2.38611902500000 -6.61865657500000 -2.46063100312500 
 C -1.17142602500000 -6.99935557500000 -1.81425600312500 
 C -2.62626502500000 -2.91806757500000 -2.27715900312500 
 C -1.32201602500000 -3.37851757500000 -1.69607100312500 
 N -0.120871025000000 -7.19527157500000 -2.65026600312500 
 N -2.37815002500000 -6.68533657500000 -3.83244900312500 
 N -2.91200202500000 -6.80448857500000 0.111900996875001 
 N -0.342449025000001 -3.49623157500000 -2.57172600312500 
 N -2.55328802500000 -2.70110057500000 -3.57943300312500 
 N -2.98092102500000 -3.11470457500000 0.269528996875001 
 S -0.799756025000001 -6.99126257500000 -4.16226600312500 
 S -3.69151502500000 -6.41210957500000 -1.23678400312500 
 S -1.32268002500000 -7.20661657500000 -0.111237003124999 
 S -0.974021025000001 -3.00404657500000 -4.08458300312500 
 S -3.81128602500000 -2.47429357500000 -1.02669900312500 
 S -1.29541002500000 -3.36112157500000 0.111129996875001 
