16

 C -2.50115644374999 -6.40866998437500 -2.54661024375000 
 C -1.32372244375000 -6.76765798437500 -1.80669024375000 
 C -2.40835344374999 -2.85895498437500 -2.43712924375000 
 C -1.22981344375000 -3.21711798437500 -1.69719824375000 
 N -0.188158443749995 -7.05683798437500 -2.47136524375000 
 N -2.25681644374999 -6.46994698437500 -3.86652524375000 
 N -3.28231944375000 -6.27172798437500 -6.305824374999891E-002
 N -0.172851443749995 -3.33737898437500 -2.48633624375000 
 N -2.27468544374999 -2.68609898437500 -3.76014724375000 
 N -2.97049344375000 -2.93054498437500 0.124038756250001 
 S -0.652535443749995 -6.82792898437500 -4.06929124375000 
 S -3.90998144375000 -6.02664198437500 -1.62639824375000 
 S -1.70435644374999 -6.71468598437500 -2.080124374999892E-002
 S -0.688660443749995 -3.15632998437500 -4.02303724375000 
 S -3.70623244374999 -2.46258298437500 -1.30902024375000 
 S -1.46064044374999 -3.49271098437500 -2.280124374999892E-002
