16

 C -2.15121241562500 -6.17031562812500 -2.12875970937500 
 C -1.03021741562500 -6.83889362812500 -1.48283470937500 
 C -2.39604741562500 -2.64540062812500 -2.61881870937500 
 C -1.19141341562500 -3.05215262812500 -2.01417570937500 
 N -1.732741562499562E-002 -6.92049662812500 -2.30412470937500 
 N -2.00967841562500 -5.90908662812500 -3.40750370937500 
 N -2.83154441562500 -6.59483062812500 0.269357290624999 
 N -0.233173415624996 -3.37388862812500 -2.87114470937500 
 N -2.31282941562500 -2.57866862812500 -3.93231870937500 
 N -2.97200241562500 -3.03038562812500 -0.167847709375001 
 S -0.546147415624996 -6.53359762812500 -3.84058870937500 
 S -3.62691841562500 -6.20741862812500 -1.14882570937500 
 S -1.32088141562500 -7.29957962812500 0.136839290624999 
 S -0.750956415624996 -2.98731462812500 -4.41321170937500 
 S -3.73045341562500 -2.49761862812500 -1.53631970937500 
 S -1.35595141562500 -3.22753662812500 -0.320910709375001 
