16

 C -2.25213268749999 -6.80315116562500 -2.41744436875000 
 C -1.12720768749999 -7.44232716562500 -1.77651636875000 
 C -2.54401068749999 -2.64240016562500 -2.58263836875000 
 C -1.37287568749999 -3.02768416562500 -1.87151736875000 
 N -0.178621687499993 -7.78257016562500 -2.63240636875000 
 N -2.11273568749999 -6.62519616562500 -3.71494036875000 
 N -2.73386768749999 -6.91631516562500 4.291563125000075E-002
 N -0.300579687499993 -3.35772116562500 -2.61205836875000 
 N -2.45230068749999 -2.82255316562500 -3.89545236875000 
 N -3.34863368749999 -2.84896816562500 -0.119254368749999 
 S -0.636369687499993 -7.23819416562500 -4.08877736875000 
 S -3.54091168749999 -6.36504716562500 -1.32330536875000 
 S -1.17492468749999 -7.60426216562500 -0.102449368749999 
 S -0.856777687499993 -3.16879516562500 -4.18633436875000 
 S -3.94416868749999 -2.39698316562500 -1.56723436875000 
 S -1.68269368749999 -3.07481316562500 -0.152314368749999 
