16

 C -2.42321405000001 -6.83478588124999 -2.17980254375000 
 C -1.12848405000001 -7.20014688124999 -1.60758154375000 
 C -2.48030405000001 -2.80859988124999 -2.42457654375000 
 C -1.26191705000001 -3.24204388124999 -1.84291454375000 
 N -9.794705000000548E-002 -7.24838088124999 -2.48475754375000 
 N -2.36314305000001 -6.63178988124999 -3.48430954375000 
 N -2.87569005000001 -6.98613088124999 0.348294456250001 
 N -0.244390050000006 -3.27959688124999 -2.70745254375000 
 N -2.51800705000001 -2.66281788124999 -3.75201354375000 
 N -2.92335405000001 -2.91000688124999 0.151883456250001 
 S -0.805944050000006 -6.89668488124999 -3.99734954375000 
 S -3.73514105000001 -6.65097588124999 -1.01509054375000 
 S -1.24403005000001 -7.36474288124999 0.159947456250001 
 S -0.880171050000006 -2.97998088124999 -4.20629754375000 
 S -3.77609705000001 -2.56568988124999 -1.21934354375000 
 S -1.36028905000001 -3.35102288124999 -4.547854374999893E-002
