16

 C -2.44699224375000 -6.22731633437500 -2.39168160937500 
 C -1.28217224375000 -6.91387533437500 -1.85973160937500 
 C -2.59116924375000 -2.41447833437500 -2.63575960937500 
 C -1.39012124375000 -2.89636233437500 -2.01882060937500 
 N -0.378624243750000 -7.14064133437500 -2.79673760937500 
 N -2.41272424375000 -5.94080733437500 -3.70289760937500 
 N -2.85295224375000 -6.30961733437500 0.169772390624999 
 N -0.365032243750000 -3.08764333437500 -2.78402860937500 
 N -2.53040824375000 -2.43004833437500 -3.94605460937500 
 N -3.08423524375000 -2.48612733437500 -0.108504609375002 
 S -0.994128243750000 -6.57329133437500 -4.24916160937500 
 S -3.62531024375000 -5.77817033437500 -1.17930760937500 
 S -1.38600224375000 -7.08680833437500 -0.128302609375001 
 S -0.996234243750000 -2.88170133437500 -4.39202760937500 
 S -3.80915624375000 -2.06476133437500 -1.51640460937500 
 S -1.51172524375000 -2.94941933437500 -0.281694609375001 
