16

 C -2.35896671874999 -6.53369741562500 -2.40148515312500 
 C -1.19867271874999 -7.13753641562500 -1.76690315312500 
 C -2.66369271874999 -2.77805241562500 -2.58686215312500 
 C -1.51640471874999 -3.31897941562500 -1.87184515312500 
 N -0.271029718749992 -7.39649441562500 -2.69254915312500 
 N -2.31420371874999 -6.32948541562500 -3.69754815312500 
 N -2.90045371874999 -6.98805841562500 0.143561846875000 
 N -0.429709718749992 -3.53632741562500 -2.60577415312500 
 N -2.42017671874999 -2.64005841562500 -3.88542415312500 
 N -3.42828371874999 -2.78693841562500 -8.576215312500035E-002
 S -0.796850718749992 -6.87658841562500 -4.15766715312500 
 S -3.68085371874999 -6.43410741562500 -1.21034415312500 
 S -1.33893671874999 -7.70876241562500 -0.176500153125001 
 S -0.868869718749992 -3.14805041562500 -4.19483215312500 
 S -4.13416371874999 -2.56491641562500 -1.58745415312500 
 S -1.86022071874999 -3.40886341562500 -8.651815312500055E-002
