16

 C -2.58536156874999 -6.23405873437501 -2.40721125625000 
 C -1.45708356874999 -6.80993273437501 -1.71986425625000 
 C -2.48016756874999 -3.09950973437501 -2.34278825625000 
 C -1.19158356874999 -3.21095173437501 -1.74572725625000 
 N -0.491876568749990 -7.27794673437501 -2.50943425625000 
 N -2.49143256874999 -6.19710973437501 -3.74217025625000 
 N -3.22216556874999 -6.35614173437501 6.627374375000139E-002
 N -0.185299568749990 -3.44265173437501 -2.61001925625000 
 N -2.43383256874999 -2.97775973437501 -3.66009825625000 
 N -2.97797556874999 -3.08173173437501 0.162366743750001 
 S -1.09512756874999 -7.07854473437501 -4.05858025625000 
 S -3.92293056874999 -5.93146373437501 -1.36939825625000 
 S -1.61781756874999 -6.80062773437501 1.054474375000147E-002
 S -0.834065568749990 -3.18928973437501 -4.09003125625000 
 S -3.85375056874999 -3.21328173437501 -1.21594525625000 
 S -1.25545056874999 -3.25232673437501 -3.021256249998494E-003
