16

 C -2.52200864375000 -6.31556623437500 -2.28304249375000 
 C -1.34381764375000 -6.91247523437500 -1.66582349375000 
 C -2.29062864375000 -2.32792923437500 -2.49873349375000 
 C -1.09298564375000 -2.77086523437500 -1.86267549375000 
 N -0.299556643750003 -7.08918423437500 -2.48601949375000 
 N -2.34600764375000 -6.00318223437500 -3.56061549375000 
 N -3.14550964375000 -6.68085423437500 0.144602506250002 
 N -0.112116643750004 -3.00699323437500 -2.73406749375000 
 N -2.21199864375000 -2.23050323437500 -3.82160949375000 
 N -2.86256264375000 -2.47056623437500 -1.103949374999802E-002
 S -0.843730643750003 -6.57345423437500 -4.01663849375000 
 S -3.80608664375000 -5.99596523437500 -1.21417849375000 
 S -1.58437064375000 -7.21998423437500 2.927150625000197E-002
 S -0.660383643750004 -2.71432823437500 -4.23626349375000 
 S -3.61149564375000 -1.85095623437500 -1.37488949375000 
 S -1.37402064375000 -3.15532523437500 -0.189549493749998 
