16

 C -2.51484197500000 -6.23656050000000 -2.49631744687500 
 C -1.39857597500000 -7.03461449999999 -1.99473244687500 
 C -2.57167997500000 -2.69809850000000 -2.44306844687500 
 C -1.36743197500000 -3.16557750000000 -1.76604244687500 
 N -0.492748974999995 -7.22541050000000 -2.91712544687500 
 N -2.44261597500000 -5.88795149999999 -3.79829844687500 
 N -3.06934197500000 -6.90073749999999 -1.764144687499813E-002
 N -0.296209974999996 -3.34919650000000 -2.55109044687500 
 N -2.37220197500000 -2.45450649999999 -3.71980544687500 
 N -3.12944697500000 -2.83838150000000 5.197855312500188E-002
 S -0.962277974999996 -6.46654550000000 -4.30110644687500 
 S -3.81347897500000 -6.03196850000000 -1.27544744687500 
 S -1.60615997500000 -7.60549649999999 -0.414090446874998 
 S -0.839330974999996 -2.93440449999999 -4.12365244687500 
 S -3.76169597500000 -2.22197649999999 -1.31897044687500 
 S -1.56474197500000 -3.48654350000000 -7.681944687499809E-002
