16

 C -2.40763851875000 -6.54897812187500 -2.24785808437500 
 C -1.10985151875000 -6.95565012187500 -1.64460508437500 
 C -2.36320151875000 -2.60883712187500 -2.46800808437500 
 C -1.13102351875000 -3.17922812187500 -2.01053108437500 
 N -0.107348518749998 -7.11035612187500 -2.52431908437500 
 N -2.24946351875000 -6.32207912187500 -3.53049308437500 
 N -2.85673051875000 -6.66269612187500 0.244578915625000 
 N -0.258359518749997 -3.38594212187500 -3.00494208437500 
 N -2.38971751875000 -2.36830412187500 -3.77687808437500 
 N -2.66846851875000 -3.08035212187500 8.017891562499968E-002
 S -0.707405518749997 -6.63724312187500 -4.02247508437500 
 S -3.75995851875000 -6.56063312187500 -1.11699108437500 
 S -1.25432551875000 -7.13337312187500 0.123340915625000 
 S -0.848324518749997 -2.84850512187500 -4.43623808437500 
 S -3.58245651875000 -2.39767112187500 -1.21771108437500 
 S -1.07044351875000 -3.50208512187500 -0.316101084375000 
