16

 C -2.52738531562500 -6.28615030937500 -2.48538115312500 
 C -1.30262531562500 -6.58987530937500 -1.80056115312500 
 C -2.77858931562500 -2.61011530937500 -2.56915915312500 
 C -1.51942631562500 -3.01764830937500 -1.99782615312500 
 N -0.253284315625002 -6.71763230937500 -2.61093115312500 
 N -2.47373231562500 -6.22158130937500 -3.80702415312500 
 N -3.12097431562500 -6.56502730937500 4.116584687500002E-002
 N -0.474182315625002 -3.03637130937500 -2.84949415312500 
 N -2.68499931562500 -2.50449430937500 -3.88147815312500 
 N -3.18089831562500 -3.12492030937500 -8.038515312499994E-002
 S -0.880162315625003 -6.40623630937500 -4.14391115312500 
 S -3.95790331562500 -6.44179830937500 -1.43216415312500 
 S -1.51795731562500 -6.90074230937500 -0.112094153125000 
 S -1.12235931562500 -2.74775530937500 -4.34876915312500 
 S -4.00645431562500 -2.44728830937500 -1.33592715312500 
 S -1.52606331562500 -3.36240230937500 -0.293089153125000 
