16

 C -2.35640024687500 -6.68959154062500 -2.38341775937500 
 C -1.15192824687500 -7.16621454062500 -1.73583375937500 
 C -2.35860224687501 -2.51493154062500 -2.26555775937500 
 C -1.30968424687500 -3.33755854062500 -1.75713975937500 
 N -9.992524687500470E-002 -7.39239354062500 -2.56506475937500 
 N -2.21573324687501 -6.37429054062500 -3.67193275937500 
 N -3.00843224687500 -7.06532654062500 0.132985240625000 
 N -0.416090246875005 -3.74765954062500 -2.63921275937500 
 N -2.24914324687500 -2.28121654062500 -3.55316675937500 
 N -2.97197924687501 -2.77986154062500 0.160022240625000 
 S -0.636499246875005 -6.78592554062500 -4.05889975937500 
 S -3.72097324687500 -6.43315154062500 -1.26605375937500 
 S -1.37878624687500 -7.29456454062499 5.325524062500020E-002
 S -0.829444246875005 -2.97713754062500 -4.06441975937500 
 S -3.63542424687500 -2.06309154062500 -1.16949675937500 
 S -1.59776924687500 -3.68869354062500 -5.297475937499985E-002
