16

 C -2.42538010312500 -6.51214173437500 -2.46295110937500 
 C -1.17813010312500 -6.80974573437500 -1.80477310937500 
 C -2.63927310312500 -2.62934373437500 -2.37469910937500 
 C -1.47598010312500 -3.16713673437500 -1.77094010937500 
 N -0.148728103124998 -6.98512773437500 -2.63548010937500 
 N -2.34739710312500 -6.53226973437500 -3.80670010937500 
 N -2.85683610312500 -6.62657873437500 0.106988890624999 
 N -0.477477103124998 -3.42726973437500 -2.60205910937500 
 N -2.56133910312500 -2.46211873437500 -3.67756410937500 
 N -3.19841510312500 -2.79043773437500 0.145867890624999 
 S -0.754570103124998 -6.86286673437500 -4.17339710937500 
 S -3.68021710312500 -6.30245873437500 -1.24066610937500 
 S -1.30729910312500 -7.12414873437500 -0.110792109375001 
 S -0.931778103124998 -2.96367473437500 -4.10645810937500 
 S -3.93308310312500 -2.29038073437500 -1.21865910937500 
 S -1.72303810312500 -3.48965373437500 -8.382710937500115E-002
