16

 C -2.66103582187499 -6.51984417187500 -2.43160437812500 
 C -1.49051282187499 -7.03082517187500 -1.77500137812500 
 C -2.13173682187499 -2.91072217187499 -2.38248237812500 
 C -1.01307782187499 -3.48468817187500 -1.71958337812500 
 N -0.413772821874992 -7.26434817187500 -2.54498337812500 
 N -2.44719182187499 -6.36173817187500 -3.74544337812500 
 N -3.25933582187499 -6.74363717187500 0.107742621875000 
 N 5.370617812500811E-002 -3.69466817187500 -2.49214837812500 
 N -1.88493682187499 -2.52169117187499 -3.63118637812500 
 N -2.92061582187499 -3.32462317187500 -2.016537812499952E-002
 S -0.890911821874992 -6.83551417187499 -4.12727937812500 
 S -3.92364782187499 -6.20959717187499 -1.32154137812500 
 S -1.63541782187499 -7.17067117187499 1.032562187500030E-002
 S -0.343935821874992 -3.03016117187499 -4.00316737812500 
 S -3.58431182187499 -2.81746717187499 -1.39423137812500 
 S -1.32220982187499 -3.79048217187500 -6.359537812499982E-002
