16

 C -2.40053917500000 -6.19637323125000 -2.40346944375000 
 C -1.27517617500000 -6.72955423125000 -1.72252244375000 
 C -2.38093417500000 -2.27014323125000 -2.35362344375000 
 C -1.20486117500000 -2.88463923125000 -1.83390944375000 
 N -0.178056175000002 -6.93627823124999 -2.47872144375000 
 N -2.18830117500000 -6.17328023125000 -3.74286744375000 
 N -3.10832017500000 -6.37413923124999 3.867555624999963E-002
 N -0.270514175000002 -3.15826123125000 -2.74847244375000 
 N -2.31831217500000 -1.99927023125000 -3.64101244375000 
 N -2.96571017500000 -2.85162523125000 8.143255624999957E-002
 S -0.696702175000002 -6.75091523125000 -4.08392344375000 
 S -3.76724317500000 -5.93756823125000 -1.41483544375000 
 S -1.50759517500000 -6.88012123125000 -3.580244375000041E-002
 S -0.816135175000002 -2.49968823125000 -4.18462144375000 
 S -3.76361717500000 -2.27178623125000 -1.24001344375000 
 S -1.39374717500000 -3.24417223124999 -0.178104443750000 
