16

 C -2.31677844375000 -6.75059029375001 -2.32984585312500 
 C -1.13174644375000 -7.39745229375001 -1.83569685312500 
 C -2.65295544375000 -2.83068629375001 -2.62928085312500 
 C -1.53245744375000 -3.23342629375001 -1.83126885312500 
 N -0.166474443750005 -7.56056929375001 -2.71125885312500 
 N -2.24706844375000 -6.42273529375001 -3.63753085312500 
 N -2.86448144375000 -7.09411329375001 0.125609146875000 
 N -0.384273443750004 -3.36976329375001 -2.51948385312500 
 N -2.45162444375000 -2.78754229375001 -3.94234585312500 
 N -3.34399644375000 -2.66978829375001 -0.143548853125000 
 S -0.778499443750005 -7.01129529375001 -4.17480885312500 
 S -3.53917944375000 -6.38732629375001 -1.17600585312500 
 S -1.31303544375000 -7.65477729375001 -0.117024853125000 
 S -0.882181443750004 -3.10358729375001 -4.10228885312500 
 S -4.02544444375000 -2.48214529375001 -1.65330885312500 
 S -1.76978844375000 -3.26027229375001 -0.140751853125000 
