16

 C -2.32527530625000 -6.45068952812501 -2.46858388750000 
 C -1.07442330625000 -6.81179352812501 -1.85040288750000 
 C -2.46101030625000 -3.27205852812501 -2.10447988750000 
 C -1.12518230625000 -3.35385952812501 -1.52351688750000 
 N -7.572306249998384E-003 -6.87548052812501 -2.71217388750000 
 N -2.20639530625000 -6.41807052812501 -3.78747188750000 
 N -2.94070330625000 -6.55512152812501 1.043112499998777E-003
 N -0.228212306249998 -3.43831052812501 -2.49349688750000 
 N -2.50173430625000 -3.31507752812501 -3.41255588750000 
 N -2.75843430625000 -3.59767252812501 0.433929112499999 
 S -0.648924306249998 -6.69063152812501 -4.25066588750000 
 S -3.70290630625000 -6.23606152812501 -1.41337588750000 
 S -1.35333230625000 -6.84113352812501 -6.751688750000140E-002
 S -0.921100306249998 -3.35300852812501 -3.98640288750000 
 S -3.66604730625000 -3.34653752812501 -0.902171887500001 
 S -1.07135230625000 -3.63988752812501 0.177359112499999 
