16

 C -2.50353397500000 -6.47816706562500 -2.38940037500000 
 C -1.24339297500000 -6.82106406562500 -1.83162337500000 
 C -2.32262697500000 -2.91368906562500 -2.43850137500000 
 C -1.05175097500000 -3.33700806562500 -1.78001437500000 
 N -0.255371975000000 -6.98348606562500 -2.71630337500000 
 N -2.46081597500000 -6.31095406562500 -3.69588437500000 
 N -2.93640997500000 -6.52602306562500 0.186391624999999 
 N -4.356897500000034E-002 -3.49128806562500 -2.64272137500000 
 N -2.24124197500000 -2.89057306562500 -3.78041537500000 
 N -2.84096497500000 -3.19448006562500 0.114327624999999 
 S -0.945941975000000 -6.71867006562500 -4.20636137500000 
 S -3.77552097500000 -6.27693506562500 -1.22477037500000 
 S -1.34981097500000 -6.93170306562500 -2.382137500000114E-002
 S -0.651417975000000 -3.19686006562500 -4.14278037500000 
 S -3.64178597500000 -2.70828006562500 -1.26654337500000 
 S -1.22213397500000 -3.49585006562500 -8.526337500000114E-002
