16

 C -2.32598540000000 -6.68951643750000 -2.35850250625000 
 C -0.985841399999998 -6.96622043750000 -1.88764250625000 
 C -2.60772040000000 -2.80893943750000 -2.47290050625000 
 C -1.37867340000000 -3.30281743750000 -1.72231850625000 
 N -0.129324399999998 -6.93918843750000 -2.87773950625000 
 N -2.41861740000000 -6.53331343750000 -3.66881550625000 
 N -2.50472740000000 -6.98804143750000 0.167770493750002 
 N -0.344871399999998 -3.58474443750000 -2.53313150625000 
 N -2.34260140000000 -2.60738143750000 -3.78923350625000 
 N -3.19260340000000 -2.93014343750000 7.405849375000151E-002
 S -0.928009399999998 -6.71553843750000 -4.27878450625000 
 S -3.51073840000000 -6.79406543750000 -1.11568850625000 
 S -0.831891399999998 -7.11598443750000 -0.131570506249999 
 S -0.805467399999998 -3.08196743750000 -4.04068550625000 
 S -3.93724440000000 -2.49537743750000 -1.36547050625000 
 S -1.55503640000000 -3.42947643750000 2.637493750001552E-003
