16

 C -2.43367813750000 -6.44833051562500 -2.58478805312500 
 C -1.23480213750000 -6.86943451562500 -1.85633005312500 
 C -2.71991613750000 -2.84429251562500 -2.49567205312500 
 C -1.60892013750000 -3.49901251562500 -1.87923705312500 
 N -0.185364137500002 -6.98731151562500 -2.62959005312500 
 N -2.24197013750000 -6.24541851562500 -3.90996005312500 
 N -3.14009213750000 -6.67964451562500 -2.332105312499988E-002
 N -0.540834137500002 -3.69467851562500 -2.64503905312500 
 N -2.59311313750000 -2.66205351562500 -3.78808605312500 
 N -3.38459113750000 -3.22280351562500 -3.221005312500003E-002
 S -0.641453137500002 -6.68235751562500 -4.23990805312500 
 S -3.88898313750000 -6.29156351562500 -1.51364405312500 
 S -1.58291113750000 -7.15787251562500 -0.155372053125000 
 S -1.05196413750000 -3.11579951562500 -4.13810205312500 
 S -3.99800513750000 -2.55151851562500 -1.40597405312500 
 S -1.83830913750000 -3.83823751562500 -0.204666053125000 
