16

 C -2.67706398125000 -6.30551739062500 -2.24745915625000 
 C -1.41668598125000 -6.83026139062500 -1.76123215625000 
 C -2.45684198125000 -2.95695839062500 -2.35045915625000 
 C -1.34626498125000 -3.59611439062500 -1.66101315625000 
 N -0.526650981250002 -7.11314839062500 -2.68578415625000 
 N -2.67435898125000 -6.04766839062500 -3.53517315625000 
 N -3.08397098125000 -6.79457339062500 0.173511843750000 
 N -0.272563981250002 -3.68876739062500 -2.41105715625000 
 N -2.21918798125000 -2.73748439062500 -3.62328615625000 
 N -3.08319298125000 -3.08088239062500 0.155399843750000 
 S -1.20692198125000 -6.56936739062500 -4.11067715625000 
 S -3.93288398125000 -6.09400739062500 -1.11745715625000 
 S -1.51373298125000 -7.34196139062500 -0.101365156250000 
 S -0.643405981250003 -3.20791239062500 -3.99034115625000 
 S -3.77355798125000 -2.64565539062500 -1.33682415625000 
 S -1.59042198125000 -3.86157739062500 1.961843749999748E-003
