16

 C -2.16379028437500 -6.34143030625000 -2.30475616875000 
 C -0.929224284375001 -6.83234630625000 -1.78604316875000 
 C -2.82955528437500 -2.52836630625000 -2.50833316875000 
 C -1.58540728437500 -2.95992130625000 -1.93559516875000 
 N 7.375971562499917E-002 -6.97395630625000 -2.63324516875000 
 N -2.11303928437500 -6.05621030625000 -3.59467916875000 
 N -2.67283528437500 -6.69064430625000 0.197859831250000 
 N -0.533514284375001 -2.97218130625000 -2.79241516875000 
 N -2.75830928437500 -2.35570030625000 -3.86839616875000 
 N -3.40000428437500 -2.87843430625000 4.447831249999590E-003
 S -0.587405284375001 -6.49512530625000 -4.09680216875000 
 S -3.47297428437500 -6.18677730625000 -1.18155116875000 
 S -1.07611728437500 -7.16411230625000 -4.650216875000046E-002
 S -1.13440128437500 -2.58557830625000 -4.23379816875000 
 S -4.17761028437500 -2.35890130625000 -1.40068416875000 
 S -1.77507128437500 -3.31885330625000 -0.174138168750000 
