16

 C -2.41300735937500 -6.42308131875000 -2.14492499062500 
 C -1.20818835937500 -6.93352431875000 -1.54467699062500 
 C -2.36379735937500 -2.70338331875000 -2.43887599062500 
 C -1.12010235937500 -3.09984731875000 -1.86394099062500 
 N -0.125958359374998 -7.04831631875000 -2.33009899062500 
 N -2.24325735937500 -6.15995431875000 -3.44076399062500 
 N -3.04872735937500 -7.18154931875000 0.249673009375002 
 N -0.157473359374998 -3.22301331875000 -2.76207799062500 
 N -2.32859635937500 -2.45500831875000 -3.72784999062500 
 N -2.88490535937500 -3.04913531875000 9.503009375001703E-003
 S -0.655935359374998 -6.52636131875000 -3.81509099062500 
 S -3.83257535937500 -6.68758631875000 -1.12577199062500 
 S -1.38683935937500 -7.37347031875000 0.134683009375002 
 S -0.770660359374998 -2.83871931875000 -4.25256399062500 
 S -3.61939735937500 -2.36174831875000 -1.31390799062500 
 S -1.22610035937500 -3.27974531875000 -0.148504990624998 
