16

 C -2.41687896249999 -6.57946937500000 -2.29562569687500 
 C -1.25939696249999 -7.18433237500000 -1.77400969687500 
 C -2.69664096249999 -2.52433237500000 -2.36495969687500 
 C -1.65130496249999 -3.21665737500000 -1.64232569687500 
 N -0.319030962499995 -7.35797137500000 -2.68068469687500 
 N -2.36069596250000 -6.24922537500000 -3.57043169687500 
 N -2.96593896249999 -7.00455937500000 0.208655303124997 
 N -0.683589962499995 -3.69646137500000 -2.41297869687500 
 N -2.39954396249999 -2.32947637500000 -3.64574169687500 
 N -3.41910496250000 -2.52632837500000 8.018030312499702E-002
 S -0.902906962499995 -6.74694337500000 -4.11263969687500 
 S -3.71109396250000 -6.47893037500000 -1.17305069687500 
 S -1.39888896249999 -7.47146437500000 -6.734569687500325E-002
 S -0.925986962499995 -3.08939237500000 -3.93210669687500 
 S -3.98683796250000 -2.03876137500000 -1.36740669687500 
 S -1.99241196249999 -3.32217837500000 5.025630312499696E-002
