16

 C -2.32645322812500 -6.75745416562500 -2.61112826250000 
 C -1.09720322812500 -7.11610616562500 -1.97518626250000 
 C -2.56311522812500 -2.74579516562500 -2.53643126250000 
 C -1.29625322812500 -3.20119716562500 -1.94398326250000 
 N -7.869022812500415E-002 -7.54779016562500 -2.77689926250000 
 N -2.25109422812500 -6.96134116562500 -3.90372726250000 
 N -2.76816322812500 -6.52374416562500 -3.183626250000060E-002
 N -0.335836228125004 -3.37716816562500 -2.85292926250000 
 N -2.52200622812500 -2.51788616562500 -3.86665126250000 
 N -2.93872822812500 -2.72016716562500 -8.115262500000719E-003
 S -0.635213228125004 -7.38943816562500 -4.38071326250000 
 S -3.54112222812500 -6.21373816562500 -1.43915726250000 
 S -1.11905622812500 -6.95975716562500 -0.181061262500001 
 S -1.03892422812500 -2.91268016562500 -4.32868326250000 
 S -3.71477922812500 -2.21182116562500 -1.34478626250000 
 S -1.42559122812500 -3.39202916562500 -0.252612262500000 
