16

 C -2.36250717812501 -6.33428435000000 -2.35676698437500 
 C -1.23196217812501 -6.94726535000000 -1.68196598437500 
 C -2.50474117812501 -2.58958435000000 -2.50703798437500 
 C -1.25855717812501 -3.04836535000000 -1.99673298437500 
 N -0.117721178125013 -7.19223435000000 -2.36455998437500 
 N -2.04908817812501 -6.13898835000000 -3.61855398437500 
 N -2.92240017812501 -6.26638935000000 0.150643015625002 
 N -0.269787178125013 -3.05040335000000 -2.85652698437500 
 N -2.45107017812501 -2.34642735000000 -3.80443498437500 
 N -2.93283417812501 -2.88274635000000 -1.277598437499861E-002
 S -0.496447178125013 -6.70163235000000 -3.89814398437500 
 S -3.64973017812501 -5.89029835000000 -1.33786498437500 
 S -1.38994817812501 -6.94032535000000 3.723601562500156E-002
 S -0.862667178125013 -2.50821135000000 -4.30470398437500 
 S -3.78372817812501 -2.37448835000000 -1.33557498437500 
 S -1.38809317812501 -3.38876535000000 -0.331762984374999 
