16

 C -2.59588274687499 -6.48897216874999 -2.39265863125000 
 C -1.32670674687499 -6.91662716875000 -1.75070163125000 
 C -2.38292174687499 -2.81453116874999 -2.17897863125000 
 C -1.13446574687499 -3.28705316874999 -1.64041263125000 
 N -0.303036746874988 -7.08998016875000 -2.59383763125000 
 N -2.42468274687499 -6.28426116874999 -3.69058563125000 
 N -3.07841374687499 -6.82633816875000 0.165976368749999 
 N -0.194944746874988 -3.46257216875000 -2.56338563125000 
 N -2.38082874687499 -2.66309516874999 -3.50496263125000 
 N -2.83834374687499 -2.98785116874999 0.342479368749999 
 S -0.917496746874988 -6.77178516874999 -4.09435963125000 
 S -3.91434874687499 -6.39252416875000 -1.27705163125000 
 S -1.48761874687499 -7.21043916874999 -3.245631250000658E-003
 S -0.779376746874989 -2.96080416874999 -4.04285563125000 
 S -3.68745274687499 -2.45218416875000 -1.01648863125000 
 S -1.26457674687499 -3.48982016875000 9.550736874999943E-002
