16

 C -2.67950936250001 -6.44500518437500 -2.32229816875000 
 C -1.47764636250001 -6.89733718437500 -1.65593716875000 
 C -2.49719636250001 -2.66202718437500 -2.45260416875000 
 C -1.25067136250001 -3.07827618437500 -1.87124416875000 
 N -0.489215362500008 -7.21850718437500 -2.45490816875000 
 N -2.51249836250001 -6.31425518437500 -3.63993316875000 
 N -3.18859436250001 -6.46983518437500 0.182813831250000 
 N -0.296785362500008 -3.48007618437500 -2.73024316875000 
 N -2.52555236250001 -2.63137918437500 -3.80128416875000 
 N -2.92104336250001 -2.91665218437500 0.136711831250000 
 S -0.987277362500008 -6.91398418437500 -3.99673316875000 
 S -4.01854336250001 -6.17796418437500 -1.25387316875000 
 S -1.56831536250001 -6.94229418437500 6.761383124999965E-002
 S -0.979331362500007 -3.14428518437500 -4.24545716875000 
 S -3.76403936250001 -2.63481718437500 -1.27803516875000 
 S -1.32759536250001 -3.35232418437500 -0.102612168750001 
