16

 C -2.31986041875000 -6.31209739687500 -2.53222832187500 
 C -1.08041141875000 -6.49793339687500 -1.79552632187500 
 C -2.56672741875000 -2.34848239687500 -2.74259332187500 
 C -1.56900141875000 -3.07045139687500 -1.99464532187500 
 N -6.358641875000259E-002 -6.76924639687500 -2.58817032187500 
 N -2.21596041875000 -6.30311539687500 -3.87851332187500 
 N -2.98244641875000 -6.67079539687500 -2.616432187500117E-002
 N -0.368736418750003 -3.20131639687500 -2.59538132187500 
 N -2.14844341875000 -1.93499739687500 -3.95224632187500 
 N -3.43378941875000 -2.59640839687500 -0.340532321875001 
 S -0.617902418750003 -6.66300839687500 -4.17870432187500 
 S -3.75825441875000 -6.39740039687500 -1.50518832187500 
 S -1.30453041875000 -6.75362239687500 -9.901332187500134E-002
 S -0.578517418750002 -2.55366839687500 -4.12249032187500 
 S -3.90258241875000 -2.00751839687500 -1.77072232187500 
 S -1.99967541875000 -3.43613139687500 -0.384945321875001 
