16

 C -2.45571815625000 -6.43597347812500 -2.56632486250000 
 C -1.24947515625000 -6.78111247812500 -1.88274286250000 
 C -2.36990515625000 -2.63392947812500 -2.47544386250000 
 C -1.15778515625000 -3.02397347812500 -1.76235386250000 
 N -0.127069156249997 -6.85635347812500 -2.62201586250000 
 N -2.29115515625000 -6.25055947812500 -3.86892586250000 
 N -3.10087815625000 -6.60324147812500 -6.368086249999938E-002
 N -0.129776156249997 -3.28242747812500 -2.57611286250000 
 N -2.25499615625000 -2.48638647812500 -3.81264486250000 
 N -3.05116415625000 -2.79788047812500 7.185713750000078E-002
 S -0.627583156249997 -6.51403647812500 -4.16690486250000 
 S -3.83507715625000 -6.32530347812500 -1.46873586250000 
 S -1.47142515625000 -7.03579747812500 -0.113680862499999 
 S -0.738296156249997 -3.00474147812500 -4.11424086250000 
 S -3.71141515625000 -2.30882447812500 -1.31276386250000 
 S -1.41902115625000 -3.14828047812500 -2.004186249999917E-002
