16

 C -2.22005736250000 -6.18775153437500 -2.45785145937500 
 C -1.09068936250000 -6.87172853437500 -1.88546945937500 
 C -2.27283936250000 -2.88582253437500 -2.33620045937500 
 C -1.00283036250000 -3.41859153437500 -1.78924245937500 
 N -9.111136249999774E-002 -7.13761353437500 -2.70916845937500 
 N -2.06177636250000 -5.99201253437500 -3.74198745937500 
 N -2.99039636250000 -6.81043153437500 -0.122656459374999 
 N -8.921936249999796E-002 -3.60194953437500 -2.74915345937500 
 N -2.15169136250000 -2.56930453437500 -3.63212245937500 
 N -2.66708636250000 -3.11294953437500 0.201901540625001 
 S -0.632058362499998 -6.58621653437500 -4.18315545937500 
 S -3.60456536250000 -6.11561053437500 -1.47354245937500 
 S -1.37303736250000 -7.15757553437500 -0.179730459374999 
 S -0.680478362499998 -3.05295253437500 -4.17600145937500 
 S -3.55625136250000 -2.68626653437500 -1.16513245937500 
 S -1.09352036250000 -3.68858753437500 -0.123512459374999 
