16

 C -2.45517070937500 -6.46005988750000 -2.13363315312500 
 C -1.25740770937500 -6.93004988750000 -1.45955215312500 
 C -2.32928570937500 -2.52815588750000 -2.44109815312500 
 C -1.08612470937500 -3.16631688750000 -1.88642215312500 
 N -0.247697709375005 -7.03073588750000 -2.30778115312500 
 N -2.29175470937500 -6.07670488750000 -3.39117415312500 
 N -3.14738270937500 -7.15902988750000 0.266213846874999 
 N -0.102496709375004 -3.41328688750000 -2.78724415312500 
 N -2.26114470937500 -2.38761588750000 -3.76974715312500 
 N -2.83967270937500 -3.04336388750000 3.579284687499951E-002
 S -0.746345709375004 -6.53518688750000 -3.78864015312500 
 S -3.88292670937500 -6.71253488750000 -1.15727215312500 
 S -1.51046470937500 -7.41181588750000 0.145946846874999 
 S -0.759059709375005 -2.81075088750000 -4.21321715312500 
 S -3.59233870937500 -2.36731188750000 -1.29832015312500 
 S -1.24852470937500 -3.35707788750000 -0.170027153125000 
