16

 C -2.65675427812501 -6.35040263125000 -2.35864595000000 
 C -1.49562027812501 -6.85597563125000 -1.71513095000000 
 C -2.36598827812501 -2.75605163125000 -2.50159095000000 
 C -1.16251427812501 -3.04905663125000 -1.75190995000000 
 N -0.508776278125010 -7.20417763125000 -2.51387895000000 
 N -2.51535627812501 -6.30402963125000 -3.66354395000000 
 N -3.17574727812501 -6.23787563125000 0.163188050000001 
 N -0.108066278125010 -3.27054663125000 -2.55404495000000 
 N -2.17314927812501 -2.68418963125000 -3.82079695000000 
 N -3.04854627812501 -2.85997463125000 5.271605000000101E-002
 S -0.974214278125010 -6.83255063125000 -4.04298995000000 
 S -3.97266327812501 -5.99938463125000 -1.28154795000000 
 S -1.72724227812501 -6.97605263125000 -4.919949999999007E-003
 S -0.577646278125011 -3.03066363125000 -4.12866195000000 
 S -3.65685827812501 -2.45435363125000 -1.40967895000000 
 S -1.43864027812501 -3.25573763125000 -9.249294999999869E-002
