16

 C -2.38633414687500 -6.51811071562500 -2.54947051250000 
 C -1.17407214687500 -6.96518571562500 -1.90295051250000 
 C -2.65267614687500 -2.57203971562500 -2.26745051250000 
 C -1.54782314687500 -3.21291271562500 -1.68191251250000 
 N -0.187510146875002 -7.10990371562500 -2.75927951250000 
 N -2.31052814687500 -6.31375371562500 -3.85749951250000 
 N -2.92024214687500 -6.82165871562500 -6.803151250000039E-002
 N -0.538326146875002 -3.46297271562500 -2.49033151250000 
 N -2.49344514687500 -2.41424571562500 -3.56960851250000 
 N -3.30082014687500 -2.87043271562500 0.107469487500000 
 S -0.709995146875002 -6.63614071562500 -4.29109851250000 
 S -3.73730014687500 -6.32915371562500 -1.49777851250000 
 S -1.32070714687500 -7.14570171562500 -0.195461512500000 
 S -0.982278146875002 -2.94247171562500 -3.99703251250000 
 S -3.98846914687500 -2.20417571562500 -1.25944051250000 
 S -1.75780614687500 -3.35012471562500 4.640248749999953E-002
