16

 C -2.53605149062500 -6.20380385312500 -2.43461344062500 
 C -1.26974449062500 -6.65830985312500 -1.87518144062500 
 C -2.43571449062500 -3.09048885312500 -2.55504144062500 
 C -1.18809649062500 -3.38805485312500 -1.83946244062500 
 N -0.327766490625000 -6.90251685312500 -2.76059344062500 
 N -2.44306749062500 -6.06287585312500 -3.76682344062500 
 N -2.96396049062500 -6.27323585312500 0.100295559375002 
 N -0.103524490625000 -3.52379885312500 -2.60626244062500 
 N -2.23541949062500 -2.93677985312500 -3.86022344062500 
 N -2.98153349062500 -2.89419685312500 -5.694444062499771E-002
 S -0.913243490625000 -6.48055285312500 -4.25006644062500 
 S -3.78233849062500 -5.91660585312500 -1.25042944062500 
 S -1.38568849062500 -6.74797385312500 -0.156801440624998 
 S -0.621158490625001 -3.30108385312500 -4.18639444062500 
 S -3.80727749062500 -2.85474685312500 -1.50513044062500 
 S -1.40036349062500 -3.26277985312500 -0.150380440624998 
