16

 C -2.34526680624999 -6.63490603750000 -2.20973053750000 
 C -1.05970980624999 -7.03836003750000 -1.61749053750000 
 C -2.38290080624999 -2.83927303750000 -2.45069953750000 
 C -1.15004480624999 -3.11257903750000 -1.71439353750000 
 N -7.841780624999384E-002 -7.09040803750000 -2.51826453750000 
 N -2.27323580624999 -6.34443303750000 -3.50356953750000 
 N -2.93314980624999 -6.99050703750000 0.232460462499999 
 N -0.137804806249994 -3.32835403750000 -2.55498353750000 
 N -2.16708280624999 -2.70277003750000 -3.75150453750000 
 N -3.09672980624999 -3.00312203750000 4.620746249999930E-002
 S -0.699866806249993 -6.69160503750000 -4.05085253750000 
 S -3.75365580624999 -6.68021303750000 -1.17105253750000 
 S -1.24869180624999 -7.32085403750000 9.591846249999914E-002
 S -0.582598806249994 -3.08795203750000 -4.13096553750000 
 S -3.75256180624999 -2.59929503750000 -1.44565153750000 
 S -1.40662080624999 -3.11762003750000 5.468946249999918E-002
