16

 C -2.27139072812500 -6.78502204687500 -2.38253385625000 
 C -1.09241072812500 -7.20688804687500 -1.63678085625000 
 C -2.97405572812500 -3.01676004687500 -2.35850585625000 
 C -1.74894872812500 -3.55065804687500 -1.74433785625000 
 N -0.105271728124999 -7.47451504687500 -2.44562685625000 
 N -2.12361872812500 -6.71751404687500 -3.70893785625000 
 N -3.00468472812500 -6.85133604687500 8.065514375000182E-002
 N -0.742929728124999 -3.93490104687500 -2.51919585625000 
 N -2.84013572812500 -2.94401204687500 -3.66070885625000 
 N -3.45801772812500 -3.31183804687500 0.156222143750002 
 S -0.551651728124998 -7.16954104687500 -4.01363585625000 
 S -3.70072672812500 -6.53282404687500 -1.35186985625000 
 S -1.38424372812500 -7.29077204687500 4.924143750001830E-003
 S -1.27613672812500 -3.41702304687500 -4.04232785625000 
 S -4.19701372812500 -2.75292604687500 -1.20469385625000 
 S -1.88571972812500 -3.74834004687500 -1.399856249998166E-003
