16

 C -2.41710804687500 -6.51330602187500 -2.46154758750000 
 C -1.17704604687500 -6.80713802187500 -1.80050158750000 
 C -2.63968004687500 -2.63275002187500 -2.38054258750000 
 C -1.47147304687500 -3.15992002187500 -1.77755558750000 
 N -0.150933046875001 -6.98588302187500 -2.63415258750000 
 N -2.34748604687500 -6.53651102187500 -3.80949958750000 
 N -2.85646404687500 -6.62511402187500 0.102507412500002 
 N -0.467142046875001 -3.43239602187500 -2.60371158750000 
 N -2.55812304687500 -2.45968602187500 -3.68209758750000 
 N -3.19798504687500 -2.78975302187500 0.148617412500002 
 S -0.756029046875001 -6.86378002187500 -4.16810358750000 
 S -3.68598904687500 -6.30378302187500 -1.23459558750000 
 S -1.30188804687500 -7.12287302187500 -0.104619587499998 
 S -0.930917046875001 -2.96577702187500 -4.10826858750000 
 S -3.93506804687500 -2.29069902187500 -1.22021858750000 
 S -1.71671104687500 -3.49289602187500 -8.543558749999813E-002
