16

 C -2.27676159062499 -6.37693633437500 -2.33812363750000 
 C -1.20156959062499 -6.94258033437500 -1.60399263750000 
 C -2.52606359062499 -2.63515433437500 -2.62042263750000 
 C -1.26117659062499 -3.01211433437500 -2.04627763750000 
 N -0.128500590624991 -7.19526633437500 -2.33628763750000 
 N -1.99358359062499 -6.09825833437500 -3.62577063750000 
 N -2.90745959062499 -6.42476933437500 0.159340362500001 
 N -0.222583590624991 -3.07507533437500 -2.86831463750000 
 N -2.48641059062499 -2.44045733437500 -3.93754563750000 
 N -2.98396159062499 -3.01250433437500 -5.028563749999870E-002
 S -0.455008590624991 -6.65282833437500 -3.87868663750000 
 S -3.61195259062499 -5.87358233437500 -1.22123763750000 
 S -1.34796159062499 -6.97018733437500 0.108973362500001 
 S -0.885806590624990 -2.64192033437500 -4.34056163750000 
 S -3.75606059062499 -2.40910233437500 -1.39137863750000 
 S -1.36951659062499 -3.38883433437500 -0.305286637499999 
