16

 C -2.45207249999999 -6.46350336250000 -2.34195548750000 
 C -1.20674649999999 -6.90958836250000 -1.73613548750000 
 C -2.34120449999999 -3.03683736250000 -2.19352548750000 
 C -1.07257049999999 -3.35141136250000 -1.71198548750000 
 N -0.186378499999995 -7.01062836250000 -2.58705148750000 
 N -2.38594049999999 -6.35277536250000 -3.66058848750000 
 N -2.90415549999999 -6.72400936250000 8.908251250000188E-002
 N -0.115913499999994 -3.43838636250000 -2.61242548750000 
 N -2.39029749999999 -2.77895836250000 -3.49220648750000 
 N -2.62065449999999 -3.36363236250000 0.359508512500002 
 S -0.827856499999995 -6.61772636250000 -4.08368248750000 
 S -3.71291349999999 -6.34931136250000 -1.27236648750000 
 S -1.24795849999999 -7.01868636250000 2.117551250000194E-002
 S -0.887464499999995 -3.11584536250000 -4.08276048750000 
 S -3.61212249999999 -3.13737736250000 -0.978589487499998 
 S -1.00726749999999 -3.54377136250000 -5.063487499998187E-003
