16

 C -2.46967115312500 -6.41042215000000 -2.60591394375000 
 C -1.31872115312500 -6.86488815000000 -1.79493394375000 
 C -2.53049415312500 -2.51602515000000 -2.41876594375000 
 C -1.34274015312500 -2.87449815000000 -1.71002694375000 
 N -0.198358153124998 -7.07209715000000 -2.47454094375000 
 N -2.16489415312500 -6.22093115000000 -3.89518194375000 
 N -3.22987215312500 -6.62256215000000 -8.425094375000031E-002
 N -0.236472153124998 -3.00945015000000 -2.46995894375000 
 N -2.34772015312500 -2.40562515000000 -3.75095694375000 
 N -3.15520715312500 -2.54891615000000 0.112208056249999 
 S -0.598946153124998 -6.72083915000000 -4.05797894375000 
 S -3.88222715312500 -6.06194715000000 -1.55450194375000 
 S -1.62436615312500 -6.94588815000000 -0.127811943750000 
 S -0.787424153124998 -2.73274915000000 -4.11753294375000 
 S -3.85794015312500 -2.28888815000000 -1.35437694375000 
 S -1.54429115312500 -3.05299315000000 -1.343194375000056E-002
