16

 C -2.58789476250000 -6.53064025000000 -2.42375666562500 
 C -1.49995276250000 -7.06154225000000 -1.66423966562500 
 C -2.31804276250000 -2.80115825000000 -2.47640066562500 
 C -1.14185576250000 -3.20143125000000 -1.82808166562500 
 N -0.466316762500005 -7.34064525000000 -2.44445066562500 
 N -2.33946876250000 -6.34671225000000 -3.73100566562500 
 N -3.27452076250001 -6.45657125000000 5.803733437500203E-002
 N -0.110482762500005 -3.42819725000000 -2.61016766562500 
 N -2.12740876250001 -2.52510325000000 -3.75880966562500 
 N -3.01054276250000 -2.94081225000000 -6.511066562499801E-002
 S -0.810850762500005 -6.95117425000000 -3.99381666562500 
 S -3.90606576250001 -6.00839125000000 -1.44232966562500 
 S -1.70958076250001 -7.02454625000000 3.275733437500206E-002
 S -0.618275762500005 -3.00016525000000 -4.17079966562500 
 S -3.73046976250000 -2.60279125000000 -1.53385466562500 
 S -1.32916376250000 -3.35192125000000 -0.103887665624998 
