16

 C -2.16629556562500 -6.56110324375000 -2.42367533437500 
 C -0.976129565624999 -7.06919324375000 -1.77284533437500 
 C -2.62417956562500 -2.42720724375000 -2.40987133437500 
 C -1.44199456562500 -2.94282424375000 -1.79563633437500 
 N 4.462243437500124E-002 -7.32381624375000 -2.59096233437500 
 N -2.04340756562500 -6.34656324375000 -3.73185933437500 
 N -2.66781156562500 -6.67217424375000 9.323266562499910E-002
 N -0.459189565624999 -3.18408224375000 -2.63389133437500 
 N -2.57139956562500 -2.29347224375000 -3.72513833437500 
 N -3.16422656562500 -2.68100024375000 7.377266562499907E-002
 S -0.495167565624999 -6.88081824375000 -4.11579033437500 
 S -3.42055556562500 -6.18602224375000 -1.29949233437500 
 S -1.11529156562500 -7.21318924375000 -4.370333437500085E-002
 S -1.01025356562500 -2.83112224375000 -4.15773433437500 
 S -3.89391456562500 -2.12920724375000 -1.30615233437500 
 S -1.58160656562500 -3.08207924375000 -8.048233437500096E-002
