16

 C -2.35091615000000 -6.37535856562500 -2.51492772500000 
 C -1.16851115000000 -6.80590656562500 -1.83672672500000 
 C -2.32484215000000 -2.91374556562500 -2.44897472500000 
 C -0.983882150000001 -3.20894956562500 -1.85173472500000 
 N -5.975715000000115E-002 -6.92715356562500 -2.56483672500000 
 N -2.20340015000000 -6.27158456562500 -3.84998272500000 
 N -2.90927015000000 -6.48025556562500 -2.009725000000850E-003
 N 5.398499999991202E-004 -3.38621156562500 -2.75762772500000 
 N -2.31019115000000 -2.86179356562500 -3.78580172500000 
 N -2.69297815000000 -2.90741856562500 8.670527499999925E-002
 S -0.600191150000001 -6.68817656562500 -4.15047072500000 
 S -3.66081515000000 -6.11493356562500 -1.43810972500000 
 S -1.27030415000000 -6.77284756562500 -0.119283725000001 
 S -0.756828150000000 -3.11306256562500 -4.24056972500000 
 S -3.59599815000000 -2.73529156562500 -1.27918172500000 
 S -1.14038115000000 -3.40348056562500 -9.562372500000071E-002
