16

 C -2.55381676874999 -6.57543655312499 -2.25491789062500 
 C -1.27364576874999 -6.80412555312499 -1.65776389062500 
 C -2.35423776874999 -2.72948955312499 -2.42225489062500 
 C -1.24550776874999 -3.22125755312499 -1.72576589062500 
 N -0.221953768749994 -6.83530355312499 -2.47189589062500 
 N -2.51754376874999 -6.56033455312499 -3.56508189062500 
 N -3.11742376874999 -6.86452055312499 0.210161109374999 
 N -0.167222768749995 -3.42915555312499 -2.47469089062500 
 N -2.15949476874999 -2.45558055312499 -3.70913489062500 
 N -3.14561276874999 -3.09257455312499 2.281109374999257E-003
 S -0.913146768749995 -6.72486155312499 -4.03780189062500 
 S -3.92761876874999 -6.74932155312499 -1.23435589062500 
 S -1.51121476874999 -7.15603655312499 6.439310937499942E-002
 S -0.551261768749995 -2.94887255312499 -4.02116189062500 
 S -3.68923476874999 -2.30820055312499 -1.38893189062500 
 S -1.58719076874999 -3.58197655312499 -0.116381890625000 
