16

 C -2.38037390312500 -6.99458054062500 -2.40148448125000 
 C -1.20892590312500 -7.40799854062500 -1.70646948125000 
 C -2.73185190312500 -2.86193554062500 -2.38219148125000 
 C -1.65578890312500 -3.60179054062500 -1.77448948125000 
 N -0.119581903125005 -7.49055154062500 -2.42501748125000 
 N -2.13100490312500 -6.82428454062500 -3.68402748125000 
 N -2.99327890312501 -6.76348854062500 1.610951875000199E-002
 N -0.743794903125004 -3.91905854062500 -2.66223148125000 
 N -2.61720190312500 -2.54482554062500 -3.66596348125000 
 N -3.24827090312500 -3.04241754062500 0.163301518750002 
 S -0.533314903125005 -7.07672654062500 -3.97574848125000 
 S -3.63133190312500 -6.49847054062500 -1.44081348125000 
 S -1.41204690312501 -7.47139854062500 6.023951875000200E-002
 S -1.26565090312500 -3.40129454062500 -4.18788048125000 
 S -4.00951590312500 -2.36368154062500 -1.18909648125000 
 S -1.78769490312501 -3.81190154062500 9.032518750001994E-003
