16

 C -2.45894769375000 -6.50755887812500 -2.44134351250000 
 C -1.21600269375000 -6.69189387812500 -1.74919751250000 
 C -2.63198769375000 -2.82750987812500 -2.50136451250000 
 C -1.42279469375000 -3.30007287812500 -1.88161651250000 
 N -0.153235693749997 -6.90361187812500 -2.52105651250000 
 N -2.29417069375000 -6.54223087812500 -3.76382751250000 
 N -3.01678069375000 -6.44841587812500 0.113069487500002 
 N -0.369175693749998 -3.43686387812500 -2.70559151250000 
 N -2.48505769375000 -2.63518387812500 -3.81355251250000 
 N -3.18431869375000 -2.89654887812500 -7.406512499998463E-003
 S -0.706181693749998 -6.81370887812500 -4.08176851250000 
 S -3.78791169375000 -6.24050187812500 -1.33836251250000 
 S -1.44696769375000 -6.90116787812500 -3.595151249999873E-002
 S -0.974617693749998 -3.09337387812500 -4.21367151250000 
 S -3.95352469375000 -2.43678887812500 -1.42988551250000 
 S -1.59264369375000 -3.40684187812500 -0.154346512499999 
