16

 C -2.41803973750000 -6.51855204687500 -2.31265270000000 
 C -1.21608273750000 -7.00265604687500 -1.68978070000000 
 C -2.41268073750000 -2.57382504687500 -2.36889870000000 
 C -1.32168573750000 -3.24067604687500 -1.77640070000000 
 N -0.171929737500000 -7.08668804687500 -2.45493370000000 
 N -2.24515173750000 -6.33680704687500 -3.62906270000000 
 N -2.83212273750000 -6.74901804687500 0.223478300000000 
 N -0.277117737500000 -3.46179704687500 -2.60608270000000 
 N -2.17901173750000 -2.22357904687500 -3.65137170000000 
 N -3.01714173750000 -2.96253504687500 0.124539300000000 
 S -0.659993737500000 -6.67111604687500 -3.99590370000000 
 S -3.72314573750000 -6.41166504687500 -1.22058070000000 
 S -1.33218373750000 -7.33971604687500 -3.564970000000045E-002
 S -0.730267737500000 -2.92109804687500 -4.04943770000000 
 S -3.66115973750000 -2.23063704687500 -1.21673270000000 
 S -1.45384373750000 -3.59111604687500 -7.076570000000038E-002
