16

 C -2.26761220000001 -6.30030090937500 -2.46513006562500 
 C -1.10820020000001 -6.88221190937500 -1.81738706562500 
 C -2.26047020000001 -2.71200090937500 -2.36731306562500 
 C -1.04161820000001 -3.27834490937500 -1.81091406562500 
 N -0.147565200000007 -7.13607890937500 -2.68570006562500 
 N -2.13188620000001 -5.96519890937500 -3.74093106562500 
 N -3.00309120000001 -6.84562690937500 -4.758006562499961E-002
 N -6.317020000000628E-002 -3.58567990937500 -2.64968406562500 
 N -2.24951220000001 -2.66506390937500 -3.69376806562500 
 N -2.65866420000001 -3.02281490937500 0.167318934375001 
 S -0.633350200000007 -6.59495990937500 -4.21630806562500 
 S -3.65036120000001 -6.11310390937500 -1.41193206562500 
 S -1.39651620000001 -7.19742590937500 -0.117360065624999 
 S -0.690880200000007 -3.12684090937500 -4.14886606562500 
 S -3.49840020000001 -2.67668890937500 -1.18549006562500 
 S -1.17776320000001 -3.64125390937500 -9.684106562499961E-002
