16

 C -2.25243138437501 -6.25817061250000 -2.38226118750000 
 C -1.17479338437501 -6.87280561250000 -1.62005718750000 
 C -2.53845538437501 -2.54664661250000 -2.50529318750000 
 C -1.28125838437501 -3.04116961250000 -1.95117018750000 
 N -0.185294384375011 -7.16984861250000 -2.42298818750000 
 N -2.09300238437501 -6.19110061250000 -3.67535118750000 
 N -2.96264338437501 -6.19321761250000 8.398881250000056E-002
 N -0.261702384375011 -3.02650461250000 -2.81076818750000 
 N -2.42755138437501 -2.12138961250000 -3.78314518750000 
 N -2.89708838437501 -2.80790161250000 1.170812500000729E-003
 S -0.575658384375011 -6.70396061250000 -3.99305418750000 
 S -3.66852338437501 -5.94143461250000 -1.38453718750000 
 S -1.48094538437501 -6.92933461250000 6.339881250000068E-002
 S -0.871041384375010 -2.47516561250000 -4.25206418750000 
 S -3.77552338437501 -2.35583761250000 -1.33410318750000 
 S -1.34571138437501 -3.39226361250000 -0.242799187500000 
