16

 C -2.54462806562500 -6.52233722812500 -2.13488198750000 
 C -1.39479306562500 -7.21344422812500 -1.61945498750000 
 C -2.39278706562500 -2.73135722812500 -2.45176898750000 
 C -1.18062206562500 -3.33480822812500 -1.81093898750000 
 N -0.490726065624999 -7.44102522812500 -2.57206998750000 
 N -2.61787906562500 -6.30610222812500 -3.46712998750000 
 N -2.83212906562500 -6.88424122812500 0.438185012500000 
 N -0.155159065624999 -3.59005722812500 -2.65187798750000 
 N -2.23578106562500 -2.48667622812500 -3.76756998750000 
 N -2.92340206562500 -2.89229822812500 0.120095012500000 
 S -1.10242806562500 -6.85100622812500 -3.99401198750000 
 S -3.78021006562500 -6.49188222812500 -0.819374987500000 
 S -1.38085406562500 -7.58725522812500 4.736901249999947E-002
 S -0.766890065624999 -3.18200222812500 -4.15048798750000 
 S -3.70515506562500 -2.43826922812500 -1.27285498750000 
 S -1.34645806562500 -3.52729722812500 -6.611998750000070E-002
