16

 C -2.43009090625000 -6.65165055000000 -2.28735677187500 
 C -1.18359990625000 -6.95726555000000 -1.63375177187500 
 C -2.38367890625000 -2.62663955000000 -2.52994477187500 
 C -1.12274890625000 -3.11674355000000 -2.03027677187500 
 N -0.117777906249999 -6.94763955000000 -2.41750177187500 
 N -2.33975590625000 -6.38926455000000 -3.58045977187500 
 N -2.87622890625000 -6.72974855000000 0.269956228125001 
 N -0.182775906249999 -3.38279655000000 -2.92239477187500 
 N -2.37410590625000 -2.43643455000000 -3.84851477187500 
 N -2.60204590625000 -2.97230655000000 -1.330277187499940E-002
 S -0.693695906249999 -6.59755455000000 -3.92418677187500 
 S -3.76315590625000 -6.60225255000000 -1.16170377187500 
 S -1.25550790625000 -7.09843455000000 7.575022812500043E-002
 S -0.920175906249999 -2.90855955000000 -4.34953677187500 
 S -3.54181090625000 -2.41760955000000 -1.22637277187500 
 S -1.07037290625000 -3.49737355000000 -0.364350771874999 
