16

 C -2.48789579374999 -6.56650935312500 -2.19215730937500 
 C -1.22629379374999 -7.05362735312500 -1.66916730937500 
 C -2.50756079374999 -2.84806035312500 -2.45007630937500 
 C -1.33331179374999 -3.38586935312500 -1.76704630937500 
 N -0.320950793749994 -7.15061935312500 -2.61859330937500 
 N -2.48850079374999 -6.28668635312500 -3.50871130937500 
 N -2.82332879374999 -7.08110535312500 0.356947690625001 
 N -0.297326793749995 -3.51333435312500 -2.57192430937500 
 N -2.30060079374999 -2.67385135312500 -3.73577030937500 
 N -3.21527679374999 -3.13002935312500 -1.589630937499886E-002
 S -0.939329793749994 -6.55204435312500 -4.03809030937500 
 S -3.62085779374999 -6.37556935312500 -0.879402309374999 
 S -1.29002279375000 -7.43778635312500 3.498969062500112E-002
 S -0.775679793749995 -3.17708535312500 -4.15562330937500 
 S -3.77486879375000 -2.29851335312500 -1.38633130937500 
 S -1.63794979374999 -3.59767835312500 -9.169230937499862E-002
