16

 C -2.40420600937500 -6.44945132812500 -2.19427177187500 
 C -1.22342600937500 -6.94055332812500 -1.58821877187500 
 C -2.18345700937500 -2.54487332812500 -2.55285277187500 
 C -1.03717600937500 -2.95509732812500 -1.86105477187500 
 N -0.209957009375001 -7.03252832812500 -2.45319377187500 
 N -2.34705900937500 -6.10094832812500 -3.48295077187500 
 N -2.86856000937500 -6.77963532812500 0.327691228124998 
 N -4.203009375000732E-003 -3.27751032812500 -2.59846577187500 
 N -1.98646100937500 -2.51953232812500 -3.86384377187500 
 N -2.96732300937500 -2.91145732812500 -0.159986771875002 
 S -0.809052009375000 -6.68037432812500 -3.94285877187500 
 S -3.73978700937500 -6.43075232812500 -0.988510771875002 
 S -1.32868600937500 -7.41791432812500 2.224522812499830E-002
 S -0.400137009375000 -2.90901632812500 -4.20202777187500 
 S -3.60696000937500 -2.33128432812500 -1.61701077187500 
 S -1.33464800937500 -3.09521032812500 -0.159701771875002 
