16

 C -2.45496273437500 -6.46319341875000 -2.33758209375000 
 C -1.20644473437500 -6.90640941875000 -1.73229009375000 
 C -2.34422473437500 -3.03060441875000 -2.19720209375000 
 C -1.07102673437500 -3.35552241875000 -1.71732209375000 
 N -0.186233734375004 -7.01623341875000 -2.58613909375000 
 N -2.39289773437500 -6.35404541875000 -3.66162509375000 
 N -2.90544773437500 -6.72556941875000 8.787290624999833E-002
 N -0.104544734375003 -3.43973541875000 -2.61153609375000 
 N -2.38546173437500 -2.76857941875000 -3.50194509375000 
 N -2.62856273437500 -3.36479341875000 0.357359906249998 
 S -0.832909734375003 -6.61932441875000 -4.08026609375000 
 S -3.71620673437500 -6.34929841875000 -1.27360909375000 
 S -1.24460873437500 -7.01919141875000 2.073290624999835E-002
 S -0.881564734375003 -3.11528241875000 -4.07909409375000 
 S -3.61310573437500 -3.13234641875000 -0.981085093750002 
 S -1.00864773437500 -3.54957541875000 -5.555093750001738E-003
