16

 C -2.24787345312501 -6.34301070625000 -2.62255700937500 
 C -1.13026445312501 -6.99052370625000 -1.95097100937500 
 C -2.70790845312501 -2.45135870625000 -2.41930500937500 
 C -1.57202745312501 -3.08838070625000 -1.65878400937500 
 N -0.113880453125010 -7.33670770625000 -2.71654100937500 
 N -2.06053245312501 -6.21710470625000 -3.91270700937500 
 N -2.80459845312501 -6.51414870625000 -6.084800937499990E-002
 N -0.495180453125011 -3.33609470625000 -2.43408400937500 
 N -2.44811845312501 -2.16693370625000 -3.71739200937500 
 N -3.35145345312501 -2.49881770625000 0.112100990625000 
 S -0.493762453125011 -6.83778870625000 -4.25361700937500 
 S -3.55490045312501 -6.15763670625000 -1.51969200937500 
 S -1.28034145312501 -7.17720070625000 -0.223479009375000 
 S -0.958725453125011 -2.84964270625000 -3.99009700937500 
 S -4.04268345312501 -2.12573970625000 -1.37352100937500 
 S -1.80105045312501 -3.10278170625000 5.729199062500023E-002
