16

 C -2.26703798437501 -6.57082780312500 -2.28752877500000 
 C -0.920630984375006 -6.91678780312500 -1.82938677500000 
 C -2.54768898437501 -2.77033180312500 -2.36352577500000 
 C -1.27698698437501 -3.25252880312500 -1.71914577500000 
 N 6.947015624993114E-003 -6.95305180312500 -2.77260677500000 
 N -2.33586898437501 -6.45719680312500 -3.60682477500000 
 N -2.39292598437501 -6.94426280312500 0.294772225000001 
 N -0.289667984375007 -3.50647980312500 -2.60297877500000 
 N -2.45402898437501 -2.65518680312500 -3.70139077500000 
 N -3.08015598437501 -2.96053780312500 0.179224225000001 
 S -0.804809984375007 -6.69616480312500 -4.19006077500000 
 S -3.40882598437501 -6.63100080312500 -0.971957774999999 
 S -0.818061984375007 -7.27396480312500 -0.103151774999999 
 S -0.938105984375007 -3.07561680312500 -4.10129477500000 
 S -3.83771598437501 -2.45001080312500 -1.23319077500000 
 S -1.48839698437501 -3.53388880312500 -3.074774999999308E-003
