16

 C -2.35032717500000 -6.17146496562500 -2.21106176250000 
 C -1.18697317500000 -6.76594696562500 -1.67307776250000 
 C -2.45885117500000 -2.84742096562500 -2.73178076250000 
 C -1.18383317500000 -3.06178996562500 -2.08415576250000 
 N -0.180681175000001 -6.93463196562500 -2.54636176250000 
 N -2.17954717500000 -5.83699596562500 -3.46299376250000 
 N -2.84544317500000 -6.65689796562500 0.288711237500000 
 N -0.177565175000001 -2.83388796562500 -2.94829176250000 
 N -2.41656117500000 -2.49170496562500 -4.03925576250000 
 N -2.92186517500000 -3.02166196562500 -0.206950762500000 
 S -0.678720175000001 -6.29475696562500 -4.03485476250000 
 S -3.66257417500000 -6.20899296562500 -1.13450876250000 
 S -1.31047417500000 -7.13687496562500 5.463323750000004E-002
 S -0.829491175000001 -2.59892596562500 -4.41489676250000 
 S -3.75975017500000 -2.99352996562500 -1.60651776250000 
 S -1.26107317500000 -3.31391296562500 -0.354041762500000 
