16

 C -2.58651266875000 -6.53291660000000 -2.47201026562500 
 C -1.36669866875000 -6.99677760000000 -1.86927626562500 
 C -2.59685166875000 -2.76142560000000 -2.53244726562500 
 C -1.36721866875000 -3.12747960000000 -1.78915326562500 
 N -0.347725668749998 -7.10492360000000 -2.71503026562500 
 N -2.48665466875000 -6.29296560000000 -3.79229826562500 
 N -3.01382466875000 -6.97409060000000 6.968673437500073E-002
 N -0.366862668749999 -3.41291760000000 -2.61512226562500 
 N -2.37969966875000 -2.65358460000000 -3.84345126562500 
 N -3.23612866875000 -2.78868860000000 -5.510726562499935E-002
 S -0.897968668749998 -6.64745460000000 -4.23574226562500 
 S -3.90083566875000 -6.46063260000000 -1.26577526562500 
 S -1.34548966875000 -7.22405260000000 -0.148973265624999 
 S -0.750222668749998 -3.06903460000000 -4.15907426562500 
 S -3.92186866875000 -2.47356660000000 -1.51841726562500 
 S -1.65541566875000 -3.27354560000000 -8.628726562499911E-002
