16

 C -2.32528190312500 -6.37402754375000 -2.64721224687500 
 C -1.08184190312500 -6.74315954375000 -1.99341124687500 
 C -2.79480390312500 -2.71891354375000 -2.35045424687500 
 C -1.60923690312500 -3.05359554375000 -1.63251724687500 
 N -8.254290312500334E-002 -7.05957854375000 -2.80492124687500 
 N -2.19808590312500 -6.35199654375000 -3.96110224687500 
 N -2.78429790312500 -6.43195354375000 -7.786624687499799E-002
 N -0.533854903125004 -3.14685254375000 -2.41958624687500 
 N -2.66349790312500 -2.64590254375000 -3.68160924687500 
 N -3.42605390312500 -2.86452354375000 0.147443753125002 
 S -0.664433903125004 -6.80655554375000 -4.33532924687500 
 S -3.56606690312500 -6.07168354375000 -1.48652024687500 
 S -1.17874690312500 -6.86719854375000 -0.209336246874998 
 S -1.09347590312500 -3.02753254375000 -3.95468624687500 
 S -4.06309490312500 -2.30328954375000 -1.25568924687500 
 S -1.80566890312500 -3.11174354375000 7.096375312500180E-002
