16

 C -2.26986116562500 -6.28303566875000 -2.08310756562500 
 C -1.12228816562500 -6.91268066875000 -1.52465056562500 
 C -2.35663116562500 -2.62153766875000 -2.27513156562500 
 C -1.22553316562500 -3.19040866875000 -1.62100656562500 
 N -9.066416562499757E-002 -6.93616166875000 -2.36992456562500 
 N -2.12126816562500 -5.73400866875000 -3.27422556562500 
 N -2.98953716562500 -6.75679766875000 0.369015434374999 
 N -0.189171165624998 -3.48669666875000 -2.38950156562500 
 N -2.08599616562500 -2.26077566875000 -3.52842756562500 
 N -3.09301716562500 -2.99935866875000 0.211632434374999 
 S -0.601919165624998 -6.17840266875000 -3.75578156562500 
 S -3.65471516562500 -6.14872166875000 -0.990877565625001 
 S -1.34785216562500 -7.17266466875000 0.212112434374999 
 S -0.463062165624998 -2.81173766875000 -3.84198556562500 
 S -3.77325016562500 -2.47518466875000 -1.23459156562500 
 S -1.42244816562500 -3.31408166875000 0.158878434374999 
