16

 C -2.67712769687500 -6.38837899687500 -2.52533876250000 
 C -1.41319069687500 -6.90081599687500 -2.01887976250000 
 C -2.64848669687500 -2.90921199687500 -2.40804176250000 
 C -1.44921969687500 -3.26021599687500 -1.61682376250000 
 N -0.442349696875000 -7.10202999687500 -2.94196976250000 
 N -2.59888069687500 -6.10331399687500 -3.81981276250000 
 N -3.01683869687500 -6.76396099687500 7.963423749999965E-002
 N -0.401483696875000 -3.56124599687500 -2.34419776250000 
 N -2.52634169687500 -3.04597699687500 -3.73193076250000 
 N -3.35241769687500 -2.78623599687500 0.118833237500000 
 S -1.08047369687500 -6.56193599687500 -4.37579276250000 
 S -3.78108969687500 -5.98243499687500 -1.17173476250000 
 S -1.35601569687500 -7.21777499687500 -0.269396762500000 
 S -0.927399696875000 -3.48032099687500 -3.94062576250000 
 S -4.03292069687500 -2.62442499687500 -1.40018176250000 
 S -1.79984969687500 -3.45318499687500 0.124595237500000 
