16

 C -2.44645917187501 -6.45421923125000 -2.35633734687500 
 C -1.17635917187501 -6.83807323125000 -1.72974534687500 
 C -2.54240217187500 -2.89050223125000 -2.55057234687500 
 C -1.28565717187501 -3.30866723125000 -2.01911234687500 
 N -0.167219171875005 -6.73462823125000 -2.57838834687500 
 N -2.37178317187501 -6.16707923125000 -3.65867234687500 
 N -2.94157717187501 -6.84707023125000 0.185538653125001 
 N -0.222924171875006 -3.32149623125000 -2.81374134687500 
 N -2.46879517187500 -2.54793023125000 -3.85314334687500 
 N -2.91544317187501 -3.20620023125000 -6.887134687499907E-002
 S -0.774419171875006 -6.46232823125000 -4.07728534687500 
 S -3.78684017187501 -6.50743723125000 -1.18668134687500 
 S -1.27893917187501 -7.08530423125000 -7.248346874999090E-003
 S -0.892727171875006 -2.73782223125000 -4.32200334687500 
 S -3.81955517187501 -2.92606923125000 -1.42386334687500 
 S -1.29858217187501 -3.48488123125000 -0.315891346874999 
