16

 C -2.59622317187499 -6.13786570000000 -2.70159094375000 
 C -1.36445117187499 -6.55478470000000 -2.04339794375000 
 C -2.40901217187499 -2.72535970000000 -2.50256794375000 
 C -1.18912217187499 -2.96009370000000 -1.85687894375000 
 N -0.295029171874992 -6.66977670000000 -2.84529094375000 
 N -2.41452717187499 -5.98341170000000 -4.02900294375000 
 N -3.20538217187499 -6.68062170000000 -0.241865943749999 
 N -0.165418171874992 -3.21390170000000 -2.68977694375000 
 N -2.37223417187499 -2.64881170000000 -3.83509494375000 
 N -3.01244217187499 -2.81165470000000 -5.503394374999826E-002
 S -0.840248171874992 -6.42208970000000 -4.34931694375000 
 S -3.94377217187499 -6.18389570000000 -1.66843694375000 
 S -1.53048717187499 -6.94618370000000 -0.318510943749998 
 S -0.781385171874992 -2.95986370000000 -4.19038594375000 
 S -3.84470517187499 -2.71899270000000 -1.42635194375000 
 S -1.38794117187499 -3.16837870000000 -0.139985943749998 
