16

 C -2.38249472500000 -6.35798340000000 -2.55597245000000 
 C -1.14556572500000 -6.67753640000000 -1.80857645000000 
 C -2.43073072500000 -2.82309040000000 -2.54724645000000 
 C -1.15095672500000 -3.19467440000000 -1.92448545000000 
 N -0.142715725000001 -6.89631840000000 -2.63983845000000 
 N -2.21089372500000 -6.25731240000000 -3.87573045000000 
 N -3.08312472500000 -6.32411640000000 -6.490844999999745E-002
 N -0.101389725000002 -3.23881140000000 -2.75127445000000 
 N -2.31730872500000 -2.64572840000000 -3.83795045000000 
 N -2.92123272500000 -2.91671640000000 -6.681444999999764E-002
 S -0.616887725000002 -6.58980440000000 -4.24499745000000 
 S -3.86344572500000 -6.22550840000000 -1.56767845000000 
 S -1.50377972500000 -6.82237540000000 -0.119571449999998 
 S -0.732448725000001 -2.89506340000000 -4.29591245000000 
 S -3.74290772500000 -2.53522740000000 -1.47412945000000 
 S -1.22955172500000 -3.20563040000000 -0.165510449999998 
