16

 C -2.39598993750000 -6.53473063437500 -2.32881084375000 
 C -1.11865593750000 -6.99305963437500 -1.83602084375000 
 C -2.40526693750000 -2.64447763437500 -2.49956984375000 
 C -1.25912293750000 -3.23845663437500 -1.87591784375000 
 N -0.123059937499998 -7.14814763437500 -2.73735084375000 
 N -2.34187993750000 -6.37496863437500 -3.62605584375000 
 N -2.55085693750000 -6.54756963437500 0.252667156249999 
 N -0.362919937499998 -3.66868163437500 -2.76473984375000 
 N -2.32283993750000 -2.40266763437500 -3.82332384375000 
 N -3.05146293750000 -2.94751163437500 2.567115624999872E-002
 S -0.834913937499998 -6.74481863437500 -4.17132384375000 
 S -3.50554993750000 -6.11967463437500 -1.11176284375000 
 S -1.00082893750000 -6.93811163437500 -0.104854843750001 
 S -0.848782937499998 -2.98579963437500 -4.26916184375000 
 S -3.75767493750000 -2.37798063437500 -1.37316284375000 
 S -1.45205593750000 -3.37249663437500 -8.615584375000118E-002
