16

 C -2.50629622500001 -6.48839540937501 -2.34430815312500 
 C -1.27253022500001 -6.91498040937501 -1.75369415312500 
 C -2.31120322500001 -2.93696740937501 -2.28467715312500 
 C -1.04168022500001 -3.39096540937501 -1.66091215312500 
 N -0.248250225000011 -7.00234940937501 -2.57834115312500 
 N -2.42596122500001 -6.35559840937501 -3.65006515312500 
 N -2.95535122500001 -6.67825340937501 0.221278846875000 
 N -5.395722500001110E-002 -3.54324640937501 -2.53740715312500 
 N -2.14566422500001 -2.72400140937501 -3.57866815312500 
 N -2.75851222500001 -3.41620840937501 0.201167846875000 
 S -0.873161225000011 -6.74849440937501 -4.13097215312500 
 S -3.80131122500001 -6.32404240937501 -1.11559715312500 
 S -1.35963322500001 -6.98819040937501 -1.986515312499981E-002
 S -0.579140225000010 -3.02281840937501 -4.03656215312500 
 S -3.58522422500001 -2.91819340937501 -1.16653615312500 
 S -1.16502922500001 -3.80709140937501 8.453846875000171E-003
