16

 C -2.47830705937500 -6.40942829687500 -2.59955133125000 
 C -1.34648705937500 -6.86199929687500 -1.79320833125000 
 C -2.53201705937500 -2.54313829687500 -2.42862033125000 
 C -1.31424505937500 -2.87854329687500 -1.71455633125000 
 N -0.243661059375000 -7.06732729687500 -2.49327033125000 
 N -2.18213105937500 -6.22231929687500 -3.87699733125000 
 N -3.23131205937500 -6.62578329687500 -9.899133125000059E-002
 N -0.239308059375000 -3.03913629687500 -2.48310033125000 
 N -2.33051705937500 -2.39273729687500 -3.71746333125000 
 N -3.13634605937500 -2.53822729687500 0.108416668749999 
 S -0.609407059375001 -6.72731229687500 -4.06385133125000 
 S -3.87960305937500 -6.05055929687500 -1.55838733125000 
 S -1.61988405937500 -6.94395329687500 -0.130526331250000 
 S -0.773072059375001 -2.74834129687500 -4.10575533125000 
 S -3.82780305937500 -2.27290629687500 -1.36226133125000 
 S -1.54934005937500 -3.04709229687500 -1.631433125000026E-002
