16

 C -2.55902155625000 -6.45091482812500 -2.44961993750000 
 C -1.34006555625000 -6.88953882812500 -1.78533393750000 
 C -2.64006855625000 -2.87733882812500 -2.45003793750000 
 C -1.40851455625000 -3.35648082812500 -1.83345593750000 
 N -0.317441556249999 -7.12149382812500 -2.61403593750000 
 N -2.42175455625000 -6.26271182812500 -3.77050393750000 
 N -3.12395955625000 -6.71532782812500 8.284606249999915E-002
 N -0.401666556249999 -3.58044382812500 -2.67319593750000 
 N -2.54422355625000 -2.75141182812500 -3.76598493750000 
 N -3.20364355625000 -3.10781582812500 -3.587993750000074E-002
 S -0.802013556249999 -6.62784582812500 -4.13493793750000 
 S -3.83325155625000 -6.12172682812500 -1.31775493750000 
 S -1.45537855625000 -6.98346882812500 -3.501493750000084E-002
 S -0.983369556250000 -3.12037182812500 -4.17615593750000 
 S -4.07628855625000 -2.99673682812500 -1.43720093750000 
 S -1.58498355625000 -3.69137382812500 -0.154113937500001 
