16

 C -2.44526961562499 -6.52300941250000 -2.33463205625000 
 C -1.17471161562499 -6.83936741250000 -1.71649205625000 
 C -2.35026561562499 -2.94985741250000 -2.27512305625000 
 C -1.05618161562499 -3.38512141250000 -1.71831005625000 
 N -0.218691615624994 -7.06012341250000 -2.59984005625000 
 N -2.44496361562499 -6.34480641250000 -3.64397505625000 
 N -2.90823061562499 -6.74175241250000 0.183263943750000 
 N -6.340861562499445E-002 -3.46669641250000 -2.60790105625000 
 N -2.30697561562499 -2.68700741250000 -3.57535805625000 
 N -2.70579261562499 -3.39555641250000 0.283799943750000 
 S -0.872566615624994 -6.67019841250000 -4.05756905625000 
 S -3.79219461562499 -6.33293741250000 -1.23838105625000 
 S -1.26715661562499 -7.01172741250000 -1.813405624999964E-002
 S -0.736970615624995 -3.08820941250000 -4.04419005625000 
 S -3.61382461562499 -3.03776241250000 -1.03995005625000 
 S -1.05790961562499 -3.65837241250000 1.018194375000014E-002
