16

 C -2.69199922812501 -6.46431902500000 -2.32713582500000 
 C -1.49191222812501 -6.88635102500000 -1.66350182500000 
 C -2.50978822812501 -2.63543102500000 -2.47114782500000 
 C -1.24422322812500 -3.08700002500000 -1.85642382500000 
 N -0.489422228125005 -7.22484802500000 -2.46235082500000 
 N -2.49460322812501 -6.32580602500000 -3.64288982500000 
 N -3.19275122812501 -6.47409502500000 0.181724175000001 
 N -0.318498228125005 -3.46439502500000 -2.73327482500000 
 N -2.53114822812501 -2.63445302500000 -3.81506982500000 
 N -2.92776822812501 -2.91244002500000 0.120478175000001 
 S -0.978496228125005 -6.91611602500000 -4.00122982500000 
 S -4.01353022812501 -6.17990802500000 -1.25928082500000 
 S -1.56419322812501 -6.93112502500000 7.970517500000129E-002
 S -0.991437228125005 -3.14210402500000 -4.25023582500000 
 S -3.77355422812500 -2.63523902500000 -1.27325882500000 
 S -1.33217122812500 -3.35733502500000 -9.811182499999882E-002
