16

 C -2.57014388437500 -6.32408861250000 -2.23575468125000 
 C -1.37630688437500 -6.85692061249999 -1.58450968125000 
 C -2.49852488437500 -3.10573061250000 -2.32030668125000 
 C -1.23677588437500 -3.28635661249999 -1.65752968125000 
 N -0.387626884375003 -7.05548361249999 -2.42623068125000 
 N -2.52723788437500 -6.19013961249999 -3.55566468125000 
 N -3.06433388437500 -6.57814361249999 0.263410318749999 
 N -0.193102884375004 -3.41198961249999 -2.48916968125000 
 N -2.43795188437500 -2.98189761249999 -3.64196268125000 
 N -3.02416388437500 -3.17073561249999 0.176716318749999 
 S -0.928563884375004 -6.60362961249999 -3.93175568125000 
 S -3.82499588437500 -6.17054761249999 -1.10107768125000 
 S -1.51194388437500 -7.10143361249999 6.906631874999936E-002
 S -0.900688884375004 -3.22342761249999 -4.01221068125000 
 S -3.79571988437500 -2.87442361249999 -1.24259468125000 
 S -1.35534188437500 -3.35764161249999 8.012831874999926E-002
