16

 C -2.38005654375000 -6.36399520937500 -2.55236681562500 
 C -1.12101854375000 -6.70563820937500 -1.92611581562500 
 C -2.74163554375000 -2.78488820937500 -2.30549581562500 
 C -1.58481154375000 -3.21737220937500 -1.72051281562500 
 N -0.161019543750002 -6.83708620937500 -2.82649581562500 
 N -2.39061154375000 -6.33518920937500 -3.89072781562500 
 N -2.82063854375000 -6.33474320937500 2.755418437499935E-002
 N -0.603309543750002 -3.52773920937500 -2.57122581562500 
 N -2.63388954375000 -2.57430620937500 -3.60800581562500 
 N -3.25571254375000 -2.91883620937500 0.205072184374999 
 S -0.851731543750001 -6.62670820937500 -4.33171381562500 
 S -3.70549654375000 -6.10389020937500 -1.36649181562500 
 S -1.17643654375000 -6.64354420937500 -0.171908815625001 
 S -1.13230254375000 -3.16329220937500 -4.05870381562500 
 S -4.05209454375000 -2.60877620937500 -1.22190781562500 
 S -1.64301754375000 -3.32127220937500 6.221843749993905E-004
