16

 C -2.20073225937500 -6.34904066250000 -2.45207507187500 
 C -1.04193725937500 -6.83556866250000 -1.74519107187500 
 C -2.83570225937500 -2.53639966250000 -2.50431007187500 
 C -1.56283425937500 -2.88129766250000 -1.90605207187500 
 N 1.902374062499668E-002 -7.05407866250000 -2.49399107187500 
 N -2.04390225937500 -6.12852666250000 -3.76866207187500 
 N -2.89380625937500 -6.60337566250000 9.441092812499963E-002
 N -0.497718259375003 -2.89135166250000 -2.71657307187500 
 N -2.74988825937500 -2.31147566250000 -3.84809007187500 
 N -3.34906825937500 -2.85827666250000 8.236928124999654E-003
 S -0.440920259375003 -6.52287766250000 -4.02336007187500 
 S -3.60557525937500 -6.16318766250000 -1.31977407187500 
 S -1.25638025937500 -7.09025866250000 -1.832407187500040E-002
 S -1.15567025937500 -2.48254266250000 -4.22022207187500 
 S -4.18055725937500 -2.47661166250000 -1.41815907187500 
 S -1.70584525937500 -3.03978766250000 -0.198914071875000 
