16

 C -2.52081165625000 -6.16559783125000 -2.47380037812500 
 C -1.40797565625000 -6.84043783125000 -1.86957237812500 
 C -2.63094665625000 -2.61485383125000 -2.43488737812500 
 C -1.51629565625000 -3.13421383125000 -1.69794137812500 
 N -0.358904656250000 -7.09793583125000 -2.64998237812500 
 N -2.35939065625000 -6.01700883125000 -3.77688937812500 
 N -3.24517365625000 -6.63073783125000 -5.095437812500236E-002
 N -0.419375656250001 -3.26096583125000 -2.50251337812500 
 N -2.45864365625000 -2.47527283125000 -3.73387937812500 
 N -3.45553165625000 -2.88261883125000 -5.011637812500203E-002
 S -0.794159656250001 -6.52026383125000 -4.17254637812500 
 S -3.85084665625000 -5.95145383125000 -1.42360437812500 
 S -1.67893765625000 -7.28697583125000 -0.231260378125002 
 S -0.839694656250000 -2.85221983125000 -3.97980037812500 
 S -4.01315065625000 -2.21865883125000 -1.49925237812500 
 S -1.86688565625000 -3.38251783125000 -1.731378125002347E-003
