16

 C -2.28638765000000 -6.10388810000000 -2.03042074375000 
 C -1.09947265000000 -6.66297410000000 -1.49884374375000 
 C -2.32181765000000 -2.72311910000000 -2.35102874375000 
 C -1.16084665000000 -3.15965810000000 -1.62511374375000 
 N -0.108994649999995 -6.78759910000000 -2.36555874375000 
 N -2.19791565000000 -5.77380110000000 -3.29772274375000 
 N -2.73267465000000 -6.80685310000000 0.386305256250001 
 N -6.718464999999529E-002 -3.32710310000000 -2.37643574375000 
 N -2.15159265000000 -2.55521310000000 -3.65320874375000 
 N -3.12499265000000 -2.82888510000000 0.135421256250001 
 S -0.752427649999995 -6.31751110000000 -3.76087374375000 
 S -3.61199665000000 -6.14039410000000 -0.900317743749999 
 S -1.15661965000000 -7.28144710000000 8.471125625000120E-002
 S -0.621636649999996 -3.11048910000000 -3.94947974375000 
 S -3.73441765000000 -2.36888610000000 -1.37496974375000 
 S -1.55479665000000 -3.35150710000000 9.006625625000120E-002
