16

 C -2.70999592812500 -6.69527569062500 -2.37743709375000 
 C -1.45372292812500 -7.08498969062500 -1.81789109375000 
 C -2.24709292812500 -3.00007669062500 -2.24504609375000 
 C -1.04109992812500 -3.43353369062500 -1.53622509375000 
 N -0.430485928124999 -7.26319769062500 -2.63665109375000 
 N -2.57657092812500 -6.57984569062500 -3.67316709375000 
 N -3.11035892812500 -6.82889969062500 0.170175906249999 
 N -5.263792812499890E-002 -3.58879669062500 -2.36769909375000 
 N -2.11034492812500 -2.98835969062500 -3.56004409375000 
 N -2.86794392812500 -3.30533169062500 0.222299906249999 
 S -1.03091392812500 -7.01647269062500 -4.14610809375000 
 S -4.01044892812500 -6.45636369062500 -1.20242609375000 
 S -1.45715892812500 -7.18083569062500 -7.919109375000088E-002
 S -0.514807928124999 -3.26169569062500 -3.93638809375000 
 S -3.55952292812500 -2.77412969062500 -1.20907209375000 
 S -1.30252492812500 -3.83549669062500 0.111668906249999 
