16

 C -2.35782881250000 -6.40477524062500 -2.45885778437500 
 C -1.15134881250000 -6.83690224062500 -1.78611278437500 
 C -2.52559581250000 -2.54147624062500 -2.16587978437500 
 C -1.24220981250000 -2.95090024062500 -1.63020678437500 
 N -0.138446812499999 -7.05463224062500 -2.62960778437500 
 N -2.21565581250000 -6.18695324062500 -3.76873478437500 
 N -2.91325081250000 -6.51652424062500 7.123121562499724E-002
 N -0.239920812499999 -3.09217324062500 -2.50399778437500 
 N -2.50187181250000 -2.37118124062500 -3.48106178437500 
 N -2.93181781250000 -2.90838824062500 0.405778215624997 
 S -0.645196812499999 -6.61528324062500 -4.13490078437500 
 S -3.76480181250000 -6.16103624062500 -1.34452178437500 
 S -1.35921681250000 -7.07018024062500 -8.769378437500297E-002
 S -0.962218812499999 -2.82087524062500 -3.97684478437500 
 S -3.79181381250000 -2.41198624062500 -0.997050784375003 
 S -1.34489881250000 -3.37557724062500 0.100719215624997 
