16

 C -2.27410406875000 -6.24830159687500 -2.39328935937500 
 C -1.15182806875000 -6.83684359687500 -1.63541735937500 
 C -2.52736506875000 -2.52586359687500 -2.52271835937500 
 C -1.27336006875000 -3.03731959687500 -1.95051935937500 
 N -0.171787068750000 -7.17265659687500 -2.44616035937500 
 N -2.11390706875000 -6.18451159687500 -3.68260835937500 
 N -2.98753806875000 -6.18340859687500 6.414664062500020E-002
 N -0.254638068750000 -3.02920959687500 -2.79865735937500 
 N -2.42434106875000 -2.07715259687500 -3.79587235937500 
 N -2.88821006875000 -2.80420959687500 1.943864062500023E-002
 S -0.586457068750000 -6.71022259687500 -4.00821535937500 
 S -3.66998206875000 -5.94957559687500 -1.38945535937500 
 S -1.49452706875000 -6.93075459687500 7.999064062500016E-002
 S -0.879018068750000 -2.47284859687500 -4.23419335937500 
 S -3.77578306875000 -2.35129059687500 -1.33382535937500 
 S -1.34154106875000 -3.38827559687500 -0.222047359375000 
