16

 C -2.60107218125000 -6.43517883125000 -2.19579780937500 
 C -1.36461718125000 -6.88318683125000 -1.60388680937500 
 C -2.47423218125000 -3.00510783125000 -2.27668880937500 
 C -1.23887518125000 -3.31458383125000 -1.62179580937500 
 N -0.323934181250004 -7.05731883125000 -2.44421080937500 
 N -2.48393118125000 -6.20111583125000 -3.49991680937500 
 N -3.06825518125000 -6.59267283125000 0.281395190625002 
 N -0.214554181250004 -3.36518283125000 -2.47061880937500 
 N -2.44897218125000 -2.87541283125000 -3.60301180937500 
 N -2.98157718125000 -3.13727483125000 0.289211190625002 
 S -0.955369181250004 -6.57626483125000 -3.87449480937500 
 S -3.90928818125000 -6.17675283125000 -1.14015580937500 
 S -1.47596318125000 -7.10922483125000 6.738419062500234E-002
 S -0.824108181250004 -3.28568383125000 -4.01650680937500 
 S -3.74062618125000 -2.83377683125000 -1.15024580937500 
 S -1.36721418125000 -3.32379883125000 0.120746190625002 
