16

 C -2.54186555312500 -6.34651162812500 -2.29614292187500 
 C -1.29877955312500 -6.86787962812500 -1.71650992187500 
 C -2.53378655312499 -2.96342062812500 -2.47300492187500 
 C -1.31725955312499 -3.35704962812500 -1.83492392187500 
 N -0.320264553124995 -7.06179662812500 -2.61291292187500 
 N -2.54454555312499 -6.20781762812500 -3.63486392187500 
 N -3.05180155312499 -6.77028162812500 0.222594078125001 
 N -0.260783553124995 -3.31611362812500 -2.57646692187500 
 N -2.43118655312499 -2.77055062812500 -3.77946592187500 
 N -2.98491755312499 -3.22554862812500 9.190107812500092E-002
 S -1.00780655312500 -6.53385662812500 -4.09672492187500 
 S -3.85947755312499 -6.21893562812500 -1.16519492187500 
 S -1.45375155312500 -7.14973162812500 2.453307812500105E-002
 S -0.842652553124995 -2.98335762812500 -4.16306592187500 
 S -3.81036355312500 -2.95389262812500 -1.29106392187500 
 S -1.40709755312499 -3.76310662812500 -0.200768921874999 
