16

 C -2.42704495312500 -6.40926078437500 -2.33530719687500 
 C -1.20575095312500 -6.76600678437500 -1.65805819687500 
 C -2.37935895312500 -3.10121878437500 -2.08124319687500 
 C -1.14496295312500 -3.44412878437500 -1.46611519687500 
 N -0.218778953125001 -6.88706278437500 -2.52583319687500 
 N -2.32267895312500 -6.22349678437500 -3.66721419687500 
 N -2.93410095312500 -6.95091978437500 0.183322803125001 
 N -6.066695312500059E-002 -3.45308178437500 -2.22790219687500 
 N -2.28794495312500 -2.88605378437500 -3.38135919687500 
 N -2.94025795312500 -3.34853878437500 0.465111803125001 
 S -0.769911953125000 -6.64029178437500 -4.06809319687500 
 S -3.74886795312500 -6.53566878437500 -1.26023819687500 
 S -1.30808295312500 -7.04237478437500 2.321180312500082E-002
 S -0.701196953125000 -3.24284278437500 -3.78234519687500 
 S -3.71860395312500 -3.03102978437500 -0.944604196874999 
 S -1.27846095312500 -3.54320478437500 0.253799803125001 
