16

 C -2.32245692187501 -6.35795259687500 -2.49756287500000 
 C -1.21010092187501 -6.79607659687500 -1.73359987500000 
 C -2.64203292187501 -2.53220659687500 -2.43435687500000 
 C -1.40713392187501 -2.74396859687500 -1.76431287500000 
 N -0.131096921875008 -7.03820259687500 -2.47984887500000 
 N -2.10384392187501 -6.23858559687500 -3.80714687500000 
 N -3.12265092187501 -6.49793659687500 -7.134087499999975E-002
 N -0.372057921875008 -2.88482959687500 -2.54297887500000 
 N -2.52131492187501 -2.35841159687500 -3.71832287500000 
 N -3.21968792187501 -2.76458959687500 2.023912500000002E-002
 S -0.515999921875008 -6.64684859687500 -4.04911087500000 
 S -3.77539992187501 -6.16039159687500 -1.59429287500000 
 S -1.57003292187501 -7.03583259687500 -2.186987499999971E-002
 S -0.944038921875008 -2.62671759687500 -4.11740487500000 
 S -4.02089392187501 -2.39993759687500 -1.38020787500000 
 S -1.58114492187501 -2.99240859687500 -9.451487499999978E-002
