16

 C -2.25897313437499 -6.12226742812500 -2.19984528750000 
 C -1.03409513437499 -6.73019142812500 -1.66689428750000 
 C -2.72463113437499 -2.39917542812500 -2.66916628750000 
 C -1.46228613437499 -2.70317042812500 -2.01044828750000 
 N -8.649913437499190E-002 -7.01608042812500 -2.54579628750000 
 N -2.21808913437499 -5.91416742812500 -3.50206928750000 
 N -2.68572613437499 -6.33458942812500 0.308265712500001 
 N -0.449470134374992 -3.01484442812500 -2.84636928750000 
 N -2.66028013437499 -2.36368742812500 -4.03665728750000 
 N -3.20890513437499 -2.49531742812500 -0.130989287499998 
 S -0.734329134374992 -6.42138442812500 -3.98607628750000 
 S -3.45864013437499 -5.74313942812500 -1.04051828750000 
 S -1.13390613437499 -6.93299842812500 6.402771250000128E-002
 S -1.09982513437499 -2.77435042812500 -4.33995728750000 
 S -3.99499113437499 -2.05530242812500 -1.55191628750000 
 S -1.58058213437499 -2.84474842812500 -0.314975287499998 
