16

 C -2.70165771874999 -6.38633419375000 -2.35301462812500 
 C -1.46929771874999 -6.90151619375000 -1.74197162812500 
 C -2.50608971874999 -3.20148419375001 -2.42734262812500 
 C -1.18076271875000 -3.26476619375000 -1.79118862812500 
 N -0.496134718749995 -7.32937519375001 -2.57723662812500 
 N -2.63316771874999 -6.36770719375000 -3.65273162812500 
 N -3.19400071874999 -6.50842419375000 0.177785371875000 
 N -0.226895718749994 -3.26217519375000 -2.69617362812500 
 N -2.51035071874999 -3.07176119375000 -3.76119362812500 
 N -2.85847371874999 -3.06183319375000 0.170473371875000 
 S -1.09343471874999 -6.92323119375000 -4.08530862812500 
 S -3.98425471874999 -6.13175319375000 -1.23645562812500 
 S -1.59858371875000 -6.87634019375001 5.187437187499966E-002
 S -0.916171718749995 -3.19867019375000 -4.19656862812500 
 S -3.73354771874999 -3.16402619375001 -1.18686762812500 
 S -1.18142971875000 -3.24345919375001 -6.709262812500039E-002
