16

 C -2.42047324062500 -6.53169427812500 -2.35295819062500 
 C -1.20948424062500 -7.14920727812500 -1.88877519062500 
 C -2.60503524062500 -2.46728827812500 -2.40812919062500 
 C -1.59902924062500 -3.29408827812500 -1.64760119062500 
 N -0.281717240625004 -7.30935727812500 -2.80366619062500 
 N -2.42497824062500 -6.18410227812500 -3.62937319062500 
 N -2.86159424062500 -7.07747827812500 9.712680937500218E-002
 N -0.607196240625004 -3.80039927812500 -2.37616119062500 
 N -2.31737024062500 -2.35939127812500 -3.70673219062500 
 N -3.44359924062500 -2.57394527812500 2.387280937500202E-002
 S -0.898356240625004 -6.65244027812500 -4.21119819062500 
 S -3.71759024062500 -6.44868527812500 -1.18926819062500 
 S -1.23842424062500 -7.48192227812500 -9.642419062499807E-002
 S -1.01224024062500 -3.27232327812500 -3.94864819062500 
 S -3.99859124062500 -2.02036227812500 -1.44238619062500 
 S -1.86848424062500 -3.28311127812500 7.274480937500205E-002
