16

 C -2.29430438750000 -6.23837156250000 -2.34695988750000 
 C -1.10791538750000 -6.84462756250000 -1.79011188750000 
 C -2.54498538750000 -2.48027556250000 -2.50793388750000 
 C -1.42624438750000 -3.15515156250000 -1.84544188750000 
 N -0.110878387500001 -6.93501756250000 -2.70269588750000 
 N -2.31481238750000 -5.99176756250000 -3.69207488750000 
 N -2.88113938750000 -6.78242156250000 0.127689112499997 
 N -0.481834387500001 -3.63524956250000 -2.64900088750000 
 N -2.36350438750000 -2.33237756250000 -3.83527988750000 
 N -3.19253638750000 -2.48554056250000 5.770112499997371E-003
 S -0.773396387500001 -6.45720156250000 -4.16112988750000 
 S -3.61745838750000 -5.97390856250000 -1.21590188750000 
 S -1.28264538750000 -7.05567656250000 -7.476988750000269E-002
 S -0.907164387500001 -3.08660656250000 -4.15216688750000 
 S -3.89928338750000 -2.10625356250000 -1.41596188750000 
 S -1.65058138750000 -3.14105756250000 -6.920788750000262E-002
