16

 C -2.23485339062501 -6.42773445937500 -2.19177797812500 
 C -1.05439039062501 -6.99683345937500 -1.55124797812500 
 C -2.45454739062501 -2.67707345937500 -2.32011997812500 
 C -1.18133439062501 -3.29395445937500 -1.72543597812500 
 N -5.664639062500676E-002 -7.21466445937500 -2.40720397812500 
 N -2.08571739062501 -6.20003345937500 -3.52348897812500 
 N -2.72702439062501 -6.83706945937500 0.328530021874999 
 N -0.235826390625006 -3.55240545937500 -2.62951497812500 
 N -2.28149539062501 -2.30404345937500 -3.58947397812500 
 N -2.94853039062501 -3.16529545937500 0.192691021874999 
 S -0.571751390625007 -6.76987245937500 -3.88792197812500 
 S -3.62683239062501 -6.41157745937500 -1.05845297812500 
 S -1.11863639062501 -7.27413745937500 0.144842021874999 
 S -0.821047390625007 -2.80511945937500 -4.04416097812500 
 S -3.72174539062501 -2.56246445937500 -1.15824697812500 
 S -1.32666139062501 -3.59737845937500 3.025002187499903E-002
