16

 C -2.37759484687500 -6.36075691875000 -2.55506846250000 
 C -1.11968684687500 -6.69801191875000 -1.92855846250000 
 C -2.74407984687500 -2.78666191875000 -2.30958546250000 
 C -1.59114684687500 -3.22500291875000 -1.72106046250000 
 N -0.160218846875001 -6.83740191875000 -2.82579846250000 
 N -2.39264684687500 -6.33762691875000 -3.88994446250000 
 N -2.81935684687500 -6.33450391875000 2.416453750000325E-002
 N -0.604495846875000 -3.52063691875000 -2.56803046250000 
 N -2.63914484687500 -2.56905691875000 -3.60935446250000 
 N -3.25972384687500 -2.91413591875000 0.206349537500003 
 S -0.848701846875000 -6.63108091875000 -4.33321146250000 
 S -3.69879684687500 -6.10294691875000 -1.36959946250000 
 S -1.17427784687500 -6.64608591875000 -0.170356462499997 
 S -1.13330684687500 -3.16215991875000 -4.05736946250000 
 S -4.04962584687500 -2.60719791875000 -1.22227546250000 
 S -1.64634584687500 -3.31625091875000 2.585375000032641E-004
