16

 C -2.33148737812499 -6.03649348125000 -2.31899210625000 
 C -1.18373937812499 -6.76185748125000 -1.81706510625000 
 C -2.73259337812499 -2.40740948125000 -2.69357810625000 
 C -1.50432837812499 -2.87619648125000 -2.05431010625000 
 N -0.285147378124995 -7.13706148125000 -2.71897110625000 
 N -2.32531537812499 -5.89098748125000 -3.63681310625000 
 N -2.72013737812499 -6.35926248125000 0.204827893750001 
 N -0.455467378124995 -3.11767648125000 -2.87463010625000 
 N -2.61369337812499 -2.39200948125000 -4.03066810625000 
 N -3.11253337812499 -2.40129448125000 -0.217734106249999 
 S -0.904293378124994 -6.55811048125000 -4.15544910625000 
 S -3.54140237812499 -5.75613448125000 -1.07785410625000 
 S -1.23101037812499 -7.09395848125000 -0.115697106249999 
 S -1.06360937812499 -2.76914448125000 -4.44765310625000 
 S -4.01244537812499 -2.12553948125000 -1.56660910625000 
 S -1.53094137812499 -2.88185848125000 -0.351446106249999 
