16

 C -2.28640893125000 -6.38890231562500 -2.36422510000000 
 C -1.16862193124999 -7.02020231562500 -1.75338710000000 
 C -2.50210693124999 -3.04771031562500 -2.35403910000000 
 C -1.20051293125000 -3.20356131562500 -1.70737910000000 
 N -0.187759931249995 -7.21548331562500 -2.59827510000000 
 N -2.15134893124999 -6.10897331562500 -3.65565910000000 
 N -2.82263993125000 -6.97725131562500 4.149390000000008E-002
 N -0.174784931249995 -3.29402031562500 -2.52229410000000 
 N -2.42165993124999 -3.10960931562500 -3.65895810000000 
 N -2.94228293124999 -2.68098831562500 0.146635900000000 
 S -0.630093931249995 -6.68607531562500 -4.10373710000000 
 S -3.60441793125000 -6.14313831562500 -1.24881010000000 
 S -1.22797193124999 -7.23774831562500 -0.106351100000000 
 S -0.838956931249995 -3.18669331562500 -4.03862310000000 
 S -3.81141993124999 -2.73745031562500 -1.25310310000000 
 S -1.33002093124999 -3.06873731562500 5.983899999999931E-003
