16

 C -2.49286275937500 -6.88000260000001 -2.32251896875000 
 C -1.15560975937500 -7.19328460000001 -1.89750196875000 
 C -2.61272275937500 -2.83807960000001 -2.44594096875000 
 C -1.36945975937500 -3.33463160000001 -1.76432596875000 
 N -0.229324759374997 -7.29536160000001 -2.84397996875000 
 N -2.58861775937500 -6.67462360000001 -3.63034596875000 
 N -2.62975275937500 -6.87815560000001 0.202103031250001 
 N -0.358115759374997 -3.53485160000001 -2.61098696875000 
 N -2.50705675937500 -2.57815960000001 -3.73904996875000 
 N -3.25378375937500 -3.25647960000001 -1.139396874999954E-002
 S -1.09247775937500 -6.94938360000001 -4.24667496875000 
 S -3.69343575937500 -6.80507360000001 -1.04459496875000 
 S -1.01808875937500 -7.37401960000001 -0.164360968750000 
 S -0.942971759374997 -3.03687560000001 -4.08066396875000 
 S -3.91957475937500 -2.59583960000001 -1.37184496875000 
 S -1.59670975937500 -3.62169760000001 -7.930796874999935E-002
