16

 C -2.21666924375000 -6.26390568750000 -2.33315225625000 
 C -0.982815243750005 -6.77777168750000 -1.79843625625000 
 C -2.75593724375001 -2.57643568750000 -2.47062425625000 
 C -1.56278524375000 -3.00267568750000 -1.83921525625000 
 N 1.476756249995326E-003 -6.95443768750000 -2.65052025625000 
 N -2.17051024375001 -6.08888868750000 -3.65422925625000 
 N -2.57585924375000 -6.66114668750000 0.222467743750000 
 N -0.510624243750005 -3.16065068750000 -2.63129025625000 
 N -2.62452224375000 -2.31710068750000 -3.78184825625000 
 N -3.36375124375000 -2.94201168750000 -7.106125625000015E-002
 S -0.627464243750005 -6.46338668750000 -4.12273525625000 
 S -3.45692024375001 -6.23419268750000 -1.08709125625000 
 S -1.01297824375000 -7.22419668750000 -6.583925624999987E-002
 S -1.10776224375001 -2.68402568750000 -4.21661425625000 
 S -4.08092624375000 -2.33923768750000 -1.41057525625000 
 S -1.80141424375001 -3.33956568750000 -0.202418256250000 
