16

 C -2.67453398437501 -6.63245175625000 -2.12460541250000 
 C -1.43880998437501 -7.32792875625000 -1.68518941250000 
 C -2.29966298437501 -2.79479175625000 -2.38205641250000 
 C -1.09080198437501 -3.36903475625000 -1.72382441250000 
 N -0.476950984375006 -7.53690675625000 -2.60773641250000 
 N -2.64342598437501 -6.40659575625000 -3.43197441250000 
 N -3.03972998437501 -7.06071075625000 0.268679587499999 
 N -0.108649984375006 -3.69287475625000 -2.59478141250000 
 N -2.20830798437501 -2.60750575625000 -3.71320041250000 
 N -2.83519798437501 -3.09186475625000 0.169149587499999 
 S -1.22181298437501 -6.98517475625000 -3.99904041250000 
 S -3.91129798437501 -6.42391975625000 -1.02714341250000 
 S -1.46069498437501 -7.48114175625000 7.955958749999859E-002
 S -0.661331984375006 -3.14169975625000 -4.05001941250000 
 S -3.56826998437501 -2.52257275625000 -1.22846641250000 
 S -1.19083998437501 -3.50712275625000 3.905858749999847E-002
