16

 C -2.38318031562499 -6.52225730625000 -2.38514268125000 
 C -1.16818631562499 -6.90642330625000 -1.74763968125000 
 C -2.41257131562499 -3.07966830625000 -2.13981668125000 
 C -1.04742031562499 -3.32218130625000 -1.66399968125000 
 N -0.170877315624993 -6.95781530625000 -2.61138068125000 
 N -2.32576631562499 -6.30710930625000 -3.69706968125000 
 N -2.88948631562499 -6.70401930625000 0.156778318750001 
 N -0.185323315624992 -3.42893230625000 -2.66548768125000 
 N -2.46298331562499 -2.90614630625000 -3.45361468125000 
 N -2.58123631562499 -3.35332130625000 0.362885318750001 
 S -0.758380315624993 -6.61025730625000 -4.12082568125000 
 S -3.70725731562499 -6.33642630625000 -1.24497068125000 
 S -1.29900931562499 -7.00966630625000 -3.272681249999021E-003
 S -0.938405315624992 -3.11985530625000 -4.09690768125000 
 S -3.58808131562499 -3.18804830625000 -0.945250681249999 
 S -0.981180315624993 -3.49505630625000 3.050631875000098E-002
