16

 C -2.54546655312499 -6.33984097812499 -2.54212594375000 
 C -1.40373755312499 -7.04052497812499 -1.93518194375000 
 C -2.43574555312499 -2.60125897812499 -2.42871794375000 
 C -1.24721155312499 -3.20102797812499 -1.79780994375000 
 N -0.398292553124994 -7.11937397812499 -2.75245494375000 
 N -2.39719455312499 -5.90801097812499 -3.78079194375000 
 N -3.05739855312499 -6.79997897812499 -7.729494374999923E-002
 N -0.227234553124994 -3.40082697812499 -2.63868594375000 
 N -2.32491555312499 -2.52315497812499 -3.74614594375000 
 N -3.02426055312499 -2.67061897812499 9.224805625000077E-002
 S -0.848472553124994 -6.45955097812499 -4.23627394375000 
 S -3.82307455312499 -6.07265997812499 -1.41114894375000 
 S -1.58586655312499 -7.45328497812499 -0.327583943749999 
 S -0.799690553124994 -2.98279797812499 -4.16416694375000 
 S -3.70884155312499 -2.17272397812499 -1.38714894375000 
 S -1.59047355312499 -3.48904597812499 -8.363694374999930E-002
