16

 C -2.28002602812500 -6.66383915625000 -2.42267087500000 
 C -1.16401202812500 -7.12404215625001 -1.64510587500000 
 C -2.57162602812500 -2.61670815625000 -2.32554987500000 
 C -1.56530002812500 -3.48479215625000 -1.80405987500000 
 N -0.147911028125002 -7.42930315625000 -2.43493387500000 
 N -2.09487002812500 -6.55930815625000 -3.72927887500000 
 N -3.01818802812500 -7.08307115625001 8.522812499999888E-002
 N -0.641538028125002 -3.85893415625000 -2.66412287500000 
 N -2.34329802812500 -2.34051415625000 -3.58956987500000 
 N -2.98910702812500 -2.77484915625000 0.182900124999999 
 S -0.567961028125002 -7.12627615625000 -4.03600387500000 
 S -3.70619702812500 -6.50279215625000 -1.35858687500000 
 S -1.43874602812500 -7.47691615625001 1.237612499999874E-002
 S -1.02884202812500 -3.21723915625001 -4.09446787500000 
 S -3.70479002812500 -1.99363715625000 -1.10136387500000 
 S -1.70202802812500 -3.83376415625000 -5.085587500000122E-002
