16

 C -2.47010597812500 -6.36937145000000 -2.58812687187500 
 C -1.29171097812500 -6.73155045000000 -1.81987987187500 
 C -2.43938897812500 -2.89648345000000 -2.53763987187500 
 C -1.16128197812500 -3.11322145000000 -1.87405387187500 
 N -0.196488978124996 -6.76992445000000 -2.59020887187500 
 N -2.35209497812500 -6.17989645000000 -3.90438287187500 
 N -3.04025597812500 -6.48504445000000 -6.391487187499845E-002
 N -8.542097812499527E-002 -3.28806045000000 -2.67358687187500 
 N -2.32907397812500 -2.87818945000000 -3.89367987187500 
 N -2.95442197812500 -2.74651045000000 -4.358087187499837E-002
 S -0.722804978124995 -6.51588445000000 -4.13217087187500 
 S -3.81139797812500 -6.19295945000000 -1.53707187187500 
 S -1.45567997812500 -6.76309345000000 -0.156656871874998 
 S -0.756228978124995 -3.10054645000000 -4.20580687187500 
 S -3.70073597812500 -2.54953245000000 -1.47235887187500 
 S -1.37114997812500 -3.14436545000000 -0.139799871874998 
