16

 C -2.32288407812500 -6.25211620625000 -2.37654285312500 
 C -1.14005007812500 -6.71210020625000 -1.70731685312500 
 C -2.48050107812500 -2.42930620625000 -2.51564285312500 
 C -1.28250907812500 -3.00474420625000 -1.93260385312500 
 N -0.122682078125004 -7.15327220625000 -2.49956985312500 
 N -2.17218007812500 -6.14648520625000 -3.72127785312500 
 N -3.04034607812500 -6.19436020625000 5.062714687500103E-002
 N -0.249123078125004 -3.04821720625000 -2.78560985312500 
 N -2.39631107812500 -1.99871620625000 -3.77265085312500 
 N -2.89344707812500 -2.80016220625000 6.886714687500106E-002
 S -0.616755078125004 -6.73777520625000 -4.05720485312500 
 S -3.69151907812500 -5.96209020625000 -1.41998585312500 
 S -1.52667507812500 -6.92896320625000 0.108548146875001 
 S -0.877169078125004 -2.46897220625000 -4.20036985312500 
 S -3.75973107812500 -2.33925720625000 -1.32598385312500 
 S -1.34038907812500 -3.35798020625000 -0.183441853124999 
