16

 C -2.31692641250000 -6.75130054375000 -2.40879575937500 
 C -1.11706041250000 -7.24501954375000 -1.72138875937500 
 C -2.55815141250000 -2.65718054375000 -2.32650175937500 
 C -1.55996741250000 -3.52357854375000 -1.77603375937500 
 N -3.628412500001232E-003 -7.47332354375000 -2.46229675937500 
 N -2.14558941250000 -6.71124554375000 -3.71530175937500 
 N -3.04419041250000 -6.90168654375000 0.101004240625000 
 N -0.720959412500002 -4.03179854375000 -2.64115075937500 
 N -2.55995041250000 -2.47301854375000 -3.63437975937500 
 N -3.11953141250000 -2.86749654375000 0.232111240625001 
 S -0.533407412500002 -7.14154154375000 -4.00598475937500 
 S -3.71705341250000 -6.50778354375000 -1.36476975937500 
 S -1.47411641250000 -7.52085754375000 -6.567759374999538E-003
 S -1.14520441250000 -3.25832354375000 -4.10161275937500 
 S -3.76134841250000 -2.16526154375000 -1.14318775937500 
 S -1.77694741250000 -3.78591454375000 -0.130688759374999 
