16

 C -2.42088325625000 -6.35006958125000 -2.36052321562500 
 C -1.21246525625000 -6.82262858125000 -1.68787621562500 
 C -2.23845825625000 -2.42572458125000 -2.07856721562500 
 C -1.10288725625000 -3.27044558125000 -1.65629921562500 
 N -0.159473256250000 -7.11234958125000 -2.44630821562500 
 N -2.17657025625000 -6.27958058125000 -3.65646021562500 
 N -3.06837125625000 -6.61712258125000 0.163227784375003 
 N -0.195448256250001 -3.35243758125000 -2.60770521562500 
 N -2.16836825625000 -1.93425658125000 -3.31532621562500 
 N -2.87363125625000 -3.39734458125000 0.184560784375002 
 S -0.606665256250000 -6.69784758125000 -3.96279621562500 
 S -3.74085825625000 -6.16320558125000 -1.23562021562500 
 S -1.41404825625000 -7.00163358125000 6.370778437500246E-002
 S -0.660186256250000 -2.40023758125000 -3.87327121562500 
 S -3.60128525625000 -2.51373658125000 -0.995209215624998 
 S -1.22088925625000 -3.81495058125000 1.624278437500237E-002
