16

 C -2.26604572500000 -6.64900559062500 -2.35316346875000 
 C -1.15997472500000 -7.23111459062500 -1.65890346875000 
 C -2.44463372499999 -2.52951259062500 -2.30518246875000 
 C -1.45161872500000 -3.40485759062500 -1.80261546875000 
 N -0.144582724999995 -7.42465159062500 -2.50678646875000 
 N -2.17213472499999 -6.44886459062500 -3.64730946875000 
 N -3.07431372500000 -7.15590859062500 -2.794687500016213E-004
 N -0.489349724999995 -3.82994559062500 -2.61391346875000 
 N -2.29931872500000 -2.25314759062500 -3.58525646875000 
 N -2.95906072500000 -2.71662059062500 0.270710531249998 
 S -0.637746724999995 -6.95433559062500 -4.00803646875000 
 S -3.69615572500000 -6.47357259062500 -1.35286046875000 
 S -1.36275172500000 -7.34217359062500 -1.009468750001741E-003
 S -0.932667724999996 -3.07649059062500 -4.07551246875000 
 S -3.57047972499999 -2.03100159062500 -1.14568546875000 
 S -1.69855672500000 -3.74761859062500 -6.136046875000178E-002
