16

 C -2.66695809062500 -6.38839795937501 -2.56959445937500 
 C -1.49437209062500 -6.93689295937501 -1.93347145937500 
 C -2.27189509062500 -2.85243495937500 -2.38206145937500 
 C -1.03473509062500 -3.28219395937501 -1.79712645937500 
 N -0.407666090625002 -7.01065195937501 -2.72426045937500 
 N -2.47132109062500 -6.13668395937501 -3.86070945937500 
 N -3.35880709062500 -6.68604295937500 -8.979745937499861E-002
 N -2.116109062500104E-002 -3.40924195937500 -2.63360845937500 
 N -2.20062409062500 -2.70249195937501 -3.69743245937500 
 N -2.73847809062500 -3.13256195937501 0.162664540625002 
 S -0.890185090625002 -6.56191595937501 -4.24701945937500 
 S -4.04092009062500 -6.35472295937500 -1.53311445937500 
 S -1.83243609062500 -7.30903895937501 -0.142961459374998 
 S -0.628159090625001 -3.04756195937501 -4.11127245937500 
 S -3.61041009062500 -2.71298295937501 -1.22862345937500 
 S -1.16169909062500 -3.57977695937501 -0.112048459374998 
