16

 C -2.62991137812500 -6.33472503437500 -2.48490173125000 
 C -1.40102537812500 -6.92086503437500 -2.04971673125000 
 C -2.66528137812500 -3.08009403437500 -2.34381873125000 
 C -1.50438737812500 -3.40542503437500 -1.61486373125000 
 N -0.470153378125002 -7.04582603437500 -3.01660773125000 
 N -2.71186637812500 -6.20170103437500 -3.80419273125000 
 N -2.88745737812500 -6.77612903437500 -1.051731250000687E-003
 N -0.433384378125002 -3.58764103437500 -2.34528573125000 
 N -2.45572437812500 -2.96629603437500 -3.64488573125000 
 N -3.38072637812500 -2.93289203437500 0.132401268749999 
 S -1.15312737812500 -6.47876103437500 -4.42274973125000 
 S -3.74828337812500 -6.01996103437500 -1.23617073125000 
 S -1.36597537812500 -7.17209803437500 -0.300509731250001 
 S -0.908870378125002 -3.45520503437500 -3.93360373125000 
 S -4.06128437812500 -2.69409803437500 -1.35281473125000 
 S -1.83265637812500 -3.36691103437500 7.144126874999923E-002
