16

 C -2.48267770937500 -6.53439835625000 -2.40738850937500 
 C -1.23943470937500 -7.04031735625000 -1.96054150937500 
 C -2.56014670937500 -2.57136035625000 -2.38770750937500 
 C -1.53752370937500 -3.22047635625000 -1.65676750937500 
 N -0.256265709375000 -7.12526535625000 -2.81625950937500 
 N -2.40599070937500 -6.22546935625000 -3.68921950937500 
 N -2.78344570937500 -7.02350035625000 0.160189490625001 
 N -0.643355709375000 -3.75363935625000 -2.46800350937500 
 N -2.35943270937500 -2.48241235625000 -3.69932150937500 
 N -3.38231470937500 -2.63538235625000 3.586490625000494E-003
 S -0.910382709375000 -6.61375835625000 -4.25633050937500 
 S -3.66307670937500 -6.47711435625000 -1.12693650937500 
 S -1.27289670937500 -7.44412635625000 -0.299308509375000 
 S -0.951661709375000 -3.37419235625000 -4.02327950937500 
 S -3.92810570937500 -2.02118235625000 -1.45070750937500 
 S -1.88486570937500 -3.22030235625000 2.182049062500035E-002
