16

 C -2.38113321875000 -6.59929809999999 -2.50587650312500 
 C -1.13391821875000 -7.05707809999999 -1.92311950312500 
 C -2.40501721875000 -2.92880409999999 -2.50990850312500 
 C -1.24886621875000 -3.50319909999999 -1.80202850312500 
 N -6.256921875000110E-002 -7.13036409999999 -2.73088550312500 
 N -2.25660521875000 -6.27869609999999 -3.79364550312500 
 N -2.84491421875000 -7.05843609999999 2.283149687500052E-002
 N -0.204232218750001 -3.82108409999999 -2.56403450312500 
 N -2.20512921875000 -2.68573109999999 -3.82210750312500 
 N -3.09876721875000 -3.19118909999999 -3.278550312499950E-002
 S -0.686174218750002 -6.57845609999999 -4.18382150312500 
 S -3.72729821875000 -6.64966509999999 -1.35606050312500 
 S -1.21776721875000 -7.35663909999999 -0.239301503125000 
 S -0.676502218750001 -3.28091409999999 -4.07794850312500 
 S -3.74645221875000 -2.68685809999999 -1.49219250312500 
 S -1.50309321875000 -3.70843909999999 -0.130849503124999 
