16

 C -2.42801313750000 -6.52216859687500 -2.30891993750000 
 C -1.23246613750000 -7.01919659687500 -1.70733893750000 
 C -2.39835513750000 -2.57636559687500 -2.37354693750000 
 C -1.32513713750000 -3.26009359687500 -1.76749093750000 
 N -0.178542137499996 -7.10080859687500 -2.46099093750000 
 N -2.23470613750000 -6.34691659687500 -3.62712493750000 
 N -2.84484613750000 -6.76852659687500 0.225220062500001 
 N -0.288777137499997 -3.46870259687500 -2.60084193750000 
 N -2.17394213750000 -2.21196559687500 -3.65463293750000 
 N -3.01722613750000 -2.95357659687500 0.137279062500001 
 S -0.652407137499996 -6.67723959687500 -4.00526693750000 
 S -3.71378313750000 -6.41632659687500 -1.22466993750000 
 S -1.33419713750000 -7.33610659687500 -2.829093749999911E-002
 S -0.736792137499997 -2.92954159687500 -4.05127193750000 
 S -3.66736713750000 -2.20999459687500 -1.21634793750000 
 S -1.45187113750000 -3.60337859687500 -6.217693749999897E-002
