16

 C -2.41140703437501 -6.65028134999999 -2.29536120937500 
 C -1.12334403437501 -6.94718435000000 -1.66949320937500 
 C -2.46927203437501 -2.64994234999999 -2.47979320937500 
 C -1.28416303437501 -3.21526735000000 -1.84279820937500 
 N -0.123193034375006 -7.05844334999999 -2.55676820937500 
 N -2.35682803437501 -6.48802135000000 -3.61902720937500 
 N -2.91788603437501 -6.69053534999999 0.200783790625000 
 N -0.322460034375005 -3.52881334999999 -2.70739420937500 
 N -2.41442903437501 -2.43314834999999 -3.76977220937500 
 N -3.06337703437501 -2.92738234999999 -1.547920937499958E-002
 S -0.821534034375006 -6.76642334999999 -4.02829120937500 
 S -3.67916203437501 -6.50610235000000 -1.19358520937500 
 S -1.27899703437501 -6.93396234999999 7.960479062500037E-002
 S -0.898783034375006 -3.05365834999999 -4.19145020937500 
 S -3.76358303437501 -2.37613234999999 -1.38608820937500 
 S -1.49834103437501 -3.44948335000000 -0.129761209375000 
