16

 C -2.53045607812500 -6.26881518125001 -2.52382098437500 
 C -1.33172107812500 -6.82157018125000 -1.86910998437500 
 C -2.66812707812500 -2.64948318125001 -2.48980098437500 
 C -1.57916007812500 -3.13463418125001 -1.70900298437500 
 N -0.325588078124996 -7.01821418125000 -2.72880798437500 
 N -2.40196707812500 -6.04963118125000 -3.81904698437500 
 N -3.18848207812500 -6.59921718125000 -5.425898437500143E-002
 N -0.418647078124996 -3.33193618125001 -2.40013498437500 
 N -2.40544607812500 -2.39244918125001 -3.76422098437500 
 N -3.44839207812500 -2.83475018125000 -3.261098437500154E-002
 S -0.883508078124996 -6.48840118125000 -4.20790298437500 
 S -3.87480407812500 -5.97983718125001 -1.46520698437500 
 S -1.72055307812500 -7.27221318125001 -0.192250984375002 
 S -0.858103078124996 -2.85530418125000 -4.02655498437500 
 S -4.11424407812500 -2.34856718125001 -1.46555898437500 
 S -1.86483907812500 -3.43640418125000 -8.370598437500165E-002
