16

 C -2.73448731562500 -6.64765213750000 -2.35787983750000 
 C -1.52008431562500 -7.03849213750000 -1.67690283750000 
 C -2.47317631562500 -3.21638613750000 -2.36072883750000 
 C -1.11210831562500 -3.22825013750000 -1.88257483750000 
 N -0.515501315625001 -7.17589213750000 -2.54716083750000 
 N -2.65565331562500 -6.43681713750000 -3.68999583750000 
 N -3.21058731562500 -6.60068313750000 0.212802162499999 
 N -0.142309315625001 -3.17715113750000 -2.80310583750000 
 N -2.53042431562500 -3.14375313750000 -3.69131183750000 
 N -2.77670831562500 -3.10050813750000 0.145698162499999 
 S -1.07118231562500 -6.83682413750000 -4.09346783750000 
 S -3.99037931562500 -6.20309213750000 -1.16147183750000 
 S -1.56975831562500 -6.91822913750000 1.763016249999927E-002
 S -0.956947315625001 -3.21669513750000 -4.25486283750000 
 S -3.76273031562500 -3.07419213750000 -1.24372583750000 
 S -1.13543431562500 -3.27947713750000 -8.390283750000060E-002
