16

 C -2.40628898437501 -6.49647466562500 -2.60050502187500 
 C -1.21256598437501 -6.95061366562500 -1.99375902187500 
 C -2.60809598437501 -2.50934966562500 -2.35929302187500 
 C -1.50009698437501 -3.16961266562500 -1.67025802187500 
 N -0.145548984375009 -7.08989666562500 -2.79618902187500 
 N -2.26155998437501 -6.23378666562500 -3.90031002187500 
 N -3.01094798437501 -6.84957466562500 -4.215202187499756E-002
 N -0.458776984375008 -3.51647566562500 -2.44936202187500 
 N -2.43971198437501 -2.38698166562500 -3.67505302187500 
 N -3.37586698437501 -2.90108166562500 0.157127978125003 
 S -0.672011984375009 -6.60395866562500 -4.26152102187500 
 S -3.71169098437501 -6.41708766562500 -1.46835102187500 
 S -1.34580198437501 -7.13922166562500 -0.247135021874997 
 S -0.945430984375008 -2.97276966562500 -3.97963102187500 
 S -3.96122498437501 -2.22616366562500 -1.20560902187500 
 S -1.77549298437501 -3.27763766562500 4.247997812500248E-002
