16

 C -2.17070690937499 -6.37356864687500 -2.33685935625000 
 C -0.928826909374995 -6.88775664687500 -1.72445035625000 
 C -2.87299490937500 -2.58835964687500 -2.57080135625000 
 C -1.62175690937500 -2.89351564687500 -1.88366835625000 
 N 0.111045090625005 -6.99508664687500 -2.59263635625000 
 N -2.07813290937499 -6.04606364687500 -3.63095935625000 
 N -2.73567490937500 -6.69130664687500 0.136840643749998 
 N -0.571492909374995 -2.93481264687500 -2.69067135625000 
 N -2.74268790937499 -2.32887264687500 -3.84351635625000 
 N -3.34689990937500 -2.84147964687500 -3.467835625000193E-002
 S -0.578409909374995 -6.49887164687500 -4.06358135625000 
 S -3.48361790937499 -6.17197064687500 -1.22315435625000 
 S -1.11131690937500 -7.13106664687500 -3.123335625000179E-002
 S -1.17671190937499 -2.54031964687500 -4.26808735625000 
 S -4.18389790937499 -2.39336664687500 -1.40281035625000 
 S -1.75296990937500 -3.26360964687500 -0.199901356250002 
