16

 C -2.57048332500000 -6.25529928437500 -2.52276009375000 
 C -1.44508632500000 -6.98455928437500 -2.02232509375000 
 C -2.47560632500000 -2.67682528437500 -2.43931609375000 
 C -1.32725932500000 -3.22672828437500 -1.79030609375000 
 N -0.424757324999998 -7.20100728437500 -2.88617009375000 
 N -2.39652932500000 -5.90940328437500 -3.79606009375000 
 N -3.08546732500000 -6.81773828437500 -5.611809374999965E-002
 N -0.285449324999998 -3.28774028437500 -2.59278809375000 
 N -2.37427332500000 -2.46696928437500 -3.75371409375000 
 N -3.08035132500000 -2.75145228437500 5.055590625000028E-002
 S -0.931529324999998 -6.45882928437500 -4.23784309375000 
 S -3.82790432500000 -6.05078528437500 -1.31907309375000 
 S -1.57010032500000 -7.58615728437500 -0.375603093750000 
 S -0.834225324999998 -2.97634328437500 -4.12055509375000 
 S -3.69954332500000 -2.20995228437500 -1.35038109375000 
 S -1.60518132500000 -3.48720728437500 -6.948009374999975E-002
