16

 C -2.33801960000000 -6.53601413437500 -2.26084385625000 
 C -1.05732160000000 -6.98602813437500 -1.69113485625000 
 C -2.50890460000000 -2.74257613437500 -2.49044085625000 
 C -1.34097860000000 -3.36710513437500 -1.85506585625000 
 N -0.132894600000004 -6.98516813437500 -2.64366185625000 
 N -2.40195760000000 -6.23139913437500 -3.53487585625000 
 N -2.61238560000000 -6.59722213437500 0.242723143749999 
 N -0.280210600000004 -3.49618713437500 -2.66075285625000 
 N -2.29745560000000 -2.47009213437500 -3.76895685625000 
 N -3.02884060000000 -2.81627713437500 2.935614374999940E-002
 S -0.850635600000004 -6.54422813437500 -4.06393085625000 
 S -3.47850960000000 -6.06680813437500 -1.02752085625000 
 S -0.981280600000004 -7.05024013437500 -1.990285625000054E-002
 S -0.749252600000004 -3.04543213437500 -4.16868985625000 
 S -3.77369660000000 -2.36393813437500 -1.38666885625000 
 S -1.45865260000000 -3.37967313437500 -9.380785625000065E-002
