16

 C -2.37922792499999 -6.34307067187500 -2.48003782187500 
 C -1.22065692499999 -6.79311067187500 -1.76712882187500 
 C -2.61649892499999 -2.74212067187500 -2.57678282187500 
 C -1.39222392499999 -3.04611467187500 -1.87504082187500 
 N -0.143318924999992 -7.19134167187500 -2.46824282187500 
 N -2.11470592499999 -6.43280867187500 -3.79543882187500 
 N -2.98071592499999 -6.39637467187500 5.363617812500032E-002
 N -0.340780924999992 -3.08396067187500 -2.68607882187500 
 N -2.45509192499999 -2.46679367187500 -3.85282282187500 
 N -3.13955492499999 -2.87245967187500 -4.836282187499985E-002
 S -0.543615924999992 -6.93510067187500 -4.06288982187500 
 S -3.71174792499999 -6.04493067187500 -1.40703282187500 
 S -1.33396592499999 -6.80450167187500 -1.683482187499985E-002
 S -0.844721924999992 -2.77429967187500 -4.25108282187500 
 S -3.90526292499999 -2.70492967187500 -1.47083282187500 
 S -1.50233292499999 -3.06940067187500 -0.145511821875000 
