16

 C -2.41326218750000 -6.29083427187499 -2.39229928125000 
 C -1.27529918750000 -6.87793627187499 -1.67550628125000 
 C -2.37894218750000 -2.31111527187499 -2.46430628125000 
 C -1.25102718750000 -2.94628027187499 -1.82579228125000 
 N -0.198349187500001 -7.11887527187499 -2.43764928125000 
 N -2.15718718750000 -6.06305127187499 -3.69460128125000 
 N -3.12359118750000 -6.58117527187499 0.114573718750003 
 N -0.246539187500001 -3.25492227187499 -2.61385628125000 
 N -2.22098918750000 -2.12129027187499 -3.76031528125000 
 N -3.01843018750000 -2.34428327187499 7.170718750002969E-003
 S -0.615659187500000 -6.59395527187499 -3.93471828125000 
 S -3.78360318750000 -5.95128127187499 -1.28463428125000 
 S -1.59693018750000 -7.22724027187499 -3.428028124999738E-002
 S -0.803181187500001 -2.73895127187499 -4.23806328125000 
 S -3.74008618750000 -1.91380827187499 -1.43020228125000 
 S -1.45835218750000 -2.97867027187499 -7.259128124999714E-002
