16

 C -2.64764937812501 -6.60619061250000 -2.34256075625000 
 C -1.42322237812501 -6.97227861249999 -1.66174475625000 
 C -2.70237437812501 -2.39968461250000 -2.40588175625000 
 C -1.49422537812501 -2.94781861250000 -1.71308775625000 
 N -0.344891378125006 -7.03461061250000 -2.44354075625000 
 N -2.52927437812501 -6.40424161250000 -3.64408975625000 
 N -3.23456737812501 -6.74210461250000 0.204301243750000 
 N -0.447672378125007 -3.22843861250000 -2.51951675625000 
 N -2.49118737812501 -2.15382261250000 -3.70688875625000 
 N -3.37168237812501 -2.89672261250000 2.499924374999996E-002
 S -0.864200378125006 -6.61593961249999 -3.98472575625000 
 S -4.06960737812501 -6.55980261250000 -1.29616575625000 
 S -1.57482737812501 -7.11111961250000 0.107482243750000 
 S -1.02771137812501 -2.74760361250000 -4.05192575625000 
 S -4.05696237812501 -2.08612461250000 -1.27236775625000 
 S -1.77476437812501 -3.27313761250000 -1.140575624999984E-002
