16

 C -2.60172285625000 -6.16656923124999 -2.24664851875000 
 C -1.40928585625000 -6.69185623124999 -1.67145351875000 
 C -2.44721685625000 -2.49529923124999 -2.45429551875000 
 C -1.25980485625000 -3.04981023124999 -1.79636651875000 
 N -0.428660856250002 -6.90507223124999 -2.53372251875000 
 N -2.53789985625000 -6.04012523124999 -3.57115851875000 
 N -3.03269685625000 -6.46728923124999 0.272964481250001 
 N -0.257514856250003 -3.31676023124999 -2.65780751875000 
 N -2.27600285625000 -2.40939523124999 -3.78778151875000 
 N -3.06163085625000 -2.67893323124999 4.961548125000048E-002
 S -0.964395856250003 -6.51695623124999 -4.03933951875000 
 S -3.83480785625000 -5.84260123124999 -1.04824651875000 
 S -1.46115485625000 -6.83048023124999 3.337048125000042E-002
 S -0.728137856250003 -2.96102823124999 -4.14131851875000 
 S -3.81746685625000 -2.26595223124999 -1.36675751875000 
 S -1.45156185625000 -2.98704123124999 -3.352951874999954E-002
