16

 C -2.32404612187499 -6.32432243750000 -2.14776393750000 
 C -1.12137412187499 -6.93249643750000 -1.58435193750000 
 C -2.25247412187499 -2.77345243750000 -2.65567793750000 
 C -1.06740612187499 -3.10708443750000 -1.88612993750000 
 N -0.148203121874993 -7.00830643750000 -2.45908393750000 
 N -2.36117312187499 -6.09292343750000 -3.47402793750000 
 N -2.89922812187499 -6.94805843750000 0.320685062500001 
 N 3.242687812500655E-002 -3.21572243750000 -2.64679193750000 
 N -2.04444812187499 -2.65172943750000 -3.95400593750000 
 N -2.88211812187499 -2.63140943750000 -0.150113937499999 
 S -0.755443121874993 -6.43459643750000 -3.88957793750000 
 S -3.71842812187499 -6.43784643750000 -0.988557937499999 
 S -1.30762312187499 -7.45096443750000 6.412606250000086E-002
 S -0.450553121874993 -3.04192643750000 -4.23576293750000 
 S -3.57995612187499 -2.29656143750000 -1.63802093750000 
 S -1.30601012187499 -3.20485543750000 -0.165111937499999 
