16

 C -2.34528521875000 -6.35156625312501 -2.23566772500000 
 C -1.15921921875000 -6.88113825312501 -1.62681972500000 
 C -2.45283321875000 -2.74651325312501 -2.55041872500000 
 C -1.21168821875000 -3.07718225312501 -1.96267372500000 
 N -0.176533218750000 -6.99469225312501 -2.51137972500000 
 N -2.23859421875000 -6.00889825312501 -3.51100472500000 
 N -2.88620321875000 -6.90393625312501 0.204332274999999 
 N -0.110997218750001 -2.99654925312501 -2.74035972500000 
 N -2.36778521875000 -2.44705725312501 -3.85692272500000 
 N -2.95435721875000 -3.12452525312501 -6.561672500000082E-002
 S -0.699075218750000 -6.38779425312500 -3.95805272500000 
 S -3.67621421875000 -6.13578925312501 -1.11556072500000 
 S -1.25579921875000 -7.09101425312500 5.052927499999926E-002
 S -0.770139218750000 -2.64936725312501 -4.22449472500000 
 S -3.73937621875000 -2.75222625312501 -1.44035472500000 
 S -1.34572421875000 -3.42130825312501 -0.261547725000001 
