16

 C -2.13182653125001 -6.77697874375000 -2.49229021875000 
 C -1.03035653125001 -7.37739574375000 -1.79080321875000 
 C -2.57376353125000 -2.63277174375000 -2.59044821875000 
 C -1.34414553125001 -3.04434674375000 -1.87252121875000 
 N -7.355253125000516E-002 -7.73948674375000 -2.63155921875000 
 N -2.07313853125001 -6.72610174375000 -3.82709921875000 
 N -2.74823053125001 -6.65884874375000 4.621178125000003E-002
 N -0.316649531250005 -3.36165374375000 -2.65190921875000 
 N -2.37498553125000 -2.53683574375000 -3.90405621875000 
 N -3.20550953125001 -2.82564274375000 -0.139389218750000 
 S -0.570965531250005 -7.44640174375000 -4.23342921875000 
 S -3.47467053125000 -6.41554874375000 -1.35107821875000 
 S -1.28948453125000 -7.45891274375000 -5.735221875000018E-002
 S -0.942152531250005 -3.18950074375000 -4.21798821875000 
 S -3.93897053125001 -2.41368874375000 -1.56558621875000 
 S -1.50029853125000 -3.09223874375000 -9.622221875000014E-002
