16

 C -2.21302000937500 -6.39599788125000 -2.39142288437500 
 C -0.960714009375003 -6.76032888125000 -1.77799888437500 
 C -2.53081000937500 -2.64063188125000 -2.37523388437500 
 C -1.32762500937500 -2.96795288125000 -1.67843988437500 
 N 7.286599062499732E-002 -6.75675588125000 -2.60036888437500 
 N -2.15268100937500 -6.26794488125000 -3.72575888437500 
 N -2.66831200937500 -6.84333288125000 9.456511562500292E-002
 N -0.333154009375003 -3.22073288125000 -2.53074988437500 
 N -2.44009900937500 -2.58543288125000 -3.70812388437500 
 N -3.17283400937500 -3.00525988125000 0.129287115625003 
 S -0.563349009375003 -6.51474988125000 -4.12595188437500 
 S -3.49173100937500 -6.32128288125000 -1.24189488437500 
 S -1.01446200937500 -7.05665588125000 -6.030088437499725E-002
 S -0.872214009375003 -2.94893688125000 -4.07066088437500 
 S -3.89438200937500 -2.53068688125000 -1.29349788437500 
 S -1.51722500937500 -3.34758088125000 1.453811562500285E-002
