16

 C -2.33030606249999 -6.05797489375000 -1.99021649062500 
 C -1.10988406249999 -6.68103889375000 -1.47589149062500 
 C -2.33145906250000 -2.69882689375000 -2.30336149062500 
 C -1.17075506250000 -3.15683989375000 -1.56567749062500 
 N -0.120962062499995 -6.86215189375000 -2.35106549062500 
 N -2.21576706249999 -5.76453689375000 -3.29369249062500 
 N -2.83984906249999 -6.83295089375000 0.361132509374999 
 N -0.120811062499995 -3.39514289375000 -2.35561649062500 
 N -2.13582706249999 -2.46579089375000 -3.60257849062500 
 N -3.11406306250000 -2.89100689375000 7.768950937499919E-002
 S -0.688952062499995 -6.24937089375000 -3.77397249062500 
 S -3.60409006249999 -6.15045689375000 -0.915510490625001 
 S -1.18848706249999 -7.27766189375000 0.153094509374999 
 S -0.590824062499995 -3.07060489375000 -3.88355549062500 
 S -3.72259406249999 -2.40647889375000 -1.35302049062500 
 S -1.52194906249999 -3.30365889375000 7.449950937499916E-002
