16

 C -2.41941626875001 -6.44915879062499 -2.62741264062500 
 C -1.16375126875001 -6.84226979062499 -1.90679764062500 
 C -2.31964826875001 -2.55427079062499 -2.56323164062500 
 C -1.01724326875001 -2.99354579062499 -2.03302464062500 
 N -9.988526875000669E-002 -7.04161079062499 -2.67722964062500 
 N -2.22099126875001 -6.33949979062499 -3.92305864062500 
 N -2.99320726875001 -6.50227279062499 -0.125167640625003 
 N -2.908526875000739E-002 -3.02235579062499 -2.91839264062500 
 N -2.22890426875001 -2.22378279062499 -3.83298864062500 
 N -2.78026726875001 -3.21581479062499 -0.142477640625003 
 S -0.624137268750007 -6.75367379062499 -4.25065164062500 
 S -3.75703726875001 -6.09355779062499 -1.55836764062500 
 S -1.37553926875001 -6.88309479062499 -0.196947640625003 
 S -0.772736268750007 -2.63474179062499 -4.37184964062500 
 S -3.69126526875001 -2.63002779062499 -1.44334664062500 
 S -1.16461226875001 -3.51112379062499 -0.341726640625003 
