16

 C -2.32315373750000 -6.35786667187500 -2.34820941250000 
 C -1.08553873750000 -6.75963467187500 -1.72414841250000 
 C -2.52198773750000 -2.73647967187500 -2.43901541250000 
 C -1.44762673750000 -3.41246767187500 -1.76536141250000 
 N -0.149772737500000 -6.94786267187500 -2.66757141250000 
 N -2.37147573750000 -6.10819367187500 -3.66631441250000 
 N -2.92302273750000 -6.69588167187500 0.185062587499999 
 N -0.355998737500000 -3.68311767187500 -2.49756841250000 
 N -2.25439373750000 -2.38553167187500 -3.72238341250000 
 N -3.30969773750000 -2.91111767187500 -2.373412500000782E-003
 S -0.809057737500000 -6.48363867187500 -4.14031741250000 
 S -3.66485473750000 -6.48630267187500 -1.26816441250000 
 S -1.30797173750000 -7.16662567187500 -6.141412500000776E-003
 S -0.780426737500000 -3.11380767187500 -4.00350841250000 
 S -4.03447073750000 -2.60383667187500 -1.44720741250000 
 S -1.77236173750000 -3.57354967187500 -3.354141250000064E-002
