16

 C -2.46824088750000 -6.83922563750000 -2.37933009375000 
 C -1.18451188750000 -7.03281963750000 -1.77076609375000 
 C -2.15489388750000 -2.83154663750000 -2.45234209375000 
 C -1.02694288750000 -3.30515763750000 -1.72467709375000 
 N -0.148527887499998 -6.88511563750000 -2.59980509375000 
 N -2.44229988750000 -6.47705963750000 -3.66631509375000 
 N -3.08924988750000 -7.10860063750000 0.130004906250001 
 N 7.522011250000205E-002 -3.51897763750000 -2.43753409375000 
 N -1.96688788750000 -2.83567463750000 -3.76929009375000 
 N -2.85596088750000 -3.03963863750000 4.425390625000114E-002
 S -0.822691887499998 -6.51217863750000 -4.10594209375000 
 S -3.83948188750000 -6.86106263750000 -1.29807209375000 
 S -1.38330288750000 -7.20150663750000 7.533906250001055E-003
 S -0.366689887499998 -3.18128863750000 -3.98991409375000 
 S -3.55903688750000 -2.64100963750000 -1.40014809375000 
 S -1.27757588750000 -3.55329463750000 -5.816909374999901E-002
