16

 C -2.46720622499999 -6.13749842812500 -2.72255364687500 
 C -1.31669922499999 -6.60677742812500 -2.00990164687500 
 C -2.49749222499999 -2.73302742812500 -2.51201264687500 
 C -1.21560122499999 -3.03882342812500 -1.83154164687500 
 N -0.276420224999993 -6.75699442812500 -2.78046864687500 
 N -2.32912622499999 -6.00547642812500 -4.04909264687500 
 N -3.15358322499999 -6.56476942812500 -0.213938646875000 
 N -0.180596224999993 -3.12518442812500 -2.65348764687500 
 N -2.32335722499999 -2.64119542812500 -3.80465164687500 
 N -3.03883922499999 -2.79780442812500 -3.134764687500002E-002
 S -0.730131224999993 -6.40332542812500 -4.37299264687500 
 S -3.88224922499999 -6.13290342812500 -1.61531764687500 
 S -1.56272922499999 -6.91405542812500 -0.317298646875000 
 S -0.757691224999993 -2.94075942812500 -4.23390964687500 
 S -3.84453922499999 -2.71075842812500 -1.52133564687500 
 S -1.43339522499999 -3.17953042812500 -0.131539646875000 
