16

 C -2.55608158750000 -6.65184635937499 -2.30859499687500 
 C -1.30434158750000 -7.14036035937499 -1.70269699687500 
 C -2.47753358750000 -2.93766535937499 -2.37413599687500 
 C -1.20500358750000 -3.44991735937499 -1.89170699687500 
 N -0.316841587499995 -7.29319835937499 -2.60085499687500 
 N -2.44991858750000 -6.44220435937499 -3.61165499687500 
 N -3.12830358750000 -6.77013335937500 0.136021003124998 
 N -0.291159587499996 -3.70513535937499 -2.81911399687500 
 N -2.46318158750000 -2.68567935937500 -3.66038599687500 
 N -2.79504658750000 -3.34650935937499 0.141971003124998 
 S -0.954517587499995 -6.98889835937499 -4.10030399687500 
 S -3.93125158750000 -6.60351435937499 -1.27616999687500 
 S -1.53431858750000 -7.29931635937499 2.113400312499847E-002
 S -0.938986587499995 -3.17849835937499 -4.16072799687500 
 S -3.67069358750000 -2.73016935937499 -1.15017099687500 
 S -1.23062558750000 -3.70421535937500 -0.137137996875002 
