16

 C -2.30481889687499 -6.31128150625000 -2.58298763125000 
 C -1.04602689687499 -6.66070150625000 -1.97307963125000 
 C -2.78094289687499 -2.75521050625000 -2.31634863125000 
 C -1.58595089687499 -3.11785050625000 -1.67911263125000 
 N -4.401089687499304E-002 -6.89080650625000 -2.80353563125000 
 N -2.27850789687499 -6.34017950625000 -3.89171563125000 
 N -2.77400189687499 -6.40451350625000 -6.248063125000169E-002
 N -0.531848896874993 -3.36013950625000 -2.46345963125000 
 N -2.74051189687499 -2.74962450625000 -3.64544463125000 
 N -3.37126189687499 -2.81606050625000 0.195346368749998 
 S -0.707160896874993 -6.83404450625000 -4.34411663125000 
 S -3.63630989687499 -6.04415250625000 -1.45293463125000 
 S -1.15103489687499 -6.80572150625000 -0.261983631250002 
 S -1.10944089687499 -2.99281350625000 -4.00923963125000 
 S -4.13045289687499 -2.38228750625000 -1.26206463125000 
 S -1.74793589687499 -3.15957150625000 6.170436874999830E-002
