16

 C -2.50701559062500 -6.49252576562500 -2.58195974687500 
 C -1.26334659062500 -6.77790776562500 -1.82748074687500 
 C -2.43559759062500 -2.55969476562500 -2.41815074687500 
 C -1.23091359062500 -3.04247676562500 -1.79611474687500 
 N -0.179356590624998 -6.78890776562500 -2.57731174687500 
 N -2.29218659062500 -6.29560276562500 -3.88627174687500 
 N -3.06577559062500 -6.60904276562500 -4.467874687499718E-002
 N -0.170230590624998 -3.25436076562500 -2.59631874687500 
 N -2.32003159062500 -2.55119576562500 -3.73886874687500 
 N -3.00953559062500 -2.75562476562500 0.127065253125003 
 S -0.619234590624998 -6.47235276562500 -4.16051574687500 
 S -3.94040059062500 -6.33087976562500 -1.48945674687500 
 S -1.49078959062500 -7.00519576562500 -0.144024746874997 
 S -0.761578590624998 -2.96203676562500 -4.17958274687500 
 S -3.78270459062500 -2.25120576562500 -1.32135774687500 
 S -1.39209859062500 -3.17411176562500 -4.196374687499715E-002
