16

 C -2.44671215000000 -6.40778310312500 -2.32204510312500 
 C -1.22511715000000 -6.71213510312500 -1.66440110312500 
 C -2.50117915000000 -2.74309510312500 -2.88599110312500 
 C -1.19530515000000 -2.84286710312500 -2.26534410312500 
 N -0.223043149999997 -6.71406610312500 -2.50471010312500 
 N -2.35584815000000 -6.11814710312500 -3.63137410312500 
 N -2.94183115000000 -6.83014610312500 0.237087896875000 
 N -0.127931149999997 -2.72705110312500 -3.05396910312500 
 N -2.39742115000000 -2.50250510312500 -4.20894510312500 
 N -2.97849915000000 -3.09750610312500 -0.395903103125000 
 S -0.751435149999996 -6.26190610312500 -4.01881310312500 
 S -3.77551715000000 -6.17698710312500 -1.14000310312500 
 S -1.35148915000000 -7.07078110312500 1.102089687499963E-002
 S -0.796124149999996 -2.64495110312500 -4.55126210312500 
 S -3.77101115000000 -2.78038910312500 -1.76546710312500 
 S -1.35104615000000 -3.02802210312500 -0.548760103125000 
