16

 C -2.24861069062500 -6.40141181250000 -2.62691990000000 
 C -1.08079469062500 -6.90443681250000 -1.95571890000000 
 C -2.81656769062500 -2.65620081250000 -2.33326390000000 
 C -1.57510669062500 -2.94015381250000 -1.61566190000000 
 N -8.724669062500023E-002 -7.15656481250000 -2.79949490000000 
 N -2.19533469062500 -6.33722781250000 -3.97332990000000 
 N -2.81312169062500 -6.44534081250000 -7.239590000000362E-002
 N -0.537229690625000 -3.13472681250000 -2.42112990000000 
 N -2.62046069062500 -2.59196381250000 -3.63843690000000 
 N -3.44898169062500 -2.87836381250000 0.131315099999996 
 S -0.637738690625000 -6.78267081250000 -4.33976790000000 
 S -3.55483169062500 -6.09237481250000 -1.51670190000000 
 S -1.20021569062500 -6.90703681250000 -0.219548900000004 
 S -1.02744769062500 -3.02059281250000 -3.97327990000000 
 S -4.10297669062500 -2.24016981250000 -1.27647190000000 
 S -1.80609169062500 -3.10354881250000 9.429809999999628E-002
