16

 C -2.67202809375000 -6.36763789687500 -2.50593913437500 
 C -1.41701709375000 -6.90788089687500 -2.03737813437500 
 C -2.61069709375000 -2.87533489687500 -2.40301813437500 
 C -1.46568409375000 -3.23331689687500 -1.61473713437500 
 N -0.397132093749995 -7.11932589687500 -2.90680513437500 
 N -2.58024709375000 -6.07474889687500 -3.82748113437500 
 N -3.00730809375000 -6.75717889687500 8.780486562499856E-002
 N -0.413105093749996 -3.57204489687500 -2.35316213437500 
 N -2.51977209375000 -3.06483289687500 -3.72451613437500 
 N -3.30333709375000 -2.76466189687500 0.106679865624999 
 S -1.08021009375000 -6.60928489687500 -4.31888813437500 
 S -3.78632809375000 -5.98869489687500 -1.17685013437500 
 S -1.38062809375000 -7.22580589687500 -0.266859134375001 
 S -0.931639093749996 -3.45424689687500 -3.94918713437500 
 S -4.04738309375000 -2.58672689687500 -1.41480813437500 
 S -1.78546809375000 -3.46709089687500 0.130205865624998 
