16

 C -2.56760933125000 -6.81694895000000 -2.35206448750000 
 C -1.28499533125000 -7.16603895000000 -1.74042448750000 
 C -2.33870433125000 -3.06193995000000 -2.35686248750000 
 C -1.12426433125000 -3.60955795000000 -1.78573948750000 
 N -0.272198331250000 -7.27157795000000 -2.62621148750000 
 N -2.55916233125000 -6.63906895000000 -3.68008948750000 
 N -2.93215633125000 -6.76916595000000 0.233901512499999 
 N -9.672833125000047E-002 -3.76981395000000 -2.59485348750000 
 N -2.28645133125000 -2.94412895000000 -3.64000448750000 
 N -2.72510933125000 -3.35095295000000 0.211012512499998 
 S -1.01403633125000 -7.01144195000000 -4.12555548750000 
 S -3.82439833125000 -6.42159595000000 -1.13586648750000 
 S -1.32396233125000 -7.17449195000000 -8.930487500001583E-003
 S -0.759498331250001 -3.32343695000000 -4.13292948750000 
 S -3.56089433125000 -2.81620695000000 -1.14352048750000 
 S -1.18058633125000 -3.89378495000000 -0.112142487500002 
