16

 C -2.56942446875000 -6.44822936562500 -2.48982628750000 
 C -1.34640846875000 -6.91254236562500 -1.85143328750000 
 C -2.63589146875000 -2.89297436562500 -2.47556928750000 
 C -1.40856446875000 -3.34746036562500 -1.84473228750000 
 N -0.283317468750000 -7.05873036562500 -2.62363028750000 
 N -2.35821246875000 -6.28826536562500 -3.77919028750000 
 N -3.10463246875000 -6.74101336562500 6.292971249999901E-002
 N -0.435002468750000 -3.65176736562500 -2.70314328750000 
 N -2.52030746875000 -2.68822836562500 -3.78217228750000 
 N -3.24952446875000 -3.19087436562500 -2.999828750000089E-002
 S -0.735990468750000 -6.64111036562500 -4.22833528750000 
 S -3.88212346875000 -6.11759736562500 -1.33507428750000 
 S -1.49969646875000 -6.97520336562500 -3.724528750000089E-002
 S -1.03310246875000 -3.10062836562500 -4.17509428750000 
 S -4.07969446875000 -2.95197136562500 -1.45524328750000 
 S -1.65767846875000 -3.71688436562500 -0.171837287500001 
