16

 C -2.46282018125001 -6.52763793750001 -2.38734043750000 
 C -1.22546918125001 -7.09643593750001 -1.90227443750000 
 C -2.58128618125001 -2.56414793750001 -2.37128643750000 
 C -1.56065218125001 -3.20436093750001 -1.67108043750000 
 N -0.278667181250011 -7.17183193750001 -2.83113943750000 
 N -2.38046018125001 -6.21335493750001 -3.68340243750000 
 N -2.80473918125001 -7.05672393750001 0.160227562500000 
 N -0.637128181250011 -3.78191493750001 -2.44105343750000 
 N -2.33401218125001 -2.42876093750001 -3.67088743750000 
 N -3.39670118125001 -2.61945193750001 2.985625000000436E-004
 S -0.908302181250011 -6.62261093750001 -4.24371243750000 
 S -3.67651918125001 -6.46641593750001 -1.14289543750000 
 S -1.26239618125001 -7.44586693750001 -0.256858437500000 
 S -0.969058181250011 -3.35724693750001 -4.00918943750000 
 S -3.95723318125001 -2.01677293750001 -1.45082143750000 
 S -1.87879618125001 -3.24021393750001 4.130556250000006E-002
