16

 C -2.26709300625000 -6.45882378750001 -2.49128303437500 
 C -1.16250600625000 -7.12339478750001 -1.82859303437500 
 C -2.45031500625000 -2.81650078750001 -2.36239003437500 
 C -1.25273000625000 -3.30794378750001 -1.76139803437500 
 N -0.170392006249996 -7.47530078750001 -2.64109603437500 
 N -2.09733700625000 -6.36897578750001 -3.79386403437500 
 N -3.01633800625000 -6.88116078750001 -0.126310034375000 
 N -0.214085006249996 -3.54571978750001 -2.51042103437500 
 N -2.31811000625000 -2.75056378750001 -3.68202303437500 
 N -2.96574600625000 -2.98592278750001 0.209961965625000 
 S -0.550869006249996 -6.95138778750001 -4.16365003437500 
 S -3.62671400625000 -6.16416478750001 -1.50020203437500 
 S -1.40194600625000 -7.28043678750001 -0.142229034375000 
 S -0.749316006249996 -3.20137878750001 -4.05965903437500 
 S -3.77980100625000 -2.64132978750001 -1.22411603437500 
 S -1.41267000625000 -3.37747878750001 1.534596562500012E-002
