16

 C -2.60233751562500 -6.34355795937501 -2.59555409375000 
 C -1.32548551562500 -6.84827095937501 -2.06602609375000 
 C -2.66382251562500 -2.96262095937501 -2.30751109375000 
 C -1.51424451562500 -3.43689695937501 -1.63592409375000 
 N -0.410518515624997 -6.96317595937501 -3.02651209375000 
 N -2.69699551562500 -6.21327795937501 -3.92986509375000 
 N -2.79547451562500 -6.55978295937501 2.471290625000044E-002
 N -0.450893515624997 -3.64526095937501 -2.37427909375000 
 N -2.48369351562500 -2.71325395937501 -3.58636909375000 
 N -3.34214751562500 -3.18700695937501 0.169990906250000 
 S -1.15390851562500 -6.65947795937501 -4.47061309375000 
 S -3.85628051562500 -6.30982095937501 -1.21583209375000 
 S -1.26367251562500 -7.14804595937501 -0.327607093749999 
 S -0.925133515624997 -3.15978395937501 -3.89034409375000 
 S -3.98301751562500 -2.67676795937501 -1.24554109375000 
 S -1.72215751562500 -3.40256495937501 0.107652906250000 
