16

 C -2.56400071562500 -6.32697717812501 -2.29866538125000 
 C -1.29415571562500 -6.86583517812501 -1.72989538125000 
 C -2.51905671562500 -2.95889917812501 -2.47850738125000 
 C -1.31813371562500 -3.33439817812501 -1.82091838125000 
 N -0.315166715625004 -7.05707917812501 -2.62518238125000 
 N -2.54956771562500 -6.20626217812501 -3.61948638125000 
 N -3.05384571562500 -6.76689617812501 0.216032618750003 
 N -0.232582715625004 -3.31365217812501 -2.58317738125000 
 N -2.42111771562500 -2.74517317812501 -3.77837438125000 
 N -2.97842371562500 -3.21954117812501 8.959261875000268E-002
 S -1.01681271562500 -6.53431217812501 -4.09084338125000 
 S -3.86594571562500 -6.21325217812501 -1.15324738125000 
 S -1.45863471562500 -7.16037317812501 2.128261875000259E-002
 S -0.843582715625004 -2.97824417812501 -4.16826338125000 
 S -3.80944671562500 -2.93716017812501 -1.29513738125000 
 S -1.40965671562500 -3.75906417812501 -0.201855381249997 
