16

 C -2.39903688125000 -6.33964296562500 -2.54811498750000 
 C -1.11973888125000 -6.61877796562500 -1.94660398750000 
 C -2.79873388125000 -2.77491096562500 -2.35475798750000 
 C -1.58172588125000 -3.30518296562500 -1.69948198750000 
 N -0.141034881250000 -6.84671796562500 -2.82528898750000 
 N -2.40850688125000 -6.34985796562500 -3.87001998750000 
 N -2.80259088125000 -6.33693396562500 -4.042987500001427E-003
 N -0.584868881249999 -3.48051796562500 -2.53274198750000 
 N -2.68405788125000 -2.54393996562500 -3.65497998750000 
 N -3.27909188125000 -2.87788096562500 0.212513012499999 
 S -0.818627881249999 -6.67025696562500 -4.34536398750000 
 S -3.64011688125000 -6.09698496562500 -1.40132498750000 
 S -1.16548088125000 -6.67045696562500 -0.166534987500002 
 S -1.14573488125000 -3.14079796562500 -4.05033098750000 
 S -4.04704288125000 -2.58797396562500 -1.22262198750000 
 S -1.67394488125000 -3.27639096562500 6.304012499998679E-003
