16

 C -2.12518553437499 -6.51657819999999 -2.30331804687500 
 C -0.939197534374992 -6.98171619999999 -1.68242704687500 
 C -2.54606153437499 -2.64092719999999 -2.47117604687500 
 C -1.32070353437499 -2.90404619999999 -1.85013804687500 
 N 9.905846562500731E-002 -7.06465019999999 -2.50800104687500 
 N -2.02585153437499 -6.35754919999999 -3.62392204687500 
 N -2.63790253437499 -6.76207220000000 0.240287953125000 
 N -0.273607534374992 -3.13133019999999 -2.67717004687500 
 N -2.48740753437499 -2.47478019999999 -3.80467404687500 
 N -3.05804553437499 -2.71781219999999 8.603395312499962E-002
 S -0.487776534374992 -6.80000019999999 -4.01908704687500 
 S -3.44787053437499 -6.40807219999999 -1.14201704687500 
 S -1.06366653437499 -7.21894719999999 3.281695312499955E-002
 S -0.946489534374992 -2.77922319999999 -4.17834504687500 
 S -3.86807153437499 -2.44158019999999 -1.33953704687500 
 S -1.45211953437499 -3.02261819999999 -8.411704687500055E-002
