16

 C -2.40704730312500 -6.58870242187500 -2.26270752812500 
 C -1.24393430312500 -7.03342942187500 -1.52284052812500 
 C -2.42903030312500 -2.71946342187500 -2.40612852812500 
 C -1.20169230312500 -3.20812242187500 -1.76962152812500 
 N -0.138681303125000 -7.19350542187500 -2.26071452812500 
 N -2.10216330312500 -6.39755142187500 -3.55478352812500 
 N -3.07525030312500 -6.72185642187500 0.224314471875001 
 N -0.131389303125000 -3.13358742187500 -2.52995552812500 
 N -2.28850530312500 -2.45613442187500 -3.70455452812500 
 N -3.03646030312500 -3.27004842187500 6.129847187500159E-002
 S -0.534496303125000 -6.75915442187500 -3.78691252812500 
 S -3.74566030312500 -6.19770242187500 -1.21626052812500 
 S -1.49912230312500 -7.21335042187500 0.152462471875001 
 S -0.684755303125000 -2.66955142187500 -4.02400952812500 
 S -3.76674630312500 -2.71323742187500 -1.31125952812500 
 S -1.41826030312500 -3.61540742187500 -9.728752812499830E-002
