16

 C -2.47632950000000 -6.41045285937500 -2.20358861562500 
 C -1.18492350000000 -6.94974685937500 -1.74013561562500 
 C -2.52981850000000 -2.75454285937500 -2.52607361562500 
 C -1.40453950000000 -3.37975385937500 -1.76380461562500 
 N -0.185804500000004 -6.98540085937500 -2.59326161562500 
 N -2.40781950000000 -6.16594685937500 -3.51251261562500 
 N -2.84654850000000 -7.01714585937500 0.263822384375001 
 N -0.348169500000004 -3.67596585937500 -2.53153661562500 
 N -2.33748750000000 -2.59228385937500 -3.83754361562500 
 N -3.27309550000000 -3.06422285937500 -2.057261562499879E-002
 S -0.865550500000004 -6.55618085937500 -4.04195461562500 
 S -3.75090850000000 -6.37663485937500 -1.00587261562500 
 S -1.18034750000000 -7.35436685937500 -5.851761562499869E-002
 S -0.787004500000005 -3.14266185937500 -4.03394461562500 
 S -3.85582850000000 -2.41875085937500 -1.43526961562500 
 S -1.69893450000000 -3.60939385937500 -4.021361562499881E-002
