16

 C -2.39661629062500 -6.78759571875001 -2.19746863437500 
 C -1.12807129062500 -7.16937071875001 -1.58602263437500 
 C -2.53488429062500 -2.80258271875001 -2.44399663437500 
 C -1.22757729062500 -3.13570971875001 -1.78008763437500 
 N -0.123968290625000 -7.24593771875001 -2.45810263437500 
 N -2.31026729062500 -6.55902971875001 -3.50770363437500 
 N -2.80183129062500 -6.94116571875001 0.326199365624999 
 N -0.199963290625001 -3.32783171875001 -2.62827163437500 
 N -2.39424429062500 -2.67291471875001 -3.77049363437500 
 N -2.93864029062500 -2.96731471875001 0.113730365624999 
 S -0.755648290625000 -6.84100271875001 -3.93956363437500 
 S -3.77527129062500 -6.66457471875001 -1.02951863437500 
 S -1.22867529062500 -7.36132571875001 0.134021365624999 
 S -0.844766290625000 -3.00418671875001 -4.17953563437500 
 S -3.79147629062500 -2.59369871875001 -1.27926563437500 
 S -1.28538329062500 -3.29193071875001 -5.064563437500125E-002
