16

 C -2.19112449687499 -6.83893542500000 -2.51481594375000 
 C -0.980513496874994 -7.29453342500000 -1.86172094375000 
 C -2.53323449687499 -2.60556542500000 -2.54975794375000 
 C -1.34083949687499 -3.10205242500000 -1.90677294375000 
 N -2.818449687499403E-002 -7.73124442500000 -2.65572194375000 
 N -2.12288749687499 -6.90678342500000 -3.85294894375000 
 N -2.73803549687499 -6.61371642500000 -1.447794375000022E-002
 N -0.389087496874994 -3.48083542500000 -2.76078994375000 
 N -2.45056549687499 -2.55121842500000 -3.86011194375000 
 N -3.07865649687499 -2.72610642500000 1.706305624999982E-002
 S -0.613598496874993 -7.44406042500000 -4.21775094375000 
 S -3.50159849687499 -6.32397242500000 -1.53768694375000 
 S -1.21022149687499 -7.32973842500000 -4.766294375000024E-002
 S -0.872751496874994 -3.07027042500000 -4.28487094375000 
 S -3.86949249687499 -2.39487342500000 -1.42697494375000 
 S -1.51990849687499 -3.14000142500000 -0.211649943750000 
