16

 C -2.53016071250001 -6.19886357187500 -2.41503070625000 
 C -1.35576971250001 -6.87139757187500 -1.90385070625000 
 C -2.51169471250001 -2.43700557187500 -2.60364970625000 
 C -1.24849771250001 -2.85193757187500 -1.93361470625000 
 N -0.372314712500005 -7.18194257187500 -2.76467870625000 
 N -2.46066271250000 -6.03162357187500 -3.73681070625000 
 N -2.85393971250001 -6.31633857187500 0.129756293750001 
 N -0.312197712500005 -3.17823657187500 -2.82508070625000 
 N -2.47685871250000 -2.41451957187500 -3.93995070625000 
 N -3.04948971250001 -2.54276357187500 -0.132461706250000 
 S -0.972201712500005 -6.59592157187500 -4.22981470625000 
 S -3.70394271250001 -5.80188057187500 -1.22407070625000 
 S -1.45516071250001 -7.08512157187500 -0.163028706250000 
 S -0.958545712500005 -2.91739157187500 -4.28934270625000 
 S -3.81953471250000 -2.04011257187500 -1.52487870625000 
 S -1.45374671250001 -2.98700757187500 -0.194160706249999 
