16

 C -2.54608077500000 -6.44846389687500 -2.31404206250000 
 C -1.32469677500000 -6.88343089687500 -1.71141506250000 
 C -2.59201077500000 -3.03233789687500 -2.45484006250000 
 C -1.34295977500000 -3.39684989687500 -1.84365206250000 
 N -0.363910775000003 -7.03876789687500 -2.59843606250000 
 N -2.49712577500000 -6.19746789687500 -3.59851606250000 
 N -3.07211177500000 -6.77333989687500 0.199975937499999 
 N -0.261872775000002 -3.35643389687500 -2.68553706250000 
 N -2.48248177500000 -2.84275189687500 -3.77905006250000 
 N -2.96832777500000 -3.26458089687500 0.100117937499999 
 S -0.933474775000002 -6.56181989687500 -4.10345106250000 
 S -3.81773977500000 -6.24415489687500 -1.19831606250000 
 S -1.43099177500000 -7.09928889687500 1.746393749999875E-002
 S -0.833966775000002 -3.01114789687500 -4.12403406250000 
 S -3.85552877500000 -3.00968389687500 -1.28113006250000 
 S -1.40571977500000 -3.77038289687500 -0.147955062500001 
