16

 C -2.56323785937501 -6.75937933750000 -2.39744089062500 
 C -1.24655185937501 -6.88241833750000 -1.77858289062500 
 C -2.38221385937501 -2.64875633750000 -2.38958889062500 
 C -1.29210985937501 -3.22470833750000 -1.70013689062500 
 N -0.213822859375008 -6.88769233750000 -2.61601389062500 
 N -2.53332585937501 -6.60968133750000 -3.72757389062500 
 N -2.85808085937501 -6.92608233750000 0.170693109374999 
 N -0.278918859375008 -3.49968933750000 -2.47862889062500 
 N -2.20143985937501 -2.43845133750000 -3.67035289062500 
 N -3.19849085937501 -3.05143833750000 -2.439489062500155E-002
 S -0.878973859375009 -6.75630133750000 -4.15542989062500 
 S -3.81730185937501 -6.78579033750000 -1.20211889062500 
 S -1.20284685937501 -7.06556333750000 -6.478389062500156E-002
 S -0.641334859375008 -3.04748033750000 -4.04663189062500 
 S -3.83354185937501 -2.43771433750000 -1.46566089062500 
 S -1.61209685937501 -3.53040733750000 8.730109374998518E-003
