16

 C -2.49431575937500 -6.36176058125000 -2.55901680312500 
 C -1.32770875937500 -6.69886758125000 -1.79828680312500 
 C -2.26890575937500 -2.60929658125000 -2.37732480312500 
 C -1.15014175937500 -3.30009658125000 -1.72323680312500 
 N -0.171901759374997 -6.94585858125000 -2.42959180312500 
 N -2.20652975937500 -6.29883258125000 -3.85413780312500 
 N -3.24929375937500 -6.56317658125000 -0.116222803125000 
 N -0.210633759374997 -3.61940458125000 -2.63470280312500 
 N -2.21484575937500 -2.51184658125000 -3.70780580312500 
 N -3.01759275937500 -2.86050558125000 4.876519687500025E-002
 S -0.581969759374997 -6.77885158125000 -4.06977580312500 
 S -3.87224475937500 -6.12670458125000 -1.63054880312500 
 S -1.64372175937500 -6.80108858125000 -9.285280312499977E-002
 S -0.678228759374996 -3.05087358125000 -4.12608680312500 
 S -3.70208475937500 -2.32366458125000 -1.36525380312500 
 S -1.43352675937500 -3.39637958125000 -8.934803124999835E-003
