16

 C -2.65474315312500 -6.64231675000000 -2.14014245000000 
 C -1.43850815312500 -7.32276475000000 -1.68895545000000 
 C -2.30901915312500 -2.80550875000000 -2.37207445000000 
 C -1.09240615312500 -3.38122275000000 -1.71488245000000 
 N -0.491332153125000 -7.53217475000000 -2.60471445000000 
 N -2.65467615312500 -6.42512775000001 -3.44514045000000 
 N -3.05266715312500 -7.06612375000000 0.272453550000000 
 N -9.818115312500009E-002 -3.66723675000000 -2.58474045000000 
 N -2.19350415312500 -2.62386075000000 -3.69201345000000 
 N -2.82578115312500 -3.11084575000000 0.173047550000000 
 S -1.22379115312500 -6.98540375000000 -3.99824845000000 
 S -3.90787015312500 -6.42178375000000 -1.04683045000000 
 S -1.47198015312500 -7.47170275000000 7.361654999999967E-002
 S -0.647989153125000 -3.15473375000000 -4.05424245000000 
 S -3.56833215312500 -2.52698675000000 -1.22557945000000 
 S -1.19278315312500 -3.52048675000000 4.469654999999961E-002
