16

 C -2.48691828749999 -6.56310248437500 -2.20754526562500 
 C -1.20867028749999 -7.03364448437500 -1.66265926562500 
 C -2.50706628749999 -2.85085948437500 -2.45298426562500 
 C -1.35246328749999 -3.39135548437500 -1.76981826562500 
 N -0.322706287499993 -7.14227348437501 -2.61655126562500 
 N -2.48320128749999 -6.27578148437500 -3.52235326562500 
 N -2.81938428749999 -7.08832648437500 0.356122734374998 
 N -0.305820287499993 -3.51267048437500 -2.57019326562500 
 N -2.30139728749999 -2.66724448437501 -3.73026026562500 
 N -3.22328528749999 -3.13170248437500 -2.214726562500147E-002
 S -0.927794287499993 -6.54840448437501 -4.04004226562500 
 S -3.62827228749999 -6.37296148437501 -0.881655265625001 
 S -1.28482128749999 -7.42973548437500 2.751773437499838E-002
 S -0.770531287499993 -3.17839748437501 -4.15586126562500 
 S -3.77875828749999 -2.30273648437501 -1.38915526562500 
 S -1.64459928749999 -3.59834248437500 -8.362426562500147E-002
