16

 C -2.39561786250000 -6.58723090625000 -2.38039005625000 
 C -1.22918486250000 -7.10501790625000 -1.72565505625000 
 C -2.38546786250000 -2.52591290625000 -2.36149205625000 
 C -1.31033686250000 -3.35218090625000 -1.73417805625000 
 N -0.164003862500003 -7.20650290625000 -2.53198105625000 
 N -2.23412586250000 -6.35589390625000 -3.66618405625000 
 N -2.97255086250000 -6.87106590625000 0.193765943750001 
 N -0.320630862500003 -3.56655990625000 -2.56606305625000 
 N -2.18731086250000 -2.20204890625000 -3.63195805625000 
 N -2.99591686250000 -2.89910990625000 0.179776943750001 
 S -0.626917862500004 -6.71430090625000 -4.03331805625000 
 S -3.69207586250000 -6.43302590625000 -1.21287505625000 
 S -1.33921386250000 -7.31782890625000 1.709694375000059E-002
 S -0.771041862500003 -2.95503790625000 -4.07919305625000 
 S -3.68740286250000 -2.11603890625000 -1.21684905625000 
 S -1.46994586250000 -3.65954890625000 -3.049105624999959E-002
