16

 C -2.40310626562501 -6.62800952812500 -2.28838650000000 
 C -1.26017526562501 -7.13331552812500 -1.57994450000000 
 C -2.47384726562501 -2.50727452812500 -2.41693250000000 
 C -1.26506326562501 -3.02917752812500 -1.79459650000000 
 N -0.304785265625010 -7.45766552812500 -2.45530750000000 
 N -2.32658526562501 -6.58594052812500 -3.62058650000000 
 N -3.08224526562501 -6.45153252812500 0.187032499999999 
 N -0.233828265625010 -3.16072552812500 -2.61162850000000 
 N -2.33136926562501 -2.39576952812500 -3.71690050000000 
 N -3.12989226562501 -2.98949152812500 -5.212950000000105E-002
 S -0.856355265625010 -7.25327552812500 -4.03123650000000 
 S -3.73359526562501 -6.24412752812500 -1.29499850000000 
 S -1.59081626562501 -7.26924952812500 8.513749999999898E-002
 S -0.757472265625010 -2.69887052812500 -4.12430050000000 
 S -3.75840626562501 -2.19401252812500 -1.36668050000000 
 S -1.53077526562501 -3.35779952812500 -0.162903500000001 
