16

 C -2.31325496875000 -6.44133498750000 -2.21392259375000 
 C -1.10496296875000 -6.98006398750000 -1.66229759375000 
 C -2.33363896875000 -2.66157498750000 -2.46358059375000 
 C -1.10462596875000 -3.19942698750000 -1.96406359375000 
 N -0.144868968750003 -7.22179898750000 -2.52400859375000 
 N -2.26800996875000 -6.20874998750000 -3.52031759375000 
 N -2.80037096875000 -6.71381998750000 0.255833406250001 
 N -0.228495968750003 -3.39860498750000 -2.90614959375000 
 N -2.29438496875000 -2.24730898750000 -3.71184559375000 
 N -2.76895296875000 -3.17472998750000 -2.527859374999952E-002
 S -0.766065968750003 -6.79009398750000 -4.01767859375000 
 S -3.55953896875000 -6.36416898750000 -1.12358759375000 
 S -1.19191596875000 -7.19062698750000 6.740940625000058E-002
 S -0.849979968750003 -2.77899098750000 -4.32601459375000 
 S -3.50265696875000 -2.41792798750000 -1.25788359375000 
 S -1.16954496875000 -3.49822298750000 -0.271777593749999 
