16

 C -2.33640613437500 -6.38047777187499 -2.48831485312500 
 C -1.13255213437500 -6.69695077187499 -1.75708785312500 
 C -2.56676113437500 -2.67551077187499 -2.49817385312500 
 C -1.30940113437500 -2.95997077187499 -1.82022885312500 
 N -6.330013437499638E-002 -7.02568777187499 -2.47778085312500 
 N -2.18691413437500 -6.44514877187499 -3.82644685312500 
 N -3.02669613437500 -6.41322877187499 -4.491785312500096E-002
 N -0.236475134374996 -3.05282677187499 -2.63871585312500 
 N -2.45356013437500 -2.51988877187499 -3.80660485312500 
 N -3.16300313437500 -2.82728977187499 -1.005085312500076E-002
 S -0.598482134374996 -6.92559577187499 -4.01888185312500 
 S -3.69641413437500 -6.11938677187499 -1.50920985312500 
 S -1.41294013437500 -6.83106077187499 -5.254685312500085E-002
 S -0.853717134374996 -2.76431677187499 -4.14225585312500 
 S -3.99866413437500 -2.70844477187499 -1.49744385312500 
 S -1.53821013437500 -3.14765877187499 -0.136732853125001 
