16

 C -2.50114839687501 -6.11753550312500 -2.73011081250000 
 C -1.34757139687501 -6.59363450312500 -2.02305881250000 
 C -2.47949139687501 -2.72939150312500 -2.48580181250000 
 C -1.20377039687501 -3.00192350312500 -1.83560481250000 
 N -0.293558396875011 -6.71097750312500 -2.80731781250000 
 N -2.35355739687501 -5.99981850312500 -4.04315981250000 
 N -3.16382639687501 -6.60472850312500 -0.222304812500003 
 N -0.187065396875012 -3.15616350312500 -2.66840981250000 
 N -2.32753339687501 -2.64531450312500 -3.79129481250000 
 N -3.02578439687501 -2.79634450312500 -5.207181250000326E-002
 S -0.769106396875012 -6.41510450312500 -4.36602681250000 
 S -3.90471739687501 -6.15684350312500 -1.63082581250000 
 S -1.55212139687501 -6.92789650312500 -0.312406812500003 
 S -0.762897396875012 -2.94840250312500 -4.22587581250000 
 S -3.84261839687501 -2.71586150312500 -1.49223381250000 
 S -1.42157039687501 -3.17528850312500 -0.136777812500003 
