16

 C -2.46049794687500 -6.40645287187500 -2.59873940625000 
 C -1.30640994687500 -6.86318187187500 -1.80770040625000 
 C -2.52244394687500 -2.49530087187500 -2.42031740625000 
 C -1.35039294687500 -2.87346687187500 -1.71762140625000 
 N -0.165326946875001 -7.07617487187500 -2.46487540625000 
 N -2.15626694687500 -6.22336287187500 -3.90120140625000 
 N -3.23253094687500 -6.61488887187500 -8.026840625000098E-002
 N -0.240378946875000 -2.98764087187500 -2.46849340625000 
 N -2.36916694687500 -2.41363087187500 -3.77229140625000 
 N -3.16439194687500 -2.56114987187500 0.111911593749999 
 S -0.588745946875001 -6.71526187187500 -4.05574740625000 
 S -3.88044494687500 -6.07233787187500 -1.55151140625000 
 S -1.62553394687500 -6.94945287187500 -0.121516406250001 
 S -0.797463946875001 -2.72224087187500 -4.11927540625000 
 S -3.88586894687500 -2.29999687187500 -1.35003540625000 
 S -1.54080194687500 -3.05619287187500 -9.570406250001273E-003
