16

 C -2.20158179687500 -6.51994872500000 -2.47310345625000 
 C -1.04281679687500 -7.11911372500000 -1.82263345625000 
 C -2.65402679687500 -2.35734372500000 -2.42879845625000 
 C -1.40454479687500 -2.91601872500000 -1.75515645625000 
 N 4.722203124996049E-003 -7.31473772500000 -2.61218745625000 
 N -2.06228379687500 -6.39996872500000 -3.79903745625000 
 N -2.70257079687500 -6.54950172500000 5.954154375000198E-002
 N -0.447339796875005 -3.27193872500000 -2.60991345625000 
 N -2.53443079687500 -2.23629272500000 -3.73497145625000 
 N -3.25998279687500 -2.65561072500000 3.848654375000193E-002
 S -0.446104796875004 -6.84962372500000 -4.15765545625000 
 S -3.47539679687500 -6.11703472500000 -1.35383745625000 
 S -1.22511279687500 -7.31245972500000 -0.132315456249998 
 S -1.03233179687500 -2.85444172500000 -4.14719145625000 
 S -3.90121279687500 -1.89524272500000 -1.28726045625000 
 S -1.65675179687500 -3.18269072500000 -4.529045624999806E-002
