16

 C -2.52648384687500 -6.28610000312499 -2.48826188437500 
 C -1.30357984687500 -6.59061500312499 -1.80091588437500 
 C -2.77807284687500 -2.61195700312499 -2.56285788437500 
 C -1.51509484687500 -3.01420800312499 -1.99333288437500 
 N -0.252282846875000 -6.71479200312499 -2.60857688437500 
 N -2.47217384687500 -6.23032300312499 -3.81038188437500 
 N -3.11894684687500 -6.56180700312499 4.489111562500048E-002
 N -0.466061846875000 -3.03296800312499 -2.84199388437500 
 N -2.68396284687500 -2.50319000312499 -3.88323188437500 
 N -3.17520484687500 -3.12544400312499 -8.322188437499944E-002
 S -0.877171846875000 -6.40353200312499 -4.13895088437500 
 S -3.95878184687500 -6.44438400312499 -1.42583388437500 
 S -1.51488484687500 -6.90193500312499 -0.113224884375000 
 S -1.12892684687500 -2.74730900312499 -4.35452288437500 
 S -4.00339584687500 -2.44932500312499 -1.33820588437500 
 S -1.52203884687500 -3.36138700312499 -0.297601884375000 
