16

 C -2.20168976562500 -6.41936467500001 -2.40735076875000 
 C -0.951007765625000 -6.73057967500000 -1.75000976875000 
 C -2.58911676562500 -2.64048667500001 -2.31539176875000 
 C -1.32700976562500 -3.02205967500000 -1.69392876875000 
 N 6.194123437499854E-002 -6.82741467500001 -2.59543476875000 
 N -2.19802476562500 -6.23476167500000 -3.72328076875000 
 N -2.68767376562500 -6.86204867500000 8.494823124999806E-002
 N -0.330051765625001 -3.22165867500000 -2.52941476875000 
 N -2.46231576562500 -2.52374167500001 -3.61595776875000 
 N -3.15882476562500 -3.03462867500000 0.158662231249998 
 S -0.573785765625001 -6.51897467500000 -4.09760676875000 
 S -3.49617476562500 -6.30246567500000 -1.25503876875000 
 S -1.03575676562500 -7.02364367500001 -7.587276875000182E-002
 S -0.876107765625001 -2.89464067500001 -4.06726776875000 
 S -3.88252676562500 -2.53473767500001 -1.26354476875000 
 S -1.47555076562500 -3.29981467500000 4.208231249998029E-003
