16

 C -2.44015837812500 -6.56362556562500 -2.31290510312500 
 C -1.14924637812500 -6.86779756562500 -1.72417410312500 
 C -2.54121737812500 -2.60141256562500 -2.42695110312500 
 C -1.42837537812500 -3.22572756562500 -1.79993310312500 
 N -0.130614378124999 -7.03109856562500 -2.56506110312500 
 N -2.37411937812500 -6.55091356562500 -3.63788410312500 
 N -2.83969237812500 -6.65506056562500 0.190495896875001 
 N -0.411722378124999 -3.41147656562500 -2.62382110312500 
 N -2.41234537812500 -2.44983056562500 -3.72463510312500 
 N -3.08023437812500 -2.85464856562500 5.878889687500055E-002
 S -0.781751378124999 -6.83430256562500 -4.10779010312500 
 S -3.75415137812500 -6.37641956562500 -1.25843110312500 
 S -1.21451937812500 -7.03546456562500 1.242896875000454E-003
 S -0.939218378124999 -3.02659256562500 -4.15575810312500 
 S -3.90612637812500 -2.31349456562500 -1.35180110312500 
 S -1.55271437812500 -3.50775856562500 -0.107056103125000 
