16

 C -2.48872685937500 -6.61636390312500 -2.33995681562500 
 C -1.20429985937500 -7.00452590312500 -1.75952681562500 
 C -2.15382685937500 -3.17712990312500 -2.22450581562500 
 C -0.958858859375002 -3.66186290312500 -1.63910681562500 
 N -0.273240859375002 -7.16058590312500 -2.67025681562500 
 N -2.44306885937500 -6.54286890312500 -3.67608281562500 
 N -2.80447785937500 -6.74159190312500 0.209424184375001 
 N 3.435314062499817E-002 -3.91200890312500 -2.52068181562500 
 N -2.09141285937500 -3.05979490312500 -3.58919181562500 
 N -2.77332085937500 -3.29118990312500 0.252374184375001 
 S -0.917465859375001 -7.04204490312500 -4.15965481562500 
 S -3.74626785937500 -6.38495690312500 -1.14495881562500 
 S -1.21239985937500 -6.99984390312500 -6.666981562499874E-002
 S -0.549662859375002 -3.56212790312500 -3.96112181562500 
 S -3.51632885937500 -3.05416790312500 -1.21545281562500 
 S -1.14952085937500 -3.69225090312500 0.130803184375001 
