16

 C -2.51470015937500 -6.29160350937500 -2.41353768125000 
 C -1.29974615937500 -6.88282850937500 -1.83682968125000 
 C -2.64471015937500 -2.94338950937500 -2.39877368125000 
 C -1.47790615937500 -3.43094150937500 -1.68816068125000 
 N -0.412611159374999 -7.30142150937500 -2.75557668125000 
 N -2.47681815937500 -6.18897750937500 -3.71917768125000 
 N -3.05497115937500 -6.60875350937500 9.120731874999843E-002
 N -0.373713159374999 -3.61722750937500 -2.43489568125000 
 N -2.46719815937500 -2.74862550937500 -3.71621668125000 
 N -3.24990415937500 -2.70173350937500 0.114482318749998 
 S -1.04595115937500 -6.82061350937500 -4.21525868125000 
 S -3.80952715937500 -6.08203250937500 -1.29246968125000 
 S -1.47753815937500 -7.31034450937500 -0.129213681250002 
 S -0.920391159374999 -3.27246350937500 -3.98530368125000 
 S -3.96996015937500 -2.41679650937500 -1.36178868125000 
 S -1.73632015937500 -3.37936750937500 1.662431874999837E-002
