16

 C -2.42753738750000 -6.33488143437500 -2.54507963750000 
 C -1.23943738750000 -6.74007743437500 -1.79642463750000 
 C -2.75334038750000 -2.92928343437500 -2.51577563750000 
 C -1.56846938750000 -3.48214043437500 -1.89354963750000 
 N -0.239975387499999 -6.95017543437500 -2.59639263750000 
 N -2.30535138750000 -6.31203743437500 -3.87039863750000 
 N -3.12735438750000 -6.61768043437500 -0.155573637499999 
 N -0.543380387499998 -3.73746243437500 -2.70573563750000 
 N -2.54427938750000 -2.64695343437500 -3.78543163750000 
 N -3.32227438750000 -3.30932643437500 -1.421763749999871E-002
 S -0.729937387499999 -6.69315643437500 -4.15388963750000 
 S -3.85132338750000 -6.23613943437500 -1.60821963750000 
 S -1.52491538750000 -7.09842043437500 -0.152592637499999 
 S -0.997711387499999 -3.09039043437500 -4.16940163750000 
 S -4.11231438750000 -2.61264943437500 -1.38130663750000 
 S -1.76181338750000 -3.85274043437500 -0.199517637499999 
