16

 C -2.14500863750001 -6.17467975312500 -2.55379781250000 
 C -1.06068663750001 -6.70804475312500 -1.80990581250000 
 C -2.41024763750001 -2.85681675312500 -2.50005681250000 
 C -1.12815363750001 -3.21733275312500 -1.84798581250000 
 N 3.503636249999253E-002 -6.92856475312500 -2.53488481250000 
 N -2.01514863750001 -6.12957675312500 -3.88045781250000 
 N -3.01528063750001 -6.50356175312500 -0.182090812500002 
 N -0.144788637500007 -3.41992375312500 -2.70920681250000 
 N -2.29181763750001 -2.66186375312500 -3.81380581250000 
 N -2.80423663750001 -2.87358375312500 -2.328125000017334E-004
 S -0.439070637500007 -6.60037475312500 -4.13883781250000 
 S -3.54923363750001 -5.89914275312500 -1.62183181250000 
 S -1.35932963750001 -6.75152775312500 -0.124098812500002 
 S -0.720417637500007 -3.06915175312500 -4.24065681250000 
 S -3.68322263750001 -2.79499775312500 -1.33922981250000 
 S -1.19098663750001 -3.28373175312500 -0.145696812500002 
