16

 C -2.30699331250001 -6.34805601875000 -2.41004703125000 
 C -1.13643531250001 -6.84424501875000 -1.76645103125000 
 C -2.54891931250001 -2.58175801875000 -2.21473803125000 
 C -1.30906531250001 -3.07268501875000 -1.68164303125000 
 N -0.117463312500006 -7.04524501875000 -2.59687503125000 
 N -2.17670031250001 -6.12580901875000 -3.71945503125000 
 N -2.84691631250001 -6.50919301875000 8.040596874999806E-002
 N -0.287907312500006 -3.19722201875000 -2.52958703125000 
 N -2.49849531250001 -2.37037201875000 -3.53092703125000 
 N -2.94016931250001 -2.88889701875000 0.288701968749998 
 S -0.647740312500006 -6.57489501875000 -4.08805603125000 
 S -3.64281731250001 -6.28572201875000 -1.34832403125000 
 S -1.24940731250001 -7.01965401875000 -8.175403125000202E-002
 S -0.963384312500006 -2.72296401875000 -3.96357103125000 
 S -3.82376831250001 -2.52005601875000 -1.01903603125000 
 S -1.35031431250001 -3.29377101875000 7.999896874999823E-002
