16

 C -2.36830576875000 -6.62673036562500 -2.31690161875000 
 C -1.13071776875000 -6.98226236562500 -1.70808961875000 
 C -2.34555376875000 -2.77027736562500 -2.47176661875000 
 C -1.13479676875000 -3.16023636562500 -1.68194361875000 
 N -5.493476874999637E-002 -7.02705536562500 -2.51548161875000 
 N -2.28191776875000 -6.39834736562500 -3.62613461875000 
 N -2.90705776875000 -7.07456636562500 0.201797381250001 
 N -2.650876874999586E-002 -3.31774836562500 -2.43918661875000 
 N -2.20348876875000 -2.77466736562500 -3.80282261875000 
 N -3.07497976875000 -2.86839436562500 -1.011461874999942E-002
 S -0.726963768749996 -6.61775136562500 -3.99155761875000 
 S -3.68624076875000 -6.63555136562500 -1.22879061875000 
 S -1.27567976875000 -7.30043136562500 2.322038125000070E-002
 S -0.575951768749996 -3.06263736562500 -4.00653661875000 
 S -3.75962276875000 -2.54192036562500 -1.47687061875000 
 S -1.46443476875000 -3.14148336562500 1.503838125000057E-002
