16

 C -2.45081856875000 -6.50149785312500 -2.43302799375000 
 C -1.20265656875000 -6.76218485312500 -1.73291599375000 
 C -2.18884256875000 -2.97308885312500 -2.26153099375000 
 C -0.892551568749998 -3.30422785312500 -1.70459599375000 
 N -8.243656874999861E-002 -6.76741285312500 -2.48337299375000 
 N -2.24478956875000 -6.40591185312500 -3.74954899375000 
 N -3.03038756875000 -6.50870585312500 4.899300625000103E-002
 N 3.471143125000076E-002 -3.30772085312500 -2.65467299375000 
 N -2.19046056875000 -2.65574885312500 -3.55427099375000 
 N -2.61195956875000 -3.23021285312500 0.257436006250001 
 S -0.639901568749998 -6.50021185312500 -4.01969599375000 
 S -3.78279656875000 -6.33131185312500 -1.42817599375000 
 S -1.45211356875000 -6.86009185312500 -9.429937499989549E-004
 S -0.651373568749999 -2.97924085312500 -4.08316799375000 
 S -3.45440756875000 -2.85253485312500 -1.07145599375000 
 S -1.03844156875000 -3.52475085312500 -3.868199374999914E-002
