16

 C -2.37857297499999 -6.45355830937500 -2.58709600312500 
 C -1.16338697500000 -6.96075930937500 -1.96508000312500 
 C -2.39485797500000 -2.60862530937500 -2.51924100312500 
 C -1.13895197500000 -3.26721330937500 -2.09106500312500 
 N -0.218245974999995 -7.23377330937500 -2.85512500312500 
 N -2.31627397500000 -6.34119330937500 -3.91669100312500 
 N -2.86555697500000 -6.51998730937500 -6.315900312499867E-002
 N -0.106336974999995 -3.15921930937500 -2.90623500312500 
 N -2.25622797500000 -2.08392730937500 -3.73580100312500 
 N -2.63421597499999 -3.17744130937500 -3.530600312499876E-002
 S -0.779285974999995 -6.84903330937500 -4.40308000312500 
 S -3.78848697500000 -6.24444630937500 -1.50439800312500 
 S -1.33356297500000 -7.20977330937500 -0.290615003124999 
 S -0.715812974999995 -2.39492730937500 -4.28252200312500 
 S -3.57680297500000 -2.51995130937500 -1.27346800312500 
 S -1.06164397499999 -3.63756030937500 -0.389971003124999 
