16

 C -2.36915555937500 -6.61856590312500 -2.29824398125000 
 C -1.13613155937500 -6.91153090312500 -1.68081898125000 
 C -2.53158055937500 -2.59560090312500 -2.39715598125000 
 C -1.39056155937500 -3.24507390312500 -1.81973498125000 
 N -0.146835559375002 -7.04058290312500 -2.54003198125000 
 N -2.38154755937500 -6.52171190312500 -3.61806498125000 
 N -2.88766555937500 -6.66762390312500 0.210067018750003 
 N -0.401963559375002 -3.42621690312500 -2.66948198125000 
 N -2.43017755937500 -2.43702190312500 -3.71090198125000 
 N -3.06904755937500 -2.87794290312500 -1.961198124999752E-002
 S -0.805916559375001 -6.80541190312500 -4.07758498125000 
 S -3.72512355937500 -6.42388090312500 -1.24213198125000 
 S -1.22752655937500 -6.98874290312500 2.011501875000254E-002
 S -0.909094559375001 -3.05150790312500 -4.16766698125000 
 S -3.83507155937500 -2.34257090312500 -1.38330698125000 
 S -1.52076655937500 -3.48636990312500 -0.113979981249998 
