16

 C -2.37662685312500 -6.64009231250000 -2.25193549375000 
 C -1.12069685312500 -6.77676831250000 -1.59734249375000 
 C -2.31717985312500 -2.71139931250000 -2.55346849375000 
 C -1.04392085312500 -3.16412531250000 -2.01154349375000 
 N -7.998885312500192E-002 -6.74786731250000 -2.43868349375000 
 N -2.33132285312500 -6.58092931250000 -3.57440549375000 
 N -2.99399585312500 -6.95439431250000 0.275294506249999 
 N -8.339085312500227E-002 -3.40309631250000 -2.92467049375000 
 N -2.33541685312500 -2.62434331250000 -3.86929049375000 
 N -2.67162885312500 -2.88870431250000 7.857506249998814E-003
 S -0.736439853125002 -6.59476231250000 -3.97931849375000 
 S -3.82770185312500 -6.66305831250000 -1.19631349375000 
 S -1.34544685312500 -7.06694631250000 0.190542506249999 
 S -0.845646853125002 -3.03206931250000 -4.41863549375000 
 S -3.58266585312500 -2.40927331250000 -1.30603549375000 
 S -1.16741285312500 -3.46651831250000 -0.208825493750001 
