16

 C -2.42572816250000 -6.56793270937500 -2.29326058125000 
 C -1.28366116250000 -7.04052970937500 -1.57409258125000 
 C -2.42351116250000 -2.83041170937500 -2.43931758125000 
 C -1.20683516250000 -3.17041070937500 -1.78714258125000 
 N -0.137860162499996 -7.19167870937500 -2.22923858125000 
 N -2.21686316250000 -6.40920270937500 -3.60997358125000 
 N -3.09812416250000 -6.66427970937500 0.221035418749999 
 N -9.381716249999617E-002 -3.14402170937500 -2.52661658125000 
 N -2.29964116250000 -2.43296870937500 -3.71203858125000 
 N -3.06449716250000 -3.31643370937500 1.096441874999932E-002
 S -0.557369162499996 -6.76748670937500 -3.77365458125000 
 S -3.76019516250000 -6.21984770937500 -1.23341558125000 
 S -1.54229016250000 -7.21696970937500 8.105541874999922E-002
 S -0.704476162499996 -2.67904670937500 -4.04512758125000 
 S -3.80583116250000 -2.71982170937500 -1.35567058125000 
 S -1.43841816250000 -3.55465370937500 -0.104916581250001 
