16

 C -2.50692151562500 -6.53714630000000 -2.43213420937500 
 C -1.24012851562500 -6.98183130000000 -1.95671020937500 
 C -2.56892251562499 -2.53739630000000 -2.46131520937500 
 C -1.52873451562500 -3.25945830000000 -1.69524220937500 
 N -0.216080515624995 -7.05691930000000 -2.82849320937500 
 N -2.49289551562500 -6.23506030000000 -3.73586220937500 
 N -2.75656551562500 -6.96250130000000 0.127907790624999 
 N -0.557915515624996 -3.75042530000000 -2.46894520937500 
 N -2.39484751562500 -2.57939230000000 -3.77434720937500 
 N -3.40446451562500 -2.63289030000000 -1.488209375000604E-003
 S -0.911871515624995 -6.60102630000000 -4.27551120937500 
 S -3.67655951562500 -6.48140230000000 -1.12193220937500 
 S -1.26187051562500 -7.46107830000000 -0.319528209375000 
 S -0.948836515624995 -3.36744530000000 -4.02700520937500 
 S -3.88344951562500 -2.03450430000000 -1.44947020937500 
 S -1.86114251562500 -3.20820530000000 1.587079062499952E-002
