16

 C -2.44919875625000 -6.56558846875000 -2.33846483437500 
 C -1.22662975625000 -7.01910446875000 -1.58958983437500 
 C -2.45229775625000 -2.58083946875000 -2.53012283437500 
 C -1.24776175625000 -3.05897046875000 -1.84071683437500 
 N -0.275468756249997 -7.44610246875000 -2.42797383437500 
 N -2.37636375625000 -6.59050646875000 -3.66932483437500 
 N -2.95833075625000 -6.60519546875000 0.215857165625000 
 N -0.158132756249996 -3.04437346875000 -2.60428583437500 
 N -2.20830175625000 -2.25616046875000 -3.82128283437500 
 N -3.03365775625000 -2.72772046875000 -1.540834374999633E-003
 S -0.832052756249997 -7.17916446875000 -3.95174383437500 
 S -3.82040675625000 -6.22903446875000 -1.22592783437500 
 S -1.43746775625000 -7.29794446875000 7.471016562500044E-002
 S -0.598277756249996 -2.58985746875000 -4.13616383437500 
 S -3.74664375625000 -2.31687446875000 -1.43491583437500 
 S -1.46412875625000 -3.36225946875000 -0.134241834375000 
