16

 C -2.68585692499999 -6.30801690000000 -2.36957867500000 
 C -1.53496192499999 -6.99458090000000 -1.85586967500000 
 C -2.46400792499999 -2.83563890000000 -2.24845867500000 
 C -1.34373092499999 -3.51059490000000 -1.65211867500000 
 N -0.568373924999989 -7.13621290000000 -2.76007967500000 
 N -2.62644792499999 -5.93131590000000 -3.65816267500000 
 N -3.12168892499999 -6.80232390000000 0.183701324999997 
 N -0.324787924999989 -3.74320190000000 -2.45422167500000 
 N -2.30693392499999 -2.69261890000000 -3.54869067500000 
 N -3.14673492499999 -3.21257990000000 0.123364324999997 
 S -1.12873692499999 -6.51039090000000 -4.19200767500000 
 S -3.83466292499999 -6.01830290000000 -1.08873267500000 
 S -1.58603192499999 -7.30026890000000 -0.147236675000002 
 S -0.746909924999989 -3.17027190000000 -3.98673067500000 
 S -3.73364292499999 -2.45985790000000 -1.21893467500000 
 S -1.62810892499999 -3.80365190000000 3.235532499999749E-002
