16

 C -2.51250375312500 -6.20613861250000 -2.47593822187500 
 C -1.34459475312500 -6.88692261250000 -1.89653222187500 
 C -2.46745275312500 -2.65907161250000 -2.18560422187500 
 C -1.35653275312500 -3.29313561250000 -1.60967622187500 
 N -0.311843753125001 -7.10814061250000 -2.70446222187500 
 N -2.38758275312500 -6.10578061250000 -3.79272922187500 
 N -3.09401675312500 -6.69399561250000 3.567277812500014E-002
 N -0.425363753125001 -3.56305961250000 -2.49956322187500 
 N -2.37926775312500 -2.30302561250000 -3.45042122187500 
 N -2.91024075312500 -2.79253361250000 0.342207778125000 
 S -0.856069753125001 -6.70437461250000 -4.23078422187500 
 S -3.79567175312500 -5.95191761250000 -1.31649822187500 
 S -1.53617675312500 -7.23691361250000 -0.169095221875000 
 S -0.880913753125001 -2.91252861250000 -3.98510122187500 
 S -3.72950475312500 -2.33898761250000 -1.03345922187500 
 S -1.44232675312500 -3.46805261250000 0.119872778125000 
