16

 C -2.39288043125001 -6.25964570312500 -2.18874314062500 
 C -1.20375943125001 -6.89998770312500 -1.69215214062500 
 C -2.43822043125001 -2.73917770312500 -2.60432414062500 
 C -1.16979443125001 -3.01581070312500 -1.96454114062500 
 N -0.179103431250008 -7.01247570312500 -2.49130514062500 
 N -2.21233143125001 -5.96642670312500 -3.46391814062500 
 N -2.87650343125001 -6.92402770312500 0.193346859374999 
 N -0.172054431250008 -3.00272570312500 -2.81408514062500 
 N -2.36458143125001 -2.53429870312500 -3.91095614062500 
 N -2.95001943125001 -3.09949670312500 -5.632814062500069E-002
 S -0.683218431250008 -6.36170970312500 -3.95169914062500 
 S -3.68759543125001 -6.11929570312500 -1.11854614062500 
 S -1.23392143125001 -7.05546770312500 2.474785937499946E-002
 S -0.759062431250008 -2.60108770312500 -4.25736714062500 
 S -3.79719443125001 -2.83561570312500 -1.45912814062500 
 S -1.31508643125001 -3.39784370312500 -0.338793140625001 
