16

 C -2.25719921875000 -6.46121810937500 -2.48439213437500 
 C -1.12053921875000 -7.09392410937500 -1.85203213437500 
 C -2.45477921875000 -2.82408810937500 -2.37818713437500 
 C -1.27677521875000 -3.32761510937500 -1.69767313437500 
 N -0.150839218749998 -7.49205410937500 -2.65210813437500 
 N -2.09138221875000 -6.37653110937500 -3.77345813437500 
 N -3.00780721875000 -6.89237810937500 -0.119038134375001 
 N -0.197819218749998 -3.58921910937500 -2.45817513437500 
 N -2.31100221875000 -2.74213810937500 -3.69168613437500 
 N -2.96117921875000 -2.96659210937500 0.210771865624999 
 S -0.552868218749998 -6.92531110937500 -4.17044813437500 
 S -3.60419321875000 -6.17176710937500 -1.51434913437500 
 S -1.40487621875000 -7.28691210937500 -0.123021134375001 
 S -0.745969218749998 -3.20281110937500 -4.06604513437500 
 S -3.77315721875000 -2.66158810937500 -1.20790613437500 
 S -1.39540021875000 -3.39035810937500 3.216865624999121E-003
