16

 C -2.68989372812500 -6.53141818437499 -2.38930432812500 
 C -1.47173072812500 -6.89059718437499 -1.68320832812500 
 C -2.65322472812500 -2.35986818437499 -2.38751932812500 
 C -1.52602872812500 -2.98659018437499 -1.75070332812500 
 N -0.374693728124999 -6.99118518437499 -2.42625832812500 
 N -2.47122072812500 -6.35170718437499 -3.71051232812500 
 N -3.23708372812500 -6.69510218437499 0.150068671875000 
 N -0.514242728124999 -3.19931618437499 -2.56284332812500 
 N -2.53793072812500 -2.13241618437499 -3.69911232812500 
 N -3.32695272812500 -2.89709918437499 3.488967187500025E-002
 S -0.853051728124999 -6.59439318437499 -3.94427832812500 
 S -4.04837672812500 -6.59341318437499 -1.31026532812500 
 S -1.58097872812500 -7.06335918437499 4.510067187500022E-002
 S -1.01694872812500 -2.75109218437499 -4.04052232812500 
 S -3.97962272812500 -2.14084318437499 -1.29816332812500 
 S -1.71170172812500 -3.22556618437499 -6.057832812499964E-002
