16

 C -2.57764874687499 -6.21613135000000 -2.52261853750000 
 C -1.39117674687499 -6.83259635000000 -1.88327653750000 
 C -2.40941074687499 -2.39727135000000 -2.55022253750000 
 C -1.28129174687499 -2.98361135000000 -1.86278353750000 
 N -0.342668746874992 -7.09825335000000 -2.66339253750000 
 N -2.42363674687499 -6.08348835000000 -3.83449353750000 
 N -2.99632674687499 -6.33450435000000 5.127146250000170E-002
 N -0.235002746874992 -3.29198735000000 -2.63174853750000 
 N -2.27988374687499 -2.35376135000000 -3.87085253750000 
 N -3.07012074687499 -2.60765535000000 -2.900453749999832E-002
 S -0.932915746874992 -6.69865135000000 -4.19554753750000 
 S -3.82357274687499 -5.88900835000000 -1.36609453750000 
 S -1.54894874687499 -7.09243635000000 -0.148680537499998 
 S -0.803811746874992 -2.96008735000000 -4.22388253750000 
 S -3.73565374687499 -2.09968835000000 -1.42340253750000 
 S -1.47057974687499 -2.95539935000000 -0.123879537499998 
