16

 C -2.59659525000001 -6.68829575000000 -2.39817014687500 
 C -1.37293725000001 -7.11287875000000 -1.73292614687500 
 C -2.47247425000001 -2.87086975000000 -2.37272914687500 
 C -1.22830725000001 -3.36232875000000 -1.80855014687500 
 N -0.300573250000006 -7.21085875000000 -2.50804014687500 
 N -2.45522825000001 -6.50387975000000 -3.72659114687500 
 N -3.07330525000001 -6.90041675000000 0.164309853124999 
 N -0.306658250000006 -3.61892775000000 -2.69810114687500 
 N -2.47851725000001 -2.63887475000000 -3.68134714687500 
 N -2.93809125000001 -3.18414275000000 0.168081853124999 
 S -0.823329250000006 -6.77574475000000 -4.02530114687500 
 S -3.92926725000001 -6.52672875000000 -1.24410414687500 
 S -1.48649525000001 -7.26768275000000 -1.516814687500112E-002
 S -0.946885250000006 -3.13431275000000 -4.15436814687500 
 S -3.76074725000001 -2.64951775000000 -1.16372914687500 
 S -1.35028525000001 -3.51867575000000 -5.850714687500114E-002
