16

 C -2.56432847500001 -6.65071105937499 -2.35987915312500 
 C -1.36433047500001 -7.08558605937499 -1.74808615312500 
 C -2.38738447500001 -3.02312905937499 -2.34017715312500 
 C -1.12738347500001 -3.55856905937499 -1.86787715312500 
 N -0.391972475000006 -7.37416605937499 -2.58691115312500 
 N -2.55702147500001 -6.61303305937499 -3.70969515312500 
 N -3.01857247500001 -6.81945705937499 0.189752846875001 
 N -0.163586475000005 -3.65343405937499 -2.78443015312500 
 N -2.39749647500001 -2.82848105937499 -3.69102815312500 
 N -2.74599947500001 -3.30599805937499 0.204253846875001 
 S -0.964310475000006 -7.00597005937499 -4.08754415312500 
 S -3.87000647500001 -6.51996005937499 -1.16879515312500 
 S -1.40964947500001 -7.22127205937499 -1.384215312499881E-002
 S -0.865238475000005 -3.23106905937499 -4.21375015312500 
 S -3.62487547500001 -2.75190505937499 -1.14431715312500 
 S -1.21969247500001 -3.89657305937499 -9.270515312499894E-002
