16

 C -2.27042749687501 -6.47896670000000 -2.43085190000000 
 C -1.12778349687501 -6.95846270000000 -1.73608890000000 
 C -2.59484549687501 -2.69149470000000 -2.59903990000000 
 C -1.31533949687501 -3.01486270000000 -1.93580290000000 
 N -9.267649687500601E-002 -7.24854670000000 -2.53175590000000 
 N -2.15302949687501 -6.28136470000000 -3.75163390000000 
 N -2.91361249687501 -6.31405970000000 0.108216099999999 
 N -0.261375496875007 -3.20537570000000 -2.77893390000000 
 N -2.50618549687501 -2.60054470000000 -3.93333690000000 
 N -3.13580349687501 -2.90858170000000 -3.105190000000069E-002
 S -0.611224496875007 -6.88778470000000 -4.08479490000000 
 S -3.65820349687501 -6.02290170000000 -1.35186390000000 
 S -1.35871349687501 -6.78375770000000 1.625009999999927E-002
 S -0.889582496875007 -2.79274370000000 -4.24553990000000 
 S -3.97235649687501 -2.60807570000000 -1.47601390000000 
 S -1.47576649687501 -3.08006170000000 -0.192708900000001 
