16

 C -2.34079435937499 -6.63520221250001 -2.21602913125000 
 C -1.05430635937499 -7.03811721250001 -1.61702713125000 
 C -2.37182035937499 -2.83605921250001 -2.44781313125000 
 C -1.15064835937499 -3.11405221250001 -1.72786113125000 
 N -7.722635937498890E-002 -7.08205021250001 -2.51450813125000 
 N -2.27471135937499 -6.34593721250001 -3.51653313125000 
 N -2.93405535937499 -7.00103721250001 0.238530868750002 
 N -0.131126359374989 -3.32690821250001 -2.54922313125000 
 N -2.17615135937499 -2.70969521250001 -3.75033413125000 
 N -3.09005135937499 -2.99194621250001 4.647186875000142E-002
 S -0.702877359374989 -6.68295921250001 -4.05193013125000 
 S -3.75187135937499 -6.67418321250001 -1.18119213125000 
 S -1.24985935937499 -7.31799221250001 8.691286875000159E-002
 S -0.572702359374989 -3.08727821250001 -4.12018913125000 
 S -3.75484935937499 -2.59252521250001 -1.45440713125000 
 S -1.41448735937499 -3.11945421250001 5.753986875000150E-002
