16

 C -2.28775727500000 -6.68782475625000 -2.40200242187500 
 C -1.11459527500000 -7.13962875624999 -1.69880442187500 
 C -2.93489627500000 -3.10711575624999 -2.33861242187500 
 C -1.77179027500000 -3.59354475624999 -1.68462442187500 
 N -4.247427499999823E-002 -7.44957875624999 -2.44947642187500 
 N -2.15995227500000 -6.65422775624999 -3.72414842187500 
 N -2.95961527500000 -6.90165475624999 0.120697578124996 
 N -0.738732274999999 -3.86267175624999 -2.49081942187500 
 N -2.84081327500000 -2.94450475624999 -3.67160142187500 
 N -3.50927627500000 -3.34131975624999 0.179416578124996 
 S -0.588538274999999 -7.19702675624999 -4.00194542187500 
 S -3.70727527500000 -6.53914575624999 -1.37834042187500 
 S -1.36578927500000 -7.27301075624999 5.046657812499644E-002
 S -1.25987127500000 -3.42318075624999 -4.05461542187500 
 S -4.25988727500000 -2.80438675624999 -1.20974542187500 
 S -1.86238527500000 -3.75367175624999 6.612157812499642E-002
