16

 C -2.25156945312500 -6.31112908437500 -2.43130839375000 
 C -1.10200645312500 -6.91661908437500 -1.79880639375000 
 C -2.29075945312500 -2.65568708437500 -2.43365939375000 
 C -1.09966145312500 -3.09911308437500 -1.73054539375000 
 N -0.133531453125005 -7.19176308437500 -2.67188139375000 
 N -2.11372045312500 -6.07969308437500 -3.72938539375000 
 N -2.87668345312500 -6.71817608437500 4.007460624999948E-002
 N -6.428445312500486E-002 -3.44723508437500 -2.50410839375000 
 N -2.05220745312500 -2.44581608437500 -3.71504139375000 
 N -3.02409245312500 -2.93365308437500 -1.461739375000071E-002
 S -0.668244453125005 -6.71121608437500 -4.17023939375000 
 S -3.68878145312500 -6.22678708437500 -1.33039039375000 
 S -1.25225845312500 -7.14662408437500 -8.542239375000071E-002
 S -0.488282453125004 -2.98744808437500 -4.02484339375000 
 S -3.72073145312500 -2.40125408437500 -1.43227239375000 
 S -1.37649745312500 -3.18376108437500 1.731560624999928E-002
