16

 C -2.55893796875000 -6.33359999687500 -2.52843281250000 
 C -1.27446096875000 -6.61581699687500 -1.85660681250000 
 C -2.42667296874999 -2.81498999687500 -2.57637881250000 
 C -1.21813596875000 -3.05530399687500 -1.82202281250000 
 N -0.223976968749995 -6.78731299687500 -2.67879281250000 
 N -2.35998096875000 -6.24567699687500 -3.83501381250000 
 N -3.10820496875000 -6.56078899687500 -4.964681249999892E-002
 N -0.196188968749995 -3.29575099687500 -2.61666981250000 
 N -2.34092796875000 -2.98440599687500 -3.90442481250000 
 N -2.97980096874999 -2.69299399687500 -1.858124999989386E-004
 S -0.760344968749995 -6.43597899687500 -4.19351981250000 
 S -3.87245296874999 -6.12770099687500 -1.44087981250000 
 S -1.39388096875000 -6.76862299687500 -0.129662812499999 
 S -0.674099968749995 -3.26947999687500 -4.21885081250000 
 S -3.78193396875000 -2.58583399687500 -1.48224981250000 
 S -1.36530396874999 -3.15685999687500 -9.956481249999882E-002
