16

 C -2.29985717500000 -6.48427905312500 -2.20487139687500 
 C -1.12880017500000 -7.03571105312500 -1.51455439687500 
 C -2.43297717500000 -2.71410305312500 -2.37224139687500 
 C -1.15787117500000 -3.15572205312500 -1.68938339687500 
 N -4.503117500000364E-002 -7.22400405312500 -2.28053839687500 
 N -2.13986217500000 -6.30238205312500 -3.50537039687500 
 N -3.04981917500000 -6.74943505312500 0.241856603125000 
 N -0.173840175000004 -3.22984805312500 -2.55224839687500 
 N -2.28705417500000 -2.40068605312500 -3.66208939687500 
 N -2.97113917500000 -3.18341205312500 0.142100603125000 
 S -0.536264175000004 -6.76560305312500 -3.84867839687500 
 S -3.69732917500000 -6.24909205312500 -1.21714039687500 
 S -1.43464117500000 -7.22993505312500 0.278682603125000 
 S -0.654903175000004 -2.67799305312500 -4.05078239687500 
 S -3.78517717500000 -2.67476305312500 -1.25565539687500 
 S -1.38140617500000 -3.68648705312500 -6.764239687499995E-002
