16

 C -2.32765976250000 -6.31565770937500 -2.40870553125000 
 C -1.15352476250000 -6.85739970937500 -1.80311253125000 
 C -2.55072076250000 -2.58612670937501 -2.19188253125000 
 C -1.27135476250000 -3.04833270937501 -1.61696253125000 
 N -9.815876249999889E-002 -7.06177070937501 -2.58193653125000 
 N -2.19981676250000 -6.15280370937501 -3.70919453125000 
 N -2.85727776250000 -6.49063370937500 6.434246874999894E-002
 N -0.309666762499999 -3.16199570937501 -2.51361453125000 
 N -2.48570476250000 -2.36491170937501 -3.49334853125000 
 N -2.93817876250000 -2.88124470937500 0.294123468749999 
 S -0.647435762499999 -6.58046470937501 -4.08751053125000 
 S -3.66930576250000 -6.27008170937500 -1.35322753125000 
 S -1.26556176250000 -7.03173970937500 -9.071253125000123E-002
 S -0.961324762499999 -2.74488870937500 -3.98301153125000 
 S -3.81756076250000 -2.50353670937501 -1.01120753125000 
 S -1.34878376250000 -3.31019270937500 6.465346874999889E-002
