16

 C -2.62630948125000 -6.43352135000000 -2.46805944062500 
 C -1.35258848125000 -6.62697335000000 -1.80904544062500 
 C -2.67635148125000 -2.67015735000000 -2.57181544062500 
 C -1.38516848125000 -2.95286535000000 -2.00445144062500 
 N -0.266769481249996 -6.62552635000000 -2.57965644062500 
 N -2.44842648125000 -6.29571735000000 -3.78220144062500 
 N -3.09842148125000 -6.54404535000000 6.867455937500022E-002
 N -0.393934481249996 -3.00607235000000 -2.88716444062500 
 N -2.73089548125000 -2.46827735000000 -3.84485344062500 
 N -3.10018848125000 -3.13888835000000 -8.965344062499980E-002
 S -0.781347481249997 -6.38106035000000 -4.10846744062500 
 S -3.93382648125000 -6.45962235000000 -1.32749844062500 
 S -1.45407048125000 -6.92455335000000 -0.107930440625000 
 S -1.17899748125000 -2.73712435000000 -4.37478744062500 
 S -3.94603648125000 -2.52089635000000 -1.38559144062500 
 S -1.48732148125000 -3.34411035000000 -0.335624440625000 
