16

 C -2.51921253124999 -6.60578148750000 -2.48645933750000 
 C -1.24162253124999 -6.89101048750000 -1.83775133750000 
 C -2.30550553124999 -3.19084848750000 -2.17891233750000 
 C -1.12967953124999 -3.67826448750000 -1.55038033750000 
 N -0.291493531249993 -7.06318848750000 -2.73824433750000 
 N -2.48148653124999 -6.62941348750000 -3.79568533750000 
 N -3.08164153124999 -6.63627948750000 6.185066249999949E-002
 N -8.314753124999363E-002 -3.79763348750000 -2.33883033750000 
 N -2.08973153124999 -2.90367048750000 -3.45348033750000 
 N -2.92928053124999 -3.43536948750000 0.281133662500000 
 S -0.917579531249993 -6.87139248750000 -4.28189833750000 
 S -3.85566953124999 -6.45420948750000 -1.39002733750000 
 S -1.41729953124999 -6.85622348750000 -5.283133750000046E-002
 S -0.526746531249993 -3.28908248750000 -3.87424433750000 
 S -3.66028453124999 -3.09317148750000 -1.15222133750000 
 S -1.32339853124999 -3.80940048750000 0.152462662500000 
