16

 C -2.42157071250000 -6.47242297500000 -2.36482720625000 
 C -1.20066371250000 -6.81308697500000 -1.73650020625000 
 C -2.22285771250000 -2.92633497500000 -2.14834420625000 
 C -0.970384712500000 -3.26990697500000 -1.52390120625000 
 N -0.128173712499999 -6.87016897500000 -2.51062420625000 
 N -2.25859171250000 -6.33610097500000 -3.66280120625000 
 N -2.98502671250000 -6.77146797500000 0.119532793749998 
 N -5.225771249999944E-002 -3.45547697500000 -2.46799320625000 
 N -2.23405071250000 -2.82153997500000 -3.48425320625000 
 N -2.69458271250000 -3.25831997500000 0.343519793749998 
 S -0.672107712499999 -6.51335797500000 -4.04867820625000 
 S -3.84778271250000 -6.46862397500000 -1.33426620625000 
 S -1.35299571250000 -6.88527397500000 1.642779374999814E-002
 S -0.655340712499999 -3.07970397500000 -3.95374720625000 
 S -3.57152971250000 -2.91375197500000 -1.03584620625000 
 S -1.01787871250000 -3.59104897500000 0.216842793749998 
