16

 C -2.22783016875000 -6.48204728437500 -2.27963752812500 
 C -1.07175216875000 -7.05894828437500 -1.71373852812500 
 C -2.32630516875000 -2.62793628437500 -2.46551452812500 
 C -1.12496216875000 -3.13798028437500 -1.85121452812500 
 N -0.121044168749998 -7.31194428437500 -2.62258652812500 
 N -2.20922316875000 -6.31968028437500 -3.60470952812500 
 N -2.58799016875000 -6.66015228437500 0.299465471874999 
 N -8.917416874999873E-002 -3.28567728437500 -2.68097552812500 
 N -2.15755016875000 -2.27535128437500 -3.72097452812500 
 N -2.87224116875000 -3.06731028437500 7.390647187499888E-002
 S -0.744937168749999 -6.84344328437500 -4.09067852812500 
 S -3.36076716875000 -6.06246728437500 -1.02596552812500 
 S -1.17214216875000 -7.33285928437500 1.660547187499883E-002
 S -0.564930168749998 -2.80967528437500 -4.17645652812500 
 S -3.57473516875000 -2.41935028437500 -1.31403552812500 
 S -1.36796316875000 -3.58540528437500 -0.184664528125001 
