16

 C -2.16398799062500 -6.39242942187500 -2.39776130625000 
 C -0.944673990625001 -6.79339542187500 -1.78624730625000 
 C -2.61139199062500 -2.87765242187500 -2.52400930625000 
 C -1.38446599062500 -3.24367342187500 -1.79366630625000 
 N 6.363000937500018E-002 -6.79962742187500 -2.64780330625000 
 N -2.12972799062500 -6.25204142187500 -3.71558730625000 
 N -2.61180199062500 -6.67384942187500 0.109447693750001 
 N -0.253472990625000 -3.42026142187500 -2.52632130625000 
 N -2.36340899062500 -2.76012542187500 -3.83679630625000 
 N -3.21873799062500 -2.83097142187500 4.658693750000831E-003
 S -0.568656990625001 -6.47138742187500 -4.13129030625000 
 S -3.47860199062500 -6.40569042187500 -1.27780430625000 
 S -1.03278499062500 -7.07785842187500 -0.102720306249999 
 S -0.777418990625001 -3.06539142187500 -4.06145330625000 
 S -3.92548499062500 -2.47117442187500 -1.48196330625000 
 S -1.66099999062500 -3.38213242187500 -4.854430624999928E-002
