16

 C -2.40727101875000 -6.38754379062500 -2.43649339375000 
 C -1.13776401875000 -6.67117979062500 -1.81707439375000 
 C -2.29959701875000 -2.92185679062500 -2.42313839375000 
 C -1.05749801875000 -3.24055079062500 -1.79970539375000 
 N -0.143575018750001 -6.98152079062500 -2.65696939375000 
 N -2.30815701875000 -6.31091579062500 -3.77339939375000 
 N -2.87505901875000 -6.38899879062500 3.779260625000092E-002
 N -8.696501875000084E-002 -3.29493279062500 -2.68689139375000 
 N -2.29376401875000 -2.87436179062500 -3.74702339375000 
 N -2.73509201875000 -2.98406779062500 0.122112606250001 
 S -0.764959018750001 -6.71975579062500 -4.14705939375000 
 S -3.71741501875000 -6.24182579062500 -1.37755339375000 
 S -1.28041101875000 -6.87132879062500 -9.352039374999910E-002
 S -0.710306018750001 -3.19203379062500 -4.22644639375000 
 S -3.57108401875000 -2.71761079062500 -1.30662239375000 
 S -1.11446801875000 -3.47681479062500 -0.102205393749999 
