16

 C -2.39296656562501 -6.44331617499999 -2.33610099375000 
 C -1.12286056562501 -6.86164917499999 -1.79534699375000 
 C -2.54923256562501 -2.77744117499999 -2.41944199375000 
 C -1.37083756562501 -3.26164817499999 -1.67910299375000 
 N -9.238356562501160E-002 -6.91609417499999 -2.63045999375000 
 N -2.36459656562501 -6.18087717499999 -3.66118599375000 
 N -2.75015456562501 -6.82298317499999 0.210644006250000 
 N -0.340402565625011 -3.44828517499999 -2.42469699375000 
 N -2.37289256562501 -2.61071317499999 -3.71164399375000 
 N -3.21906956562501 -2.95483317499999 7.911006250000074E-003
 S -0.811321565625011 -6.54047517499999 -4.11916699375000 
 S -3.66959256562501 -6.43677617499999 -1.08678999375000 
 S -1.12341556562501 -7.16685617499999 -0.100944993750000 
 S -0.842360565625011 -3.02010517499999 -4.06201299375000 
 S -3.89914956562501 -2.40008017499999 -1.39575499375000 
 S -1.60678256562501 -3.42875717499999 2.260400624999992E-002
