16

 C -2.58940546250000 -6.66260744062500 -2.46616171250000 
 C -1.33443646250000 -6.96042944062500 -1.80838271250000 
 C -2.27695746250000 -3.15286244062500 -2.25697571250000 
 C -1.01070146250000 -3.60547544062500 -1.55488971250000 
 N -0.354693462500000 -7.17559444062500 -2.64840471250000 
 N -2.60659146250000 -6.60962644062500 -3.78123271250000 
 N -3.03261446250000 -6.72132044062500 5.191928749999786E-002
 N 5.996353749999983E-002 -3.67929444062500 -2.34378071250000 
 N -2.11035146250000 -2.89562544062500 -3.56614771250000 
 N -2.90704746250000 -3.36533344062500 0.249427287499998 
 S -1.02144946250000 -6.93362044062500 -4.15206071250000 
 S -3.89179846250000 -6.47443944062500 -1.35593271250000 
 S -1.44897646250000 -6.98955044062500 -9.547271250000211E-002
 S -0.528804462500000 -3.29323544062500 -3.85753971250000 
 S -3.65675246250000 -2.92386544062500 -1.19183871250000 
 S -1.31708246250000 -3.86552944062500 0.151448287499998 
