16

 C -2.49752245000001 -6.80612139375000 -2.25324837187500 
 C -1.20460045000001 -7.13914039375000 -1.75256237187500 
 C -2.65583345000001 -2.78746339375000 -2.43854537187500 
 C -1.40287545000001 -3.28466739375000 -1.81498937187500 
 N -0.237012450000009 -7.32489139375000 -2.66412137187500 
 N -2.50273945000001 -6.70939439375000 -3.57451737187500 
 N -2.74351845000001 -7.11064339375000 0.367955628125001 
 N -0.418604450000009 -3.50415239375000 -2.66900837187500 
 N -2.47711145000001 -2.44917339375000 -3.71308537187500 
 N -3.11884045000001 -3.20226539375000 0.149062628125001 
 S -0.991651450000009 -7.09946739375000 -4.11737637187500 
 S -3.72300345000001 -6.72193539375000 -0.986130371874999 
 S -1.14578345000001 -7.30502039375000 -8.296371874999098E-003
 S -0.987553450000009 -2.93669139375000 -4.19327237187500 
 S -3.88715745000001 -2.59274339375000 -1.21306637187500 
 S -1.50379145000001 -3.43211439375000 -0.109892371874999 
