16

 C -2.20646847187500 -6.37860099062500 -2.35717476875000 
 C -0.968271471874999 -6.76638499062500 -1.77954176875000 
 C -2.57432047187500 -2.68071599062500 -2.32557676875000 
 C -1.30062247187500 -3.17816799062500 -1.70152576875000 
 N 3.769752812500027E-002 -6.92437799062500 -2.64754976875000 
 N -2.12565947187500 -6.21299799062500 -3.67390876875000 
 N -2.75270747187500 -6.81896199062500 0.113365231250000 
 N -0.269016471874999 -3.23630199062500 -2.55060376875000 
 N -2.47179647187500 -2.40194899062500 -3.63027676875000 
 N -3.04932247187500 -3.03679699062500 0.176422231250001 
 S -0.589870471875000 -6.51729099062500 -4.13043176875000 
 S -3.56486447187500 -6.29242099062500 -1.25856776875000 
 S -1.10531947187500 -6.97866099062500 -5.946476874999940E-002
 S -0.929748471875000 -2.78732699062500 -4.00573076875000 
 S -3.91370547187500 -2.54071999062500 -1.15301776875000 
 S -1.44045547187500 -3.23098899062500 2.139423125000040E-002
