16

 C -2.23526653125000 -6.68100947187500 -2.24337187812500 
 C -0.905596531249997 -6.98386747187500 -1.75554587812500 
 C -2.48435953125000 -2.69542147187500 -2.30105787812500 
 C -1.34133653125000 -3.26434347187500 -1.73484687812500 
 N 9.381468750003563E-003 -7.01391747187500 -2.70259987812500 
 N -2.34922353125000 -6.42775447187500 -3.55252887812500 
 N -2.43033353125000 -6.98230847187500 0.281206121875002 
 N -0.373767531249997 -3.46738547187500 -2.59326287812500 
 N -2.48853353125000 -2.60758747187500 -3.61476687812500 
 N -3.00925253125000 -3.03441547187500 0.174156121875002 
 S -0.784487531249997 -6.65417647187500 -4.17309587812500 
 S -3.43256353125000 -6.52748547187500 -1.00968987812500 
 S -0.814359531249996 -7.28296847187500 -2.073087812499796E-002
 S -0.895576531249997 -3.07443847187500 -4.11861287812500 
 S -3.80863453125000 -2.44812047187500 -1.21304687812500 
 S -1.44715653125000 -3.54910647187500 -1.301878124998046E-003
