16

 C -2.70552757812500 -6.41159100625001 -2.62319885937500 
 C -1.48714257812500 -6.81945400625001 -1.95171185937500 
 C -2.33017957812500 -2.91727000625001 -2.41849385937500 
 C -1.06600657812500 -3.23739500625001 -1.81096685937500 
 N -0.409887578125002 -6.94545800625001 -2.72874785937500 
 N -2.53813557812500 -6.13891400625001 -3.90884085937500 
 N -3.32385357812500 -6.64197400625001 -0.129979859375002 
 N -5.130657812500239E-002 -3.28597100625001 -2.65668585937500 
 N -2.33063457812500 -2.72416800625001 -3.73702785937500 
 N -2.69549257812500 -3.01818000625001 0.141642140624998 
 S -0.941652578125002 -6.40308800625001 -4.25176385937500 
 S -4.09578057812500 -6.36243000625000 -1.61513585937500 
 S -1.77400057812500 -7.24827600625001 -0.312500859375002 
 S -0.748931578125003 -3.05671500625001 -4.18367285937500 
 S -3.60216557812500 -2.68140600625001 -1.19503585937500 
 S -1.12966357812500 -3.50390200625001 -6.063985937500194E-002
