16

 C -2.64820369375000 -6.25858460000001 -2.29199075625000 
 C -1.43813269375000 -6.71553060000001 -1.67342075625000 
 C -2.40791969375000 -2.64477260000001 -2.43194775625000 
 C -1.20728169375000 -2.98914360000001 -1.72472575625000 
 N -0.469027693750001 -6.95922860000001 -2.52350875625000 
 N -2.58606969375000 -6.16650760000001 -3.61102775625000 
 N -3.09889869375000 -6.44023360000001 0.223645243749998 
 N -0.172513693750001 -3.31255560000001 -2.49923875625000 
 N -2.24911569375000 -2.56583560000001 -3.75471875625000 
 N -3.04906569375000 -2.78870560000001 3.934724374999798E-002
 S -1.06899869375000 -6.60501660000001 -4.01623075625000 
 S -3.92601769375000 -5.85418360000001 -1.17529375625000 
 S -1.54053669375000 -6.90493460000001 2.892824374999803E-002
 S -0.713528693750001 -3.00154960000001 -4.10673175625000 
 S -3.70554969375000 -2.31708460000001 -1.45194275625000 
 S -1.41995969375000 -3.08928160000001 -3.825175625000177E-002
