16

 C -2.19866246875000 -6.25873666250000 -2.31556490312500 
 C -0.963414468749995 -6.79810366250000 -1.75668790312500 
 C -2.75873046875000 -2.55165766250000 -2.47957990312500 
 C -1.55365146875000 -3.00420166250000 -1.86750090312500 
 N -2.316746874999520E-002 -6.94527966250000 -2.66061690312500 
 N -2.14582946875000 -6.09560866250000 -3.64203590312500 
 N -2.57578246875000 -6.67365766250000 0.230262096875000 
 N -0.536017468749995 -3.10714766250000 -2.66549590312500 
 N -2.65766346875000 -2.34095366250000 -3.77892790312500 
 N -3.38160246875000 -2.92888766250000 -5.375990312500001E-002
 S -0.608063468749996 -6.46995066250000 -4.12871390312500 
 S -3.46098946875000 -6.22268366250000 -1.10907890312500 
 S -1.02992646875000 -7.21069966250000 -6.459090312500004E-002
 S -1.11506246875000 -2.65743666250000 -4.22933290312500 
 S -4.09789746874999 -2.34124466250000 -1.40180290312500 
 S -1.80823446875000 -3.33568166250000 -0.204744903125000 
