16

 C -2.51973502187500 -6.53546977187499 -2.41905700937500 
 C -1.22285302187500 -6.93564077187499 -1.93987700937500 
 C -2.64341402187500 -2.76793577187499 -2.48040600937500 
 C -1.48902502187500 -3.22117777187499 -1.72323700937500 
 N -0.279448021874996 -6.91054877187499 -2.88318200937500 
 N -2.51600202187500 -6.36620977187499 -3.74122800937500 
 N -2.78672902187500 -6.86114777187499 7.140199062500008E-002
 N -0.491843021874996 -3.58535777187499 -2.51829000937500 
 N -2.41656602187500 -2.71468577187499 -3.78767200937500 
 N -3.28091902187500 -2.67389077187499 -6.361200937500011E-002
 S -1.02529602187500 -6.55416277187499 -4.33883300937500 
 S -3.74844502187500 -6.46091777187499 -1.25956500937500 
 S -1.23480302187500 -7.47932977187499 -0.247311009375000 
 S -0.862742021874997 -3.32299977187499 -4.07844300937500 
 S -3.90020702187500 -2.06749877187499 -1.52448200937500 
 S -1.74755002187500 -3.23557877187499 -4.151400937499994E-002
