16

 C -2.65058226875000 -6.47947690625000 -2.30544377812500 
 C -1.38871926875000 -6.96270990625000 -1.76754477812500 
 C -2.32994226875000 -2.97088490625000 -2.40534477812500 
 C -1.18176326875000 -3.49827790625000 -1.76356677812500 
 N -0.433594268749999 -7.10222690625000 -2.69581777812500 
 N -2.61751026875000 -6.32523590625000 -3.62965477812500 
 N -2.99585326875000 -6.76461190625000 0.208359221874999 
 N -0.113553268750000 -3.67455990625000 -2.55473477812500 
 N -2.18525426875000 -2.69847390625000 -3.70670777812500 
 N -2.94968726875000 -3.07780290625000 6.071622187499925E-002
 S -1.07762326875000 -6.61421490625000 -4.10991777812500 
 S -3.90769926875000 -6.22330490625000 -1.12579277812500 
 S -1.37652626875000 -7.07441290625000 -5.839377812500079E-002
 S -0.652233268749999 -3.21066090625000 -4.04535077812500 
 S -3.70358026875000 -2.79126890625000 -1.36190677812500 
 S -1.37689626875000 -3.64326990625000 2.344722187499926E-002
