16

 C -2.35552866250000 -6.22390130000000 -2.24867627187500 
 C -1.15103066250000 -6.77732430000000 -1.68304627187500 
 C -2.47831066250000 -2.80109130000000 -2.72183127187500 
 C -1.17649666250000 -3.02872730000000 -2.04807727187500 
 N -0.183984662500005 -6.98915830000000 -2.54866427187500 
 N -2.18687266250000 -5.80521030000000 -3.52131327187500 
 N -2.87909566250000 -6.74502130000000 0.259612728125000 
 N -0.173877662500004 -2.89922030000000 -2.88151027187500 
 N -2.41627766250000 -2.52075530000000 -4.01614727187500 
 N -2.90193666250000 -3.03243330000000 -0.198372271875000 
 S -0.677006662500005 -6.31578330000000 -3.98673627187500 
 S -3.67130666250000 -6.18598430000000 -1.10156827187500 
 S -1.28163666250000 -7.09828030000000 5.144972812500015E-002
 S -0.787034662500004 -2.58032230000000 -4.40507827187500 
 S -3.82049266250000 -2.96822730000000 -1.55371227187500 
 S -1.24564666250000 -3.35180030000000 -0.323246271875000 
