16

 C -2.44483310625000 -6.41714431250000 -2.34608640000000 
 C -1.20737310625000 -6.71790431250000 -1.71446640000000 
 C -2.32010010625000 -3.05944131250000 -2.10120140000000 
 C -1.09637510625000 -3.41669031250000 -1.46551040000000 
 N -0.176405106249997 -6.91649231250000 -2.51212040000000 
 N -2.33741910625000 -6.23144131250000 -3.62979240000000 
 N -2.93249910625000 -6.93584931250000 0.155236599999999 
 N -3.340910624999793E-002 -3.46157931250000 -2.23346940000000 
 N -2.28589910625000 -2.86908231250000 -3.42215540000000 
 N -2.89070210625000 -3.33347931250000 0.451241599999999 
 S -0.758604106249997 -6.61828331250000 -4.03307140000000 
 S -3.75816510625000 -6.53261331250000 -1.28112140000000 
 S -1.31723010625000 -7.00862531250000 4.696599999999052E-003
 S -0.692526106249997 -3.21968831250000 -3.80003540000000 
 S -3.67553110625000 -3.01379031250000 -0.932356400000001 
 S -1.24647310625000 -3.54441231250000 0.211661599999999 
