16

 C -2.35799983125000 -6.65105706562500 -2.48427966250000 
 C -1.13829483125000 -7.09424306562500 -1.87970266250000 
 C -2.38155683125000 -2.97916906562500 -2.50053466250000 
 C -1.23560083125000 -3.46936406562500 -1.83883766250000 
 N -0.100843831249996 -7.12078306562500 -2.67679266250000 
 N -2.23613383125000 -6.26478106562500 -3.74619166250000 
 N -2.88492083125000 -6.98351606562500 8.631337499999336E-003
 N -0.205585831249996 -3.70331606562500 -2.61923466250000 
 N -2.20904183125000 -2.73035406562500 -3.78124966250000 
 N -3.05009883125000 -3.22188306562500 -3.994766250000081E-002
 S -0.635986831249996 -6.58747406562500 -4.15793066250000 
 S -3.67149583125000 -6.60015606562500 -1.43097666250000 
 S -1.29807783125000 -7.36095206562500 -0.203782662500001 
 S -0.668195831249996 -3.26766606562500 -4.08384966250000 
 S -3.72762283125000 -2.65767306562500 -1.49238866250000 
 S -1.49432183125000 -3.71540306562500 -0.158199662500001 
