16

 C -2.39748158437500 -6.62425344687500 -2.24819211875000 
 C -1.12165358437500 -6.77251344687500 -1.54736011875000 
 C -2.31874658437500 -2.68857844687500 -2.50279811875000 
 C -1.08183058437500 -3.22814844687500 -1.98783211875000 
 N -0.107606584374996 -6.73911844687500 -2.42539711875000 
 N -2.32912858437500 -6.54795244687500 -3.58758411875000 
 N -3.04025158437500 -6.93390444687500 0.273196881250001 
 N -0.131140584374997 -3.42062044687500 -2.90427511875000 
 N -2.36775858437500 -2.65074944687500 -3.84828511875000 
 N -2.71349258437500 -2.90202944687500 -1.033118749998785E-003
 S -0.756625584374996 -6.63031744687500 -3.95992311875000 
 S -3.78835758437500 -6.68956844687500 -1.19837211875000 
 S -1.33537858437500 -7.05653944687500 0.161877881250001 
 S -0.795471584374996 -3.05482844687500 -4.37336811875000 
 S -3.56375658437500 -2.41970044687500 -1.34734611875000 
 S -1.18111458437500 -3.44227044687500 -0.237952118749999 
