16

 C -2.67652257500000 -6.70223268437501 -2.22367839062500 
 C -1.44577957500000 -7.19835068437501 -1.65409639062500 
 C -2.25385357500000 -2.92077268437501 -2.28850539062500 
 C -1.08912357500000 -3.41717168437501 -1.66859339062500 
 N -0.563790575000001 -7.50206968437501 -2.61387039062500 
 N -2.66281857500000 -6.50975568437501 -3.54816939062500 
 N -3.14699357500000 -7.02977368437501 0.300433609374998 
 N -6.053657500000043E-002 -3.53061768437501 -2.49584439062500 
 N -2.11536957500000 -2.73100768437501 -3.59053739062500 
 N -2.82689857500000 -3.18220368437501 0.179416609374998 
 S -1.16804257500000 -6.99316468437501 -4.06747739062500 
 S -3.87990457500000 -6.44070968437501 -1.08266239062500 
 S -1.53296357500000 -7.41233668437501 3.223960937499748E-002
 S -0.592394575000000 -3.22429368437501 -4.06406239062500 
 S -3.57185257500000 -2.57121768437501 -1.18233339062500 
 S -1.23991357500000 -3.60445168437501 3.374560937499749E-002
