16

 C -2.26231430937499 -6.47468628437500 -2.28092127500000 
 C -1.04905030937500 -7.13619028437500 -1.76941527500000 
 C -2.25301730937499 -2.70003728437500 -2.41270027500000 
 C -1.06941630937500 -3.13839728437500 -1.71385127500000 
 N -0.104366309374995 -7.36745528437500 -2.68142327500000 
 N -2.14273330937499 -6.27138228437500 -3.58035527500000 
 N -2.57761230937500 -6.57186128437500 0.214609724999999 
 N -6.872830937499508E-002 -3.37338428437500 -2.54502327500000 
 N -2.08945930937499 -2.45422428437500 -3.68798727500000 
 N -2.91178830937499 -2.91658928437500 -1.766727500000109E-002
 S -0.709011309374995 -6.75092028437500 -4.12054727500000 
 S -3.46889430937499 -6.06274228437500 -1.13551927500000 
 S -1.14311230937500 -7.36074328437500 -2.942927500000114E-002
 S -0.474224309374994 -2.83512128437500 -4.05043327500000 
 S -3.67050730937499 -2.37380828437500 -1.46332227500000 
 S -1.37550030937499 -3.48020728437500 -4.465727500000116E-002
