16

 C -2.52802316250000 -6.86018092500001 -2.35995903750000 
 C -1.18889516250000 -7.18206692500001 -1.90194103750000 
 C -2.55312316250000 -2.84490692500001 -2.41460103750000 
 C -1.42088216250000 -3.38498692500001 -1.81280303750000 
 N -0.261539162500003 -7.23060092500001 -2.84434803750000 
 N -2.60414016250000 -6.64529192500001 -3.66514503750000 
 N -2.57275816250000 -6.91433892500001 0.211909962500002 
 N -0.357929162500002 -3.47952892500001 -2.62480803750000 
 N -2.46972716250000 -2.66119292500001 -3.73551503750000 
 N -3.23819016250000 -3.22998492500001 7.813962500001992E-003
 S -1.05072416250000 -6.91284792500001 -4.28786803750000 
 S -3.63014816250000 -6.80910692500001 -1.04654803750000 
 S -1.06596816250000 -7.36551792500001 -0.209784037499998 
 S -0.873404162500003 -3.07518292500001 -4.09870103750000 
 S -3.89108516250000 -2.60097392500001 -1.34216403750000 
 S -1.67743516250000 -3.64871092500001 -0.104194037499998 
