16

 C -2.49567188750000 -6.67797321250000 -2.32910329062500 
 C -1.18772288750000 -6.99845721250000 -1.75843629062500 
 C -2.22523588750000 -3.17659121250000 -2.28537729062500 
 C -1.03212788750000 -3.65733421250000 -1.64976029062500 
 N -0.235152887499999 -7.27751021250000 -2.65620329062500 
 N -2.54549488750000 -6.66351521250000 -3.67961429062500 
 N -2.88763688750000 -6.77091321250000 0.216441709374999 
 N -2.826188749999936E-002 -3.91077521250000 -2.47287129062500 
 N -2.11616288750000 -2.96532621250000 -3.62394029062500 
 N -2.74297188750000 -3.36860621250000 0.222764709374999 
 S -1.01119888750000 -6.99254021250000 -4.14638629062500 
 S -3.73987888750000 -6.38615821250000 -1.14661029062500 
 S -1.24345788750000 -7.08053221250000 -1.394829062500103E-002
 S -0.617435887499999 -3.47499121250000 -4.09390329062500 
 S -3.53024788750000 -2.95088521250000 -1.17064329062500 
 S -1.15058988750000 -3.76731921250000 7.111770937499906E-002
