16

 C -2.38068996250000 -6.58021103125000 -2.50367605625000 
 C -1.11554996250000 -7.03270103125000 -1.92436705625000 
 C -2.36019796250000 -2.88147303125000 -2.49704405625000 
 C -1.30462296250000 -3.54040203125000 -1.81526605625000 
 N -0.129847962500000 -7.10270703125000 -2.79691905625000 
 N -2.28159796250000 -6.29821303125000 -3.81513305625000 
 N -2.83743296250000 -7.11070403125000 4.769437499994034E-004
 N -0.254238962500000 -3.85220203125000 -2.53344505625000 
 N -2.17153196250000 -2.70309703125000 -3.78957105625000 
 N -3.12669096250000 -3.16112203125000 -5.501105625000058E-002
 S -0.707115962500000 -6.58206103125000 -4.23061705625000 
 S -3.74614096250000 -6.68197303125000 -1.29773905625000 
 S -1.16667796250000 -7.35778003125000 -0.236442056250000 
 S -0.660208962500000 -3.27933503125000 -4.13279905625000 
 S -3.78558396250000 -2.70035703125000 -1.47184305625000 
 S -1.52068496250000 -3.70614403125000 -7.909205625000038E-002
