16

 C -2.53697493437500 -6.70843265000001 -2.37368285312500 
 C -1.33898793437500 -7.24102765000001 -1.69525485312500 
 C -2.47911393437500 -2.43861165000001 -2.46117285312500 
 C -1.28688193437500 -2.99531465000001 -1.76819285312500 
 N -0.266810934374998 -7.57319965000001 -2.46490585312500 
 N -2.32817293437500 -6.59927665000001 -3.68262785312500 
 N -3.05826693437500 -6.51860965000001 0.157104146875001 
 N -0.309155934374998 -3.28547665000001 -2.62983785312500 
 N -2.38668093437500 -2.33299365000001 -3.80876385312500 
 N -3.18320093437500 -3.06617165000001 -4.202085312499904E-002
 S -0.824462934374998 -7.17004265000001 -3.99803685312500 
 S -3.77678193437500 -6.16917165000001 -1.31638885312500 
 S -1.58146593437500 -7.23090565000001 0.114022146875001 
 S -0.836747934374999 -2.83979465000001 -4.14428885312500 
 S -3.80785893437500 -2.19304465000001 -1.33829285312500 
 S -1.54064793437500 -3.38040765000001 -4.106285312499902E-002
