16

 C -2.27703881875000 -6.80953681562500 -2.37792462812500 
 C -1.10225281875000 -7.21936681562500 -1.63441962812500 
 C -2.96991481875000 -2.99940281562500 -2.35645962812500 
 C -1.73924881875000 -3.54814081562500 -1.74656562812500 
 N -0.108969818750002 -7.48322181562500 -2.44713462812500 
 N -2.11381081875000 -6.73390381562500 -3.69947962812500 
 N -3.01248681875000 -6.83964981562500 7.169137187499741E-002
 N -0.751562818750003 -3.94307281562500 -2.53258262812500 
 N -2.83487381875000 -2.94032381562500 -3.66037262812500 
 N -3.44533581875000 -3.30315481562500 0.153676371874997 
 S -0.544025818750002 -7.16116281562500 -4.01634962812500 
 S -3.69689181875000 -6.53057881562500 -1.34860062812500 
 S -1.38813781875000 -7.29675581562500 1.883718749973173E-004
 S -1.27979681875000 -3.41688181562500 -4.03878962812500 
 S -4.18393881875000 -2.73848881562500 -1.20320962812500 
 S -1.89090381875000 -3.74669881562500 -2.055062812500275E-002
