16

 C -2.67117889687500 -6.21337530624999 -2.49242790000000 
 C -1.51236489687500 -6.73377130624999 -1.83501990000000 
 C -2.21758189687500 -3.01434930624999 -2.25755290000000 
 C -0.910189896875004 -3.41113130624999 -1.69688690000000 
 N -0.437124896875004 -7.03013530624999 -2.58693590000000 
 N -2.40773489687500 -6.03826330624999 -3.78779490000000 
 N -3.36555589687500 -6.49581430624999 -2.341890000000157E-002
 N 6.500410312499572E-002 -3.38324530624999 -2.59333190000000 
 N -2.13194989687500 -2.69899730624999 -3.54006490000000 
 N -2.61999389687500 -3.43696630624999 0.222451099999998 
 S -0.908468896875005 -6.61616430624999 -4.12327390000000 
 S -4.04058889687500 -5.94626830624999 -1.43707890000000 
 S -1.79737589687500 -7.00517330624999 -0.142538900000002 
 S -0.561502896875004 -2.83270730624999 -4.03943790000000 
 S -3.54394389687500 -2.97281230624999 -1.11428390000000 
 S -1.00006689687500 -3.73203930624999 -6.616900000001591E-003
