16

 C -2.42263301874999 -6.51751355312500 -2.46074610312500 
 C -1.30718801874999 -7.01022955312500 -1.68211610312500 
 C -2.32870801874999 -2.86686555312500 -2.55414810312500 
 C -1.17018601874999 -3.28526555312500 -1.87816210312500 
 N -0.215930018749990 -7.26026655312500 -2.39035010312500 
 N -2.15469601874999 -6.42414155312500 -3.75510110312500 
 N -3.25785301874999 -6.76641755312500 -5.437910312500049E-002
 N -0.127042018749990 -3.50259255312500 -2.71837710312500 
 N -2.16020201874999 -2.58881455312500 -3.84820210312500 
 N -2.96043301874999 -3.05309755312500 -3.509910312500075E-002
 S -0.555088018749990 -6.97337455312500 -3.97752810312500 
 S -3.81588201874999 -6.17448755312500 -1.50671610312500 
 S -1.61962601874999 -7.26447855312500 1.577989687499937E-002
 S -0.585126018749990 -3.06042255312500 -4.19338810312500 
 S -3.77759101874999 -2.69567655312500 -1.49831410312500 
 S -1.34143601874999 -3.59064655312500 -0.158895103125001 
