16

 C -2.53998631875000 -6.23217493750000 -2.46328544062500 
 C -1.44376231875000 -7.01119993750000 -2.03393344062500 
 C -2.53311031875000 -2.67581393750000 -2.41535444062500 
 C -1.37346331875000 -3.16466993750000 -1.77141744062500 
 N -0.475854318749998 -7.25428893750000 -2.93289844062500 
 N -2.47142031875000 -5.87557393750000 -3.72994544062500 
 N -3.06646431875000 -6.95496293750000 -2.669244062499865E-002
 N -0.346289318749998 -3.39597393750000 -2.56153244062500 
 N -2.38875031875000 -2.45574793750000 -3.72767944062500 
 N -3.12044031875000 -2.93055593750000 9.883355937500116E-002
 S -0.985383318749998 -6.48283493750000 -4.35195544062500 
 S -3.77721431875000 -6.02586593750000 -1.26078344062500 
 S -1.63222931875000 -7.61254893750000 -0.410079440624999 
 S -0.839296318749998 -2.89655493750000 -4.10285444062500 
 S -3.84613831875000 -2.22676393750000 -1.29485244062500 
 S -1.55225931875000 -3.47180993750000 -8.144244062499872E-002
