16

 C -2.54175347812501 -6.23832222812500 -2.39146905937500 
 C -1.27266947812500 -6.62011622812500 -1.75209705937500 
 C -2.49111247812500 -2.46437922812500 -2.87384505937500 
 C -1.33077047812500 -2.91991722812500 -2.15860305937500 
 N -0.217463478125005 -6.74447922812500 -2.54700105937500 
 N -2.43546847812500 -6.09314922812500 -3.73745805937500 
 N -3.03169847812500 -6.66496322812500 0.157598940624999 
 N -0.198486478125005 -2.93769122812500 -2.85803005937500 
 N -2.27958947812501 -2.14759722812500 -4.16707705937500 
 N -3.25062247812501 -2.72740922812500 -0.422905059375001 
 S -0.835187478125005 -6.44024422812500 -4.04774105937500 
 S -3.90523747812500 -6.54966822812500 -1.25559705937500 
 S -1.39981847812501 -6.90646522812500 -9.312059375000459E-003
 S -0.661047478125005 -2.54898222812500 -4.44912505937500 
 S -3.90983247812501 -2.27835922812500 -1.87279605937500 
 S -1.60950247812500 -3.12796422812500 -0.517487059375001 
