16

 C -2.51743462500000 -6.64005335937500 -2.51873434062500 
 C -1.19856262500000 -6.80750135937500 -1.89277434062500 
 C -2.30531662500000 -3.17476135937500 -2.20620934062500 
 C -1.13108762500000 -3.64464335937500 -1.55691634062500 
 N -0.132283625000000 -6.96355835937500 -2.70844134062500 
 N -2.40442262500000 -6.54766235937500 -3.82885634062500 
 N -3.00761062500000 -6.59469335937500 4.032865937500230E-002
 N -0.101594625000001 -3.91954835937500 -2.37243334062500 
 N -2.21363462500000 -2.89899135937500 -3.53576934062500 
 N -2.88752662500000 -3.51145435937500 0.317551659375002 
 S -0.809995625000001 -6.84579235937500 -4.26830234062500 
 S -3.84844462500000 -6.40425735937500 -1.39971334062500 
 S -1.38018762500000 -6.78778435937500 -0.124455340624998 
 S -0.615816625000001 -3.30059535937500 -3.82401834062500 
 S -3.71979062500000 -3.23171235937500 -1.11684934062500 
 S -1.26348462500000 -3.76672835937500 0.224277659375002 
