16

 C -2.50344604687501 -6.29180593437500 -2.47140415625000 
 C -1.33960404687501 -6.83151693437500 -1.83401015625000 
 C -2.43245604687501 -2.50586793437500 -2.50809415625000 
 C -1.22581004687501 -2.97445993437500 -1.79170615625000 
 N -0.355822046875009 -7.07721593437500 -2.69307515625000 
 N -2.37476204687501 -6.14130393437500 -3.78643115625000 
 N -3.17017004687501 -6.39195593437500 -2.019715624999874E-002
 N -0.291800046875008 -3.33384593437500 -2.63200415625000 
 N -2.25965404687501 -2.33096093437500 -3.80378315625000 
 N -3.06899004687501 -2.60801793437500 1.928484375000128E-002
 S -0.859028046875008 -6.73224193437500 -4.21882515625000 
 S -3.83613304687501 -5.94890093437500 -1.44257115625000 
 S -1.62136004687501 -7.03400993437500 -0.139494156249999 
 S -0.710509046875009 -2.91806293437500 -4.14594515625000 
 S -3.74730604687501 -2.11351793437500 -1.43422415625000 
 S -1.45156304687501 -2.97081793437500 -5.502615624999896E-002
