16

 C -2.36501629687500 -6.93682131562500 -2.40882836250000 
 C -1.16264029687500 -7.33405131562500 -1.73200936250000 
 C -2.81940929687500 -2.95146031562500 -2.32325336250000 
 C -1.72405029687500 -3.57131231562500 -1.74558836250000 
 N -4.485529687499934E-002 -7.53797531562500 -2.43700436250000 
 N -2.11789429687500 -6.80821731562500 -3.70320036250000 
 N -2.96284529687500 -6.80166831562500 0.105869637500000 
 N -0.793408296875000 -3.93185931562500 -2.61783736250000 
 N -2.78621729687500 -2.83908731562500 -3.64949536250000 
 N -3.41082829687500 -3.21402231562500 0.163494637500000 
 S -0.521311296875000 -7.10401431562500 -4.00152236250000 
 S -3.68599629687500 -6.50343731562500 -1.39498036250000 
 S -1.41702929687500 -7.34752631562500 4.599763750000019E-002
 S -1.29096829687500 -3.43061531562500 -4.06298136250000 
 S -4.13786429687500 -2.61275631562500 -1.19990936250000 
 S -1.86457629687500 -3.75894431562500 -0.103924362500000 
