16

 C -2.29529601875000 -6.45312837500000 -2.31872608125000 
 C -1.03699201875000 -6.85786037500000 -1.80938508125000 
 C -2.56363801875000 -2.68355237500000 -2.46465608125000 
 C -1.40974401875000 -3.22271037500000 -1.76708008125000 
 N -7.585701874999984E-002 -6.95971537500000 -2.73525208125000 
 N -2.35047201875000 -6.16705637500000 -3.63073408125000 
 N -2.61268201875000 -6.74564937500000 0.239411918750000 
 N -0.394769018750000 -3.49758537500000 -2.59892508125000 
 N -2.39832301875000 -2.39830837500000 -3.75521208125000 
 N -3.32598101875000 -2.98175637500000 1.266491875000009E-002
 S -0.778486018750000 -6.40436237500000 -4.14741108125000 
 S -3.53393201875000 -6.34174637500000 -1.11098808125000 
 S -1.04013801875000 -7.18191937500000 -5.032308124999973E-002
 S -0.839643018749999 -2.95322137500000 -4.05505108125000 
 S -3.96076701875000 -2.40759837500000 -1.38795808125000 
 S -1.72170401875000 -3.34867237500000 -6.394808124999996E-002
