16

 C -2.44954617187500 -6.51903412500000 -2.57749482500000 
 C -1.28935517187500 -6.94315012500000 -1.87695382500000 
 C -2.72149717187501 -2.88150712500000 -2.53004682500000 
 C -1.59984217187500 -3.50147612500000 -1.86033382500000 
 N -0.169015171875005 -7.04501412500000 -2.63252782500000 
 N -2.24764217187500 -6.24546212500000 -3.85101782500000 
 N -3.15643417187500 -6.71393612500000 3.850175000000844E-003
 N -0.534653171875004 -3.62979612500000 -2.64030082500000 
 N -2.54815617187500 -2.59748712500000 -3.84292882500000 
 N -3.40240917187500 -3.22924512500000 -9.599824999999118E-003
 S -0.633521171875005 -6.65694312500000 -4.23061582500000 
 S -3.83795417187500 -6.31669812500000 -1.47664782500000 
 S -1.58615817187501 -7.17555612500000 -0.207102824999999 
 S -1.06471617187500 -3.14531612500000 -4.17364982500000 
 S -3.96670117187500 -2.52940712500000 -1.40675982500000 
 S -1.88533317187501 -3.80469112500000 -0.152734824999999 
