16

 C -2.34466517812500 -6.51324851250000 -2.52957978750000 
 C -1.14980717812500 -6.84245451250000 -1.86246178750000 
 C -2.47603317812500 -2.63115051250000 -2.35864878750000 
 C -1.28799717812500 -3.04294651250000 -1.64300978750000 
 N -0.108299178124999 -6.87833951250000 -2.66337078750000 
 N -2.29243617812500 -6.31336851250000 -3.85549978750000 
 N -2.95571417812500 -6.92593551250000 -4.190278750000043E-002
 N -0.253612178124999 -3.38576851250000 -2.39632478750000 
 N -2.33210717812500 -2.53750751250000 -3.67345578750000 
 N -3.27478017812500 -2.76445751250000 8.132021249999966E-002
 S -0.716777178124999 -6.52046951250000 -4.19077078750000 
 S -3.72076417812500 -6.57142751250000 -1.48863178750000 
 S -1.34511817812500 -7.29076151250000 -0.182951787500000 
 S -0.738489178124999 -3.04424851250000 -3.93044178750000 
 S -3.86041717812500 -2.28986351250000 -1.44722378750000 
 S -1.66131717812500 -3.19780051250000 3.420521249999964E-002
