16

 C -2.31443441562500 -6.43066089375000 -2.61714737187500 
 C -1.14979441562500 -6.88137289375000 -1.95556837187500 
 C -2.28522641562500 -2.56472389375000 -2.52674237187500 
 C -1.02330441562500 -3.00421689375000 -2.01676737187500 
 N -0.128474415625001 -7.12471589375000 -2.75690137187500 
 N -2.21398841562500 -6.42029289375000 -3.95230537187500 
 N -3.01698941562500 -6.57961489375000 -0.124586371874998 
 N -8.895741562500081E-002 -2.97752389375000 -2.98535937187500 
 N -2.28861741562500 -2.18258889375000 -3.79647637187500 
 N -2.76462541562500 -3.24901289375000 -0.183821371874998 
 S -0.637077415625001 -6.76238489375000 -4.32537837187500 
 S -3.76140141562500 -6.07042489375000 -1.50144037187500 
 S -1.36145541562500 -6.90703689375000 -0.181428371874998 
 S -0.753397415625001 -2.52798989375000 -4.39683537187500 
 S -3.60173441562500 -2.62760389375000 -1.45811437187500 
 S -1.14819641562500 -3.59034489375000 -0.347382371874998 
