16

 C -2.28652672500000 -6.83277790000000 -2.37520668125000 
 C -1.11734272500000 -7.23057290000000 -1.64129868125000 
 C -2.95646672500000 -2.98617990000000 -2.35122568125000 
 C -1.73176272500000 -3.54805690000000 -1.74363768125000 
 N -0.105808725000001 -7.49310090000000 -2.44895168125000 
 N -2.10566672500000 -6.74970690000000 -3.68893268125000 
 N -3.01623672500000 -6.82945890000000 6.610131875000103E-002
 N -0.761951725000001 -3.94727490000000 -2.54764668125000 
 N -2.82885472500000 -2.93409190000000 -3.66210768125000 
 N -3.43418472500000 -3.29354990000000 0.152289318750001 
 S -0.537361725000001 -7.15245890000000 -4.01809068125000 
 S -3.69301972500000 -6.52795090000000 -1.34816868125000 
 S -1.39223772500000 -7.30325490000000 -4.286812499989523E-004
 S -1.28304672500000 -3.41737090000000 -4.03622168125000 
 S -4.17298272500000 -2.72298390000000 -1.20166468125000 
 S -1.89429972500000 -3.74541290000000 -3.976968124999880E-002
