16

 C -2.16837896562500 -6.22993909062500 -2.17274371562500 
 C -0.955869965625003 -6.76987509062500 -1.49823171562500 
 C -2.45766696562500 -2.64797609062500 -2.64088771562500 
 C -1.18797496562500 -3.07280909062500 -2.04482971562500 
 N 9.500034374998023E-003 -7.08273809062500 -2.37278171562500 
 N -2.02690196562500 -5.97182909062500 -3.46445671562500 
 N -2.92679296562500 -6.51996009062500 0.251106284374999 
 N -0.129403965625003 -3.21432409062500 -2.90672271562500 
 N -2.40426496562500 -2.50327109062500 -3.97034371562500 
 N -2.99835796562500 -3.09698909062500 -0.157272715625001 
 S -0.545363965625003 -6.58713709062500 -3.86805671562500 
 S -3.55593396562500 -6.07520709062500 -1.19809371562500 
 S -1.37637596562500 -7.17284809062500 0.182622284374999 
 S -0.868165965625002 -2.89265409062500 -4.36923571562500 
 S -3.78505596562500 -2.47303209062500 -1.50024871562500 
 S -1.34488996562500 -3.29877309062500 -0.309126715625001 
