16

 C -2.59771205000000 -6.33166070937499 -2.26572880625000 
 C -1.37828805000000 -6.97885470937499 -1.72464880625000 
 C -2.34975905000000 -2.56552370937499 -2.43332780625000 
 C -1.20934605000000 -3.20756270937499 -1.88241680625000 
 N -0.435835050000001 -7.17015270937499 -2.64800880625000 
 N -2.54528405000000 -5.99150070937499 -3.55789280625000 
 N -3.11853005000000 -6.70226770937499 0.247271193750002 
 N -0.149679050000000 -3.39474770937499 -2.65007180625000 
 N -2.14143305000000 -2.29885370937499 -3.74613780625000 
 N -2.91465605000000 -2.96007270937499 1.616119375000169E-002
 S -1.08157505000000 -6.50412770937499 -4.07063080625000 
 S -3.90649605000000 -6.11228570937499 -1.11389280625000 
 S -1.54283305000000 -7.24974270937499 -2.477780624999815E-002
 S -0.646137050000000 -2.77379470937499 -4.20636980625000 
 S -3.69162105000000 -2.35895270937499 -1.34515180625000 
 S -1.27833905000000 -3.33768870937499 -0.156169806249998 
