16

 C -2.41420633125000 -6.54146956562500 -2.54902307500000 
 C -1.26381233125000 -7.11910556562500 -1.86585307500000 
 C -2.45296833125000 -2.86651156562499 -2.38641607500000 
 C -1.21195033125000 -3.20903456562499 -1.73531707500000 
 N -0.196916331249997 -7.43215756562499 -2.62781707500000 
 N -2.11306833125000 -6.30763556562500 -3.83897107500000 
 N -3.02096533125000 -6.73107556562499 -2.904075000001560E-003
 N -0.175655331249997 -3.39585556562499 -2.49090007500000 
 N -2.38661333125000 -2.75775756562499 -3.69671507500000 
 N -3.05549833125000 -3.00889056562499 5.832792499999839E-002
 S -0.643440331249997 -7.01376756562499 -4.18303107500000 
 S -3.68711133125000 -6.13281856562499 -1.43425807500000 
 S -1.47365633125000 -7.29797756562500 -0.140531075000002 
 S -0.859851331249997 -3.12505956562500 -4.13184707500000 
 S -3.77566633125000 -2.53689856562499 -1.37189707500000 
 S -1.40444233125000 -3.35854356562499 2.677092499999834E-002
