16

 C -2.50995794062499 -6.51560282500000 -2.51738204687500 
 C -1.38079894062499 -6.85683982500000 -1.69176104687500 
 C -2.48856894062499 -2.83110682500000 -2.38227104687500 
 C -1.24124994062499 -3.22616482500000 -1.72065504687500 
 N -0.306489940624994 -7.06909082500000 -2.44279404687500 
 N -2.34444894062499 -6.44123382500000 -3.84177004687500 
 N -3.26439994062499 -6.19310282500000 -9.741104687500068E-002
 N -0.127377940624994 -3.29680182500000 -2.46005404687500 
 N -2.31443194062499 -2.88612282500000 -3.69113904687500 
 N -3.01229394062499 -2.96788682500000 0.106040953124999 
 S -0.735386940624994 -6.87350682500000 -4.06853704687500 
 S -3.87330094062499 -5.94164782500000 -1.61842904687500 
 S -1.68632494062499 -6.69567182500000 -5.474804687500057E-002
 S -0.658556940624994 -3.17683682500000 -4.02818504687500 
 S -3.80797494062499 -2.55838982500000 -1.26730004687500 
 S -1.41812594062499 -3.51567082500000 -3.232104687500059E-002
