16

 C -2.60336277812500 -6.46387784375000 -2.52746410625000 
 C -1.44256677812500 -6.90272384375000 -1.79157310625000 
 C -2.42308177812500 -2.92479584375000 -2.37698110625000 
 C -1.19994577812500 -3.14050384375000 -1.67036210625000 
 N -0.321896778125002 -7.14745484375000 -2.50075110625000 
 N -2.36084377812500 -6.45873884375000 -3.81959710625000 
 N -3.23966477812500 -6.19956984375000 -7.295410624999965E-002
 N -0.152880778125001 -3.36418184375000 -2.43175210625000 
 N -2.31424977812500 -3.00055184375000 -3.70089210625000 
 N -3.00756477812500 -3.05429284375000 0.172467893750000 
 S -0.834955778125002 -6.91028784375000 -4.02215510625000 
 S -3.87234777812500 -5.85598384375000 -1.56606710625000 
 S -1.66690077812500 -6.69581084375000 -2.018410624999967E-002
 S -0.723647778125001 -3.16200184375000 -4.05461910625000 
 S -3.84651377812500 -2.69227084375000 -1.27991810625000 
 S -1.41674277812500 -3.48018084375000 -4.026106249999550E-003
