16

 C -2.61673207812500 -6.28781518750000 -2.54391760937500 
 C -1.37814307812500 -6.75648118750000 -1.89142060937500 
 C -2.74006107812500 -2.69303618750000 -2.50389860937500 
 C -1.54700307812500 -3.20248318750000 -1.92187660937500 
 N -0.304235078125004 -6.83637918750000 -2.69529860937500 
 N -2.44781507812500 -6.05326018750000 -3.85466660937500 
 N -3.20035107812500 -6.71879018750000 -1.828360937500051E-002
 N -0.489533078125004 -3.28580618750000 -2.71673860937500 
 N -2.58321207812500 -2.39010318750000 -3.80285560937500 
 N -3.34125507812500 -2.99360918750000 -5.242860937500016E-002
 S -0.897509078125005 -6.43790818750000 -4.21916660937500 
 S -3.97453507812500 -6.27479018750000 -1.47877960937500 
 S -1.56866607812500 -6.90127418750000 -0.127581609375000 
 S -1.07469507812500 -2.73907718750000 -4.23399960937500 
 S -4.05774707812500 -2.47982518750000 -1.43637160937500 
 S -1.72444407812500 -3.38842618750000 -0.203789609375000 
