16

 C -2.26251632500000 -6.35485179375001 -2.43393252187500 
 C -1.13666632500000 -6.85570679375001 -1.74462452187500 
 C -2.74995632500000 -2.53208079375001 -2.49485152187500 
 C -1.49471332500000 -2.84657379375001 -1.84600952187500 
 N -4.407432500000041E-002 -6.96359079375001 -2.47099652187500 
 N -2.03314632500000 -6.14992379375001 -3.70782352187500 
 N -2.97274832500000 -6.48894179375001 2.748478125002229E-003
 N -0.494030325000000 -2.86181979375001 -2.73309152187500 
 N -2.68513532500000 -2.30642079375001 -3.81506852187500 
 N -3.30265532500000 -2.90433279375001 -7.243521874997771E-003
 S -0.445775325000000 -6.61036679375001 -4.02224452187500 
 S -3.69343032500000 -6.17638479375001 -1.46164452187500 
 S -1.43320632500000 -7.06980279375001 -6.400152187499764E-002
 S -1.04622432500000 -2.51208179375001 -4.20192452187500 
 S -4.11984832500000 -2.46667879375001 -1.39354152187500 
 S -1.67155732500000 -2.94117579375001 -7.822052187499784E-002
