16

 C -2.51288241875000 -6.43574327187500 -2.49086551875000 
 C -1.22039541875000 -6.69448827187500 -1.92273551875000 
 C -2.63611541875000 -2.72880527187500 -2.30835551875000 
 C -1.45012141875000 -3.23963827187500 -1.72086451875000 
 N -0.233344418750003 -6.86781227187500 -2.77623451875000 
 N -2.48434141875000 -6.25317927187500 -3.80216751875000 
 N -2.87804341875000 -6.36862127187500 3.710648124999949E-002
 N -0.459359418750003 -3.60232727187500 -2.55616551875000 
 N -2.65108141875000 -2.69537127187500 -3.64297951875000 
 N -3.19838841875000 -2.99822527187500 0.176241481249999 
 S -0.872899418750003 -6.55436427187500 -4.28279951875000 
 S -3.77338441875000 -6.14193227187500 -1.33460151875000 
 S -1.26541841875000 -6.62950827187500 -0.212050518750000 
 S -1.09296941875000 -3.16511327187500 -4.08367151875000 
 S -4.05255441875000 -2.63054127187500 -1.20378351875000 
 S -1.58092641875000 -3.40770327187500 3.496148124999965E-002
