16

 C -2.30802614687500 -6.66243572812500 -2.35015697500000 
 C -1.09227714687500 -7.09723072812500 -1.68480697500000 
 C -2.87414314687500 -3.16979572812500 -2.15344397500000 
 C -1.67624114687500 -3.49938372812500 -1.51081697500000 
 N -6.238714687500035E-002 -7.33095772812500 -2.54542697500000 
 N -2.30079714687500 -6.61052972812500 -3.69078297500000 
 N -2.92386514687500 -6.94210172812500 0.180413025000001 
 N -0.615600146875000 -3.74165272812500 -2.28912697500000 
 N -2.76434914687500 -3.11748572812500 -3.48445297500000 
 N -3.49389314687500 -3.30292872812500 0.307951025000001 
 S -0.721364146875000 -6.98611472812500 -4.05114497500000 
 S -3.71539914687500 -6.48006272812500 -1.26335097500000 
 S -1.31109914687500 -7.19987772812500 1.245702500000112E-002
 S -1.14870614687500 -3.32376672812500 -3.79772797500000 
 S -4.23234414687500 -3.14773472812500 -1.16788897500000 
 S -1.87552814687500 -3.73480072812500 0.208507025000001 
