16

 C -2.22078626562500 -6.70935993125000 -2.23609887500000 
 C -0.884954265624999 -7.03669693125000 -1.71640587500000 
 C -2.51741226562500 -2.68633593125000 -2.29057087500000 
 C -1.34407326562500 -3.25982893125000 -1.73912887500000 
 N -1.560826562499873E-002 -7.04200593125000 -2.70065987500000 
 N -2.29980126562500 -6.42945693125000 -3.51476687500000 
 N -2.48992326562500 -6.99288193125000 0.279491124999999 
 N -0.360592265624999 -3.47389493125000 -2.60670387500000 
 N -2.45564126562500 -2.55193993125000 -3.60966487500000 
 N -3.00782126562500 -3.06719193125000 0.163543124999999 
 S -0.774173265624999 -6.63557193125000 -4.14353087500000 
 S -3.43307626562500 -6.48686593125000 -1.01093487500000 
 S -0.839984265624999 -7.27325093125000 4.355124999998683E-003
 S -0.895232265624998 -3.06745593125000 -4.09607487500000 
 S -3.77767626562500 -2.45706793125000 -1.18204187500000 
 S -1.43151926562500 -3.54803793125000 -1.275787500000125E-002
