16

 C -2.42728391874999 -6.62661108437499 -2.49241740312500 
 C -1.12191191874999 -6.99258908437499 -1.94641440312500 
 C -2.38921991874999 -2.96122008437499 -2.48689240312500 
 C -1.27233391874999 -3.51423208437499 -1.81937040312500 
 N -0.159600918749993 -7.04583408437499 -2.84663640312500 
 N -2.44604991874999 -6.33097508437499 -3.80034040312500 
 N -2.74889691874999 -7.23528408437499 6.801459687499811E-002
 N -0.258947918749993 -3.84251808437499 -2.63251140312500 
 N -2.20539791874999 -2.63586108437499 -3.75431240312500 
 N -3.17686991874999 -3.12020008437499 2.452459687499808E-002
 S -0.862398918749993 -6.63216308437499 -4.32906240312500 
 S -3.63473991874999 -6.72596908437499 -1.27605340312500 
 S -1.13322591874999 -7.34841208437499 -0.232019403125002 
 S -0.673671918749993 -3.27098008437499 -4.11587340312500 
 S -3.83836891874999 -2.68556908437499 -1.47090040312500 
 S -1.61496191874999 -3.69880508437499 -4.302140312500202E-002
