16

 C -2.24239226875000 -6.40748567500000 -2.36513207812500 
 C -0.954960268750000 -6.72152067500000 -1.79064307812500 
 C -2.52844826875000 -2.66700567500000 -2.31377007812500 
 C -1.32703226875000 -3.13128267500000 -1.70878307812500 
 N 5.636673125000069E-002 -6.89943167500000 -2.63826307812500 
 N -2.15385626875000 -6.22257967500000 -3.67998007812500 
 N -2.72115026875000 -6.84964667500000 0.105917921875001 
 N -0.271017268750000 -3.22763867500000 -2.53188407812500 
 N -2.49381226875000 -2.43729967500000 -3.63556207812500 
 N -3.07857026875000 -3.04722467500000 0.167737921875001 
 S -0.582443268750000 -6.51791767500000 -4.10273407812500 
 S -3.52640526875000 -6.29198467500000 -1.26545907812500 
 S -1.08046926875000 -6.99349867500000 -7.015207812499868E-002
 S -0.913844268749999 -2.82890067500000 -4.02481507812500 
 S -3.91499726875000 -2.53593867500000 -1.19508407812500 
 S -1.45664426875000 -3.25115067500000 9.645921875001351E-003
