16

 C -2.50597761875000 -6.50820290312500 -2.52412972187500 
 C -1.37187761875000 -6.84492590312500 -1.69788472187500 
 C -2.47772061875000 -2.83349690312500 -2.38591072187500 
 C -1.24118961875000 -3.23133790312500 -1.72809872187500 
 N -0.293158618749999 -7.06637590312500 -2.43850172187500 
 N -2.34215061875000 -6.44275390312500 -3.83891872187500 
 N -3.26056061875000 -6.20094890312500 -8.685572187500035E-002
 N -0.134831618749999 -3.29136290312500 -2.47108472187500 
 N -2.31544861875000 -2.85923890312500 -3.70034472187500 
 N -3.00975661875000 -2.95935090312500 0.101958278125000 
 S -0.720929618749999 -6.86775190312500 -4.07339672187500 
 S -3.87767861875000 -5.95296690312500 -1.62504972187500 
 S -1.69202061875000 -6.69622790312500 -5.292972187500045E-002
 S -0.656725618749999 -3.17821990312500 -4.01949072187500 
 S -3.79607561875000 -2.54402890312500 -1.26803972187500 
 S -1.42315861875000 -3.51567390312500 -3.156572187500051E-002
