16

 C -2.32382507812500 -6.37403639062500 -2.64145941875000 
 C -1.07378507812500 -6.72539939062500 -1.98186941875000 
 C -2.81125407812500 -2.71254839062500 -2.35626841875000 
 C -1.60240107812500 -3.07402639062500 -1.63052141875000 
 N -8.571307812499995E-002 -7.04061239062500 -2.80254541875000 
 N -2.20858207812500 -6.34822939062500 -3.95919841875000 
 N -2.77674307812500 -6.43089939062500 -7.747441875000072E-002
 N -0.517268078124999 -3.16319239062500 -2.41678841875000 
 N -2.67420707812500 -2.65956839062500 -3.68999541875000 
 N -3.41592907812500 -2.86131239062500 0.156111581249999 
 S -0.665910078125000 -6.81184139062500 -4.33846441875000 
 S -3.57449707812500 -6.06681939062500 -1.48241241875000 
 S -1.17635507812500 -6.86072539062500 -0.214860418750001 
 S -1.10307307812500 -3.02417039062500 -3.95554341875000 
 S -4.06284607812500 -2.31330039062500 -1.25673041875000 
 S -1.80453407812500 -3.11442339062500 6.882058124999935E-002
