16

 C -2.52893700625000 -6.27894695625000 -2.29614652500000 
 C -1.28308400625000 -6.55873295625000 -1.70287852500000 
 C -2.48155100625000 -2.51495595625000 -2.92214952500000 
 C -1.27192400625000 -2.84285795625000 -2.17146252500000 
 N -0.287211006249999 -6.74859495625000 -2.52834252500000 
 N -2.40493100625000 -6.04365295625000 -3.58553552500000 
 N -3.04955500625000 -6.82342295625000 0.147654475000000 
 N -0.205861006249998 -2.84120395625000 -2.97604452500000 
 N -2.31941000625000 -2.29373795625000 -4.23902152500000 
 N -3.12543100625000 -2.79704495625000 -0.422383524999999 
 S -0.843312006249999 -6.42921295625000 -4.08129952500000 
 S -3.86839100625000 -6.47314795625000 -1.27478852500000 
 S -1.37120400625000 -6.93260195625000 3.106847500000054E-002
 S -0.726185006249999 -2.58060595625000 -4.48691352500000 
 S -3.82287500625000 -2.45214895625000 -1.87893852500000 
 S -1.55107500625000 -3.10334195625000 -0.457784525000000 
