16

 C -2.56536418437500 -6.80958257187500 -2.35484637812500 
 C -1.27032718437500 -7.16668157187500 -1.73619637812500 
 C -2.32332218437500 -3.06100657187500 -2.35848937812500 
 C -1.11755918437500 -3.62180257187500 -1.78038537812500 
 N -0.275713184374998 -7.26908057187500 -2.63412037812500 
 N -2.56287018437500 -6.64757757187500 -3.67823337812500 
 N -2.93573818437500 -6.76549657187500 0.229498621875002 
 N -8.935918437499790E-002 -3.77635457187500 -2.60289737812500 
 N -2.28193718437500 -2.94843857187500 -3.64834737812500 
 N -2.72271918437500 -3.35792457187500 0.218280621875002 
 S -1.01642118437500 -7.00846757187500 -4.12523637812500 
 S -3.81158118437500 -6.41903857187500 -1.13682537812500 
 S -1.31856918437500 -7.17178657187500 -4.428378124998300E-003
 S -0.749165184374998 -3.33280257187500 -4.11928037812500 
 S -3.56681118437500 -2.81918457187500 -1.14439437812500 
 S -1.17513518437500 -3.88984957187500 -0.105483378124998 
