16

 C -2.57631374062500 -6.34110620312500 -2.51730044062500 
 C -1.41066774062500 -6.85387720312500 -1.90481044062500 
 C -2.71621574062500 -2.58009920312500 -2.48944244062500 
 C -1.56333374062500 -3.17603120312500 -1.80456244062500 
 N -0.365227740625003 -6.91708520312500 -2.71205444062500 
 N -2.43894274062500 -6.03094420312500 -3.79558544062500 
 N -3.22791874062500 -6.57194320312500 -6.845244062499978E-002
 N -0.469354740625003 -3.34364920312500 -2.51818044062500 
 N -2.44571474062500 -2.35323620312500 -3.77506844062500 
 N -3.41668974062500 -2.81069220312500 1.281655937500004E-002
 S -0.874477740625003 -6.49234920312500 -4.24224344062500 
 S -3.87984574062500 -6.01238220312500 -1.47946344062500 
 S -1.66862674062500 -7.23591520312500 -0.196032440625000 
 S -0.834231740625003 -2.86342620312500 -4.01741444062500 
 S -4.12975674062500 -2.45073720312500 -1.45880944062500 
 S -1.89552074062500 -3.44077420312500 -0.102341440625000 
