16

 C -2.49486681250000 -6.46888217500001 -2.57363722187500 
 C -1.24769581250000 -6.77735717500001 -1.85431322187500 
 C -2.39279281250000 -2.59950617500001 -2.45348922187500 
 C -1.19245981250000 -3.03232317500001 -1.79063722187500 
 N -0.149376812499996 -6.82110517500001 -2.59817822187500 
 N -2.30077081250000 -6.27105817500001 -3.88944422187500 
 N -3.07337481250000 -6.60456917500001 -5.986422187500207E-002
 N -0.132752812499997 -3.26985117500001 -2.57864822187500 
 N -2.27975881250000 -2.52035617500001 -3.79055922187500 
 N -3.03613581250000 -2.77756817500001 0.110512778124998 
 S -0.614134812499997 -6.49233117500001 -4.16734722187500 
 S -3.89577481250000 -6.32676817500001 -1.47583322187500 
 S -1.48307981250000 -7.02188617500001 -0.124538221875002 
 S -0.757796812499997 -2.98357217500001 -4.14833422187500 
 S -3.75162381250000 -2.27813317500001 -1.31135622187500 
 S -1.40483181250000 -3.16099517500001 -2.726522187500202E-002
