16

 C -2.48282296562500 -6.79692861562500 -2.21754081562500 
 C -1.17069396562500 -7.12800961562500 -1.65633981562500 
 C -2.60453996562500 -2.79594161562500 -2.38844381562500 
 C -1.29353596562500 -3.28126561562500 -1.80402581562500 
 N -0.192509965624998 -7.30532961562500 -2.52684081562500 
 N -2.47253896562500 -6.73128561562500 -3.55506381562500 
 N -2.81606896562500 -7.11672661562500 0.286904184374998 
 N -0.315702965624998 -3.40678561562500 -2.69305081562500 
 N -2.58784396562500 -2.58053661562500 -3.71420581562500 
 N -2.96605096562500 -2.97485161562500 0.102611184374998 
 S -0.928477965624998 -7.02918861562500 -3.99344481562500 
 S -3.71498096562500 -6.65602161562500 -1.01298281562500 
 S -1.17697196562500 -7.33932061562500 8.901218437499825E-002
 S -1.01021596562500 -2.91439961562500 -4.14205581562500 
 S -3.84472396562500 -2.52162561562500 -1.25436481562500 
 S -1.37067696562500 -3.44467561562500 -9.484781562500189E-002
