16

 C -2.49884702187501 -6.52256483437499 -2.30198213125000 
 C -1.20790602187501 -6.84195783437499 -1.73673013125000 
 C -2.29017902187501 -2.95561783437499 -2.26477013125000 
 C -1.08102502187501 -3.36970883437499 -1.70100413125000 
 N -0.216243021875006 -7.04876183437499 -2.61641513125000 
 N -2.42127302187501 -6.34753683437499 -3.62869113125000 
 N -2.91846502187501 -6.73168183437499 0.215028868750001 
 N -0.109700021875006 -3.48539983437499 -2.57299013125000 
 N -2.25974202187501 -2.69463183437499 -3.57233813125000 
 N -2.69570202187501 -3.41121583437499 0.252693868750001 
 S -0.870413021875006 -6.69716683437499 -4.07845813125000 
 S -3.79871102187501 -6.32931783437499 -1.20406813125000 
 S -1.29975702187501 -7.00382083437499 -2.659713124999863E-002
 S -0.676325021875006 -3.06621283437499 -4.05455813125000 
 S -3.61104802187501 -2.99734083437499 -1.07911413125000 
 S -1.09430302187501 -3.70438683437499 1.304486875000133E-002
