16

 C -2.37094908437500 -6.50114670000000 -2.51966144375000 
 C -1.13002108437500 -6.68896470000000 -1.81692744375000 
 C -2.60913008437500 -2.78796970000000 -2.51838844375000 
 C -1.40224608437500 -3.07632970000000 -1.78048344375000 
 N -2.223708437499994E-002 -6.93746270000000 -2.56597744375000 
 N -2.20124808437500 -6.44307670000000 -3.83588644375000 
 N -3.07261108437500 -6.46600870000000 -3.641944374999917E-002
 N -0.273802084374999 -3.01389070000000 -2.49710044375000 
 N -2.44955008437500 -2.60439670000000 -3.83589144375000 
 N -3.29303008437500 -3.04375770000000 2.957955625000075E-002
 S -0.560664084374999 -6.72004370000000 -4.14133544375000 
 S -3.74983208437500 -6.21097370000000 -1.51254144375000 
 S -1.44087208437500 -6.81850970000000 1.054355625000092E-002
 S -0.804037084375000 -2.82745370000000 -4.04968644375000 
 S -3.95850908437500 -2.52840270000000 -1.41991444375000 
 S -1.66761408437500 -3.28742770000000 -1.526044374999924E-002
