16

 C -2.57263233437500 -6.32987548437500 -2.49918388437500 
 C -1.39672633437500 -6.83115248437500 -1.90334888437500 
 C -2.70118133437500 -2.60083348437500 -2.49373388437500 
 C -1.54490733437500 -3.17102048437500 -1.78353488437500 
 N -0.347718334375002 -6.94446948437500 -2.72993388437500 
 N -2.42707933437500 -6.03458148437500 -3.79182288437500 
 N -3.21573833437500 -6.57471148437500 -6.804688437500017E-002
 N -0.461045334375002 -3.33933348437500 -2.46304188437500 
 N -2.43509433437500 -2.35972048437500 -3.77973088437500 
 N -3.42439833437500 -2.81757948437500 3.782115624999971E-003
 S -0.875699334375002 -6.49351048437500 -4.23552588437500 
 S -3.87246433437500 -6.00237348437500 -1.48042288437500 
 S -1.68749433437500 -7.25216948437500 -0.189344884375000 
 S -0.840094334375002 -2.86326848437500 -4.01928688437500 
 S -4.13128333437500 -2.42019848437500 -1.45796888437500 
 S -1.88790433437500 -3.43997848437500 -0.100418884375000 
