16

 C -2.43325297187500 -6.53192521562500 -2.31610309687500 
 C -1.25289497187500 -7.04245421562500 -1.72707209687500 
 C -2.38160897187499 -2.57230421562500 -2.38089109687500 
 C -1.32026897187500 -3.29257221562500 -1.75375509687500 
 N -0.179959971874995 -7.12508321562500 -2.47748609687500 
 N -2.22507397187499 -6.35794021562500 -3.62614809687500 
 N -2.87343097187499 -6.79685921562500 0.223242903125001 
 N -0.305865971874995 -3.48472221562500 -2.58778609687500 
 N -2.17128997187500 -2.19970221562500 -3.65637909687500 
 N -3.01435997187500 -2.94023921562500 0.155068903125001 
 S -0.642169971874995 -6.68670421562500 -4.01688709687500 
 S -3.70169597187499 -6.42252621562500 -1.22648409687500 
 S -1.33584897187500 -7.33107121562500 -1.547509687499926E-002
 S -0.747097971874995 -2.93946621562500 -4.05695609687500 
 S -3.67669697187500 -2.18012721562500 -1.21635909687500 
 S -1.45143797187500 -3.62075721562500 -5.104209687499917E-002
