16

 C -2.36931050937501 -6.54403007500001 -2.38227332500000 
 C -1.19522550937501 -7.14313207500001 -1.81600132500000 
 C -2.69647650937501 -2.76804807500001 -2.61494232500000 
 C -1.56482850937501 -3.35577407500001 -1.87247832500000 
 N -0.248467509375007 -7.36510807500001 -2.67611132500000 
 N -2.31494450937501 -6.29753107500001 -3.70785232500000 
 N -2.91193150937501 -6.97657707500001 0.155502674999998 
 N -0.434933509375007 -3.53681007500001 -2.58249532500000 
 N -2.39251550937501 -2.60366507500001 -3.90151432500000 
 N -3.42412750937501 -2.85867207500001 -6.272932500000183E-002
 S -0.786226509375007 -6.84585407500001 -4.18609332500000 
 S -3.67764550937501 -6.45065307500001 -1.20060932500000 
 S -1.40444650937501 -7.66111907500001 -0.181812325000002 
 S -0.895648509375008 -3.16660507500001 -4.18632632500000 
 S -4.12732750937501 -2.56029407500001 -1.58082532500000 
 S -1.85343050937501 -3.42797307500001 -8.270732500000166E-002
