16

 C -2.47079203125000 -6.21044413750000 -2.43429319375000 
 C -1.32102803125000 -6.74054913750000 -1.83112819375000 
 C -2.35233603125000 -2.97262813750000 -2.58072619375000 
 C -1.11268403125000 -3.23749313750000 -1.83433019375000 
 N -0.304236031249998 -6.97264213750000 -2.67948219375000 
 N -2.36979703125000 -6.05083613750000 -3.72549819375000 
 N -2.99721303125000 -6.29687713750000 3.908062499990983E-004
 N -0.103327031249997 -3.47553713750000 -2.63502919375000 
 N -2.26282603125000 -2.89112513750000 -3.90858019375000 
 N -2.87264203125000 -3.03215313750000 -4.169219375000077E-002
 S -0.837778031249998 -6.52296413750000 -4.17021719375000 
 S -3.78520603125000 -5.94444813750000 -1.38635019375000 
 S -1.33667103125000 -6.69488813750000 -6.238019375000081E-002
 S -0.620210031249998 -3.15429513750000 -4.22309419375000 
 S -3.73237403125000 -2.92517113750000 -1.48204119375000 
 S -1.26532503125000 -3.43726013750000 -0.103605193750001 
