16

 C -2.67761320312500 -6.63170764375000 -2.12178825312500 
 C -1.43783120312500 -7.32641364375000 -1.67824025312500 
 C -2.28903320312500 -2.79043264375000 -2.38456425312500 
 C -1.09197720312500 -3.36074964375000 -1.73347125312500 
 N -0.475322203124999 -7.53824264375000 -2.60745525312500 
 N -2.63578220312500 -6.39360264375000 -3.42450825312500 
 N -3.03280920312500 -7.05531564375000 0.270328746875001 
 N -0.120584203124999 -3.70593164375000 -2.59767525312500 
 N -2.21546620312500 -2.59848564375000 -3.72127425312500 
 N -2.84045520312500 -3.07915864375000 0.165896746875001 
 S -1.21860220312500 -6.98461264375000 -4.00181325312500 
 S -3.91353620312500 -6.42603364375000 -1.01116125312500 
 S -1.45404020312500 -7.48706964375000 8.119074687500083E-002
 S -0.669516203124998 -3.13405164375000 -4.04966925312500 
 S -3.56845920312500 -2.51999664375000 -1.23002625312500 
 S -1.19180920312500 -3.49854064375000 3.346974687500093E-002
