16

 C -2.43074315312501 -6.26209400937501 -2.30577653750000 
 C -1.29781315312501 -6.87671000937500 -1.66148253750000 
 C -2.37473315312501 -2.30724800937501 -2.50788053750000 
 C -1.20484015312501 -2.83680100937501 -1.86080153750000 
 N -0.252276153125005 -7.10405100937500 -2.43356953750000 
 N -2.25571315312501 -6.16029900937500 -3.60068053750000 
 N -3.13203715312501 -6.63211400937501 0.120616462499998 
 N -0.235368153125005 -3.10943200937500 -2.72084853750000 
 N -2.28965015312501 -2.15501200937500 -3.84575153750000 
 N -2.93544815312501 -2.40913900937500 -2.611537500001759E-003
 S -0.666675153125006 -6.56809700937501 -3.98844853750000 
 S -3.75630315312501 -5.95056700937501 -1.28202053750000 
 S -1.60590715312501 -7.22454000937500 2.016746249999812E-002
 S -0.720591153125006 -2.73490300937500 -4.17340253750000 
 S -3.64398915312501 -1.83967400937501 -1.40443353750000 
 S -1.40852715312501 -3.00932300937500 -0.146653537500002 
