16

 C -2.39803719374999 -6.42516484375000 -2.51878542500000 
 C -1.12999419374999 -6.60998984375000 -1.81748142500000 
 C -2.45680419374999 -2.09576784375000 -2.71730842500000 
 C -1.48690119374999 -2.88900484375000 -1.97839142500000 
 N -5.655719374999446E-002 -6.58988284375000 -2.60157142500000 
 N -2.26569119375000 -6.41371584375000 -3.86842242500000 
 N -2.96308519374999 -6.63095684375000 8.232575000000297E-003
 N -0.407244193749994 -3.24980584375000 -2.69349342500000 
 N -2.10309419374999 -1.88396184375000 -4.01649642500000 
 N -3.43924619374999 -2.61425384375000 -0.366481425000000 
 S -0.637455193749995 -6.60912584375000 -4.14370042500000 
 S -3.81721119375000 -6.37797284375000 -1.44176142500000 
 S -1.34825619374999 -6.76928884375000 -0.100420425000000 
 S -0.563217193749995 -2.50552784375000 -4.17700042500000 
 S -3.95420219374999 -1.88759984375000 -1.80128842500000 
 S -2.01020119375000 -3.44136584375000 -0.443420425000000 
