16

 C -2.58993730937499 -6.42899400312500 -2.51671702187500 
 C -1.30953230937499 -6.83428700312500 -2.03326602187500 
 C -2.69731530937499 -3.05502800312500 -2.34479402187500 
 C -1.53580930937499 -3.50763800312500 -1.62975502187500 
 N -0.422467309374993 -6.97019400312500 -3.02988402187500 
 N -2.71449030937499 -6.13537100312500 -3.82014802187500 
 N -2.90096830937499 -6.66372400312500 7.794978125000629E-003
 N -0.435180309374994 -3.76963800312500 -2.33888002187500 
 N -2.51223930937499 -2.94839000312500 -3.66152802187500 
 N -3.40522730937499 -3.10573700312500 0.116791978125001 
 S -1.25133730937499 -6.53636200312500 -4.40064302187500 
 S -3.76471330937499 -6.12459600312500 -1.29903902187500 
 S -1.29739430937499 -7.15994400312500 -0.403983021874999 
 S -0.879166309374994 -3.27280100312500 -3.90284002187500 
 S -4.11058330937499 -2.70219600312500 -1.35096302187500 
 S -1.71536330937499 -3.32859900312500 0.138727978125001 
