16

 C -2.68724295312500 -6.25598283437499 -2.31649367812500 
 C -1.54617495312500 -6.97181283437499 -1.87113167812500 
 C -2.46281495312500 -2.92023083437499 -2.30950067812500 
 C -1.28588995312500 -3.53034083437499 -1.62926667812500 
 N -0.557766953124996 -7.11074383437499 -2.76226967812500 
 N -2.62529795312500 -5.97906683437499 -3.62334567812500 
 N -3.13161195312500 -6.82333783437499 0.180883321875000 
 N -0.279315953124995 -3.75704183437499 -2.47495967812500 
 N -2.30518595312500 -2.70734683437499 -3.60418667812500 
 N -3.15314695312500 -3.21038283437499 8.582432187499967E-002
 S -1.14458895312500 -6.52728983437499 -4.16089667812500 
 S -3.86355195312500 -6.02955183437499 -1.06759467812500 
 S -1.57732495312500 -7.30739683437499 -0.138594678125000 
 S -0.742888953124996 -3.17286383437499 -3.94791567812500 
 S -3.75861295312500 -2.48242483437499 -1.23568967812500 
 S -1.62647695312500 -3.82625083437499 3.210632187499973E-002
