16

 C -2.30861619687501 -6.31918054062500 -2.49608130000000 
 C -1.08111719687501 -6.63327254062500 -1.85447030000000 
 C -2.54655919687501 -2.48991554062500 -2.69332230000000 
 C -1.47918019687501 -3.18887454062500 -1.95235030000000 
 N -1.024119687500757E-002 -6.87027654062500 -2.63936430000000 
 N -2.20294419687501 -6.26738454062500 -3.83604530000000 
 N -2.96065419687501 -6.63674154062500 -7.042229999999972E-002
 N -0.324021196875007 -3.23768654062500 -2.61661130000000 
 N -2.15550219687501 -2.08917054062500 -3.89169030000000 
 N -3.42750019687501 -2.68499554062500 -0.330621300000000 
 S -0.634664196875007 -6.62908054062500 -4.15137530000000 
 S -3.68367519687501 -6.38515254062500 -1.54157530000000 
 S -1.32188319687501 -6.74020654062500 -0.100061300000000 
 S -0.592252196875007 -2.58847354062500 -4.12780130000000 
 S -4.03050719687501 -2.03648054062500 -1.76807030000000 
 S -1.92945319687501 -3.40361454062500 -0.271488300000000 
