16

 C -2.34410072812500 -6.24837095937499 -2.20128900625000 
 C -1.20291172812500 -6.81198295937499 -1.49087400625000 
 C -2.34337272812500 -2.58433695937499 -2.14788000625000 
 C -1.13896872812500 -3.19191795937499 -1.58114700625000 
 N -0.177354728124997 -6.98916095937499 -2.31754300625000 
 N -2.12982172812500 -5.93289895937499 -3.49668700625000 
 N -2.96435572812500 -6.47549495937499 0.298143993750000 
 N -6.026772812499637E-002 -3.19965995937499 -2.40115600625000 
 N -2.18966472812500 -2.19424695937499 -3.39331300625000 
 N -3.02154672812500 -3.03418795937499 0.241912993750000 
 S -0.542091728124997 -6.33225595937499 -3.74301900625000 
 S -3.75407672812500 -6.12671595937499 -1.10710300625000 
 S -1.38530072812500 -7.17323295937499 0.133772993750000 
 S -0.617778728124997 -2.56241795937499 -3.81584800625000 
 S -3.69464972812500 -2.46521695937499 -1.18837000625000 
 S -1.40319772812500 -3.58197495937499 9.922799375000024E-002
