16

 C -2.60482076562500 -6.23913370937501 -2.53667409375000 
 C -1.45361476562500 -6.74998570937501 -1.83222409375000 
 C -2.15886876562500 -2.93122470937501 -2.23956009375000 
 C -0.946002765624996 -3.38770770937501 -1.73296109375000 
 N -0.394052765624997 -7.02506470937501 -2.59085109375000 
 N -2.38635176562500 -6.03498270937501 -3.83705609375000 
 N -3.33714676562500 -6.50315970937501 -3.848809374999873E-002
 N 3.666923437500369E-002 -3.38874870937501 -2.62652309375000 
 N -2.15046476562500 -2.71782170937501 -3.55084209375000 
 N -2.61127976562500 -3.46525470937501 0.187552906250001 
 S -0.867488765624996 -6.61176770937501 -4.13151209375000 
 S -3.97263576562500 -5.91278570937501 -1.42767309375000 
 S -1.76381876562500 -6.99127970937501 -0.153154093749999 
 S -0.591345765624996 -2.81420570937501 -4.02608209375000 
 S -3.48535976562500 -2.99169170937501 -1.11593109375000 
 S -1.01358676562500 -3.80007370937501 -5.640209374999894E-002
