16

 C -2.67982108750000 -6.51177889062500 -2.41673410937500 
 C -1.47353208750000 -6.85086489062500 -1.66838010937500 
 C -2.64578508750000 -2.34383389062500 -2.36239810937500 
 C -1.55464808750000 -2.98757389062500 -1.78077910937500 
 N -0.400816087499996 -6.96545289062500 -2.42482710937500 
 N -2.44554708750000 -6.32380189062500 -3.71678310937500 
 N -3.24462908750000 -6.67697989062500 0.108617890624999 
 N -0.541218087499995 -3.19750689062500 -2.58750710937500 
 N -2.55365208750000 -2.14429689062500 -3.66155010937500 
 N -3.31710608750000 -2.88137089062500 4.237389062499930E-002
 S -0.849302087499995 -6.58789989062500 -3.93521610937500 
 S -4.02879708750000 -6.60588589062500 -1.30595410937500 
 S -1.59660908750000 -7.04160889062500 4.684890624999438E-003
 S -1.00084208750000 -2.75000289062500 -4.05195810937500 
 S -3.94028308750000 -2.16600789062500 -1.31052810937500 
 S -1.68277908750000 -3.20710389062500 -8.052310937500051E-002
