16

 C -2.30227060000000 -6.67193620312501 -2.36184619375000 
 C -0.976841599999995 -6.94655520312500 -1.87988119375000 
 C -2.61228159999999 -2.81021120312501 -2.47312619375000 
 C -1.39116159999999 -3.31720320312500 -1.74425419375000 
 N -0.118122599999995 -6.93433020312500 -2.87385519375000 
 N -2.41999960000000 -6.51661220312501 -3.67333819375000 
 N -2.48781160000000 -6.97610120312500 0.173022806250000 
 N -0.332618599999996 -3.56992120312500 -2.52970019375000 
 N -2.35120560000000 -2.61661920312500 -3.78986719375000 
 N -3.18903760000000 -2.92266020312501 7.858280625000047E-002
 S -0.919316599999995 -6.72221620312501 -4.27663219375000 
 S -3.51163960000000 -6.79463020312500 -1.09971819375000 
 S -0.816230599999995 -7.13191720312501 -0.138087193750000 
 S -0.819485599999995 -3.08519720312500 -4.04090419375000 
 S -3.92916760000000 -2.49384920312500 -1.35752219375000 
 S -1.54891660000000 -3.43263320312500 5.928806250000473E-003
