16

 C -2.47281177812500 -6.52681605312500 -2.38994284062500 
 C -1.23423977812500 -7.00034605312500 -1.76736184062500 
 C -2.19261177812500 -2.57117605312500 -2.14900184062500 
 C -1.07039877812500 -3.33413505312500 -1.65028284062500 
 N -0.136034778125000 -7.11333205312500 -2.51361084062500 
 N -2.22527977812500 -6.28699205312500 -3.67968484062500 
 N -2.99565477812500 -6.60689905312500 0.148015159374999 
 N -0.112639778125001 -3.48017605312500 -2.56297984062500 
 N -1.95972677812500 -1.90152105312500 -3.28072884062500 
 N -2.83615877812500 -3.28744105312500 0.252995159375000 
 S -0.643429778125000 -6.71230405312500 -4.04894884062500 
 S -3.77482777812500 -6.32346905312500 -1.27597084062500 
 S -1.37968577812500 -7.03856605312500 6.942159374999424E-003
 S -0.596034778125000 -2.49762705312500 -3.90261484062500 
 S -3.56248477812500 -2.57039605312500 -1.05115784062500 
 S -1.27997877812500 -3.72348705312500 -1.145384062500043E-002
