16

 C -2.40805895625000 -6.19661691875000 -2.40733286250000 
 C -1.28156395625000 -6.72638991875000 -1.73705286250000 
 C -2.38105395625000 -2.26782891875000 -2.35201786250000 
 C -1.20114695625000 -2.88100991875000 -1.83281386250000 
 N -0.177386956249998 -6.93399791875000 -2.47651086250000 
 N -2.19643195625000 -6.17452991875000 -3.74014886250000 
 N -3.11275095625000 -6.38222191875000 3.122813750000075E-002
 N -0.262177956249998 -3.16404291875000 -2.74569086250000 
 N -2.31693595625000 -1.99603591875000 -3.64714586250000 
 N -2.96510395625000 -2.85702991875000 8.333813750000085E-002
 S -0.697979956249998 -6.74878991875000 -4.07908786250000 
 S -3.76917895625000 -5.93577091875000 -1.41042286250000 
 S -1.50445995625000 -6.87903191875000 -4.153686249999922E-002
 S -0.817524956249998 -2.50349691875000 -4.17970786250000 
 S -3.76649595625000 -2.26626991875000 -1.23744786250000 
 S -1.39548795625000 -3.24098391875000 -0.173241862499999 
