16

 C -2.65075834687500 -6.47228234375000 -2.40239135312500 
 C -1.46282934687500 -6.76161234375000 -1.71940135312500 
 C -2.64005934687500 -2.37382834375000 -2.39253435312500 
 C -1.47396134687500 -2.98588034375000 -1.76534135312500 
 N -0.356380346875000 -6.90619334375000 -2.42922635312500 
 N -2.45263834687500 -6.25039734375000 -3.71033735312500 
 N -3.23989434687500 -6.65328034375000 7.831564687499770E-002
 N -0.510362346875000 -3.27187834375000 -2.61791035312500 
 N -2.52191434687500 -2.17021634375000 -3.70245835312500 
 N -3.23223034687500 -2.82304234375000 7.243164687499770E-002
 S -0.819496346875000 -6.57239734375000 -3.97065535312500 
 S -4.01628334687500 -6.61521934375000 -1.34499235312500 
 S -1.64352534687500 -6.99189234375000 -4.271135312500229E-002
 S -1.00547334687500 -2.71983234375000 -4.11643335312500 
 S -3.93789134687500 -2.19910934375000 -1.29439535312500 
 S -1.62557634687500 -3.18232234375000 -9.424835312500246E-002
