16

 C -2.47951359374999 -6.67583998750001 -2.29393799375000 
 C -1.20505459374999 -6.93163998750001 -1.64099699375000 
 C -2.35727759374999 -2.60754698750001 -2.52477999375000 
 C -1.11903059374999 -3.17880198750001 -2.02588899375000 
 N -0.107266593749994 -6.87073698750001 -2.40226799375000 
 N -2.31626259374999 -6.45241498750001 -3.60391599375000 
 N -2.90282659374999 -6.79336898750001 0.300664006250001 
 N -0.153951593749993 -3.32140598750001 -2.93390799375000 
 N -2.41749859374999 -2.45632198750001 -3.86104299375000 
 N -2.57797459374999 -2.93607098750001 2.280800625000112E-002
 S -0.717772593749994 -6.58400098750000 -3.88077999375000 
 S -3.73155059374999 -6.61546698750000 -1.18949099375000 
 S -1.28010459374999 -7.08212398750001 6.400500625000105E-002
 S -0.911157593749993 -2.96065898750001 -4.34200599375000 
 S -3.52033459374999 -2.42615198750001 -1.26922699375000 
 S -1.09556359374999 -3.48581698750001 -0.355694993749999 
