16

 C -2.60439216562499 -6.15153525937500 -2.69651766875000 
 C -1.35969016562499 -6.54640525937500 -2.04411166875000 
 C -2.41495216562499 -2.71973325937500 -2.51529866875000 
 C -1.17923616562499 -2.96177725937500 -1.85658366875000 
 N -0.298605165624993 -6.66720925937500 -2.84356566875000 
 N -2.43229316562499 -5.98071925937500 -4.02494666875000 
 N -3.21487716562499 -6.69837025937500 -0.248076668750000 
 N -0.158313165624993 -3.22337425937500 -2.69247166875000 
 N -2.38004816562499 -2.65043825937500 -3.84731366875000 
 N -3.00580116562499 -2.81857225937500 -4.305766875000083E-002
 S -0.856400165624993 -6.41982225937500 -4.34842566875000 
 S -3.95327716562499 -6.18755425937500 -1.67481766875000 
 S -1.52832416562499 -6.94793625937500 -0.324294668750001 
 S -0.785433165624993 -2.96258225937500 -4.18421066875000 
 S -3.84252216562499 -2.71885725937500 -1.41528366875000 
 S -1.37932416562499 -3.16642625937500 -0.140407668750000 
