16

 C -2.39785276562500 -6.42610438125000 -2.41515271875000 
 C -1.14053076562500 -6.83285238125000 -1.81554871875000 
 C -2.56667076562500 -2.77392838125000 -2.40015271875000 
 C -1.48925476562500 -3.31868238125000 -1.69736271875000 
 N -9.654176562500005E-002 -6.92498338125000 -2.64745471875000 
 N -2.23667676562500 -6.18269438125000 -3.71855571875000 
 N -2.92693976562500 -6.61099938125000 6.880228124999821E-002
 N -0.447992765625000 -3.55092138125000 -2.46884571875000 
 N -2.33088676562500 -2.48359538125000 -3.67426271875000 
 N -3.37474776562500 -2.96911438125000 1.915828124999819E-002
 S -0.678614765625000 -6.48672538125000 -4.15934571875000 
 S -3.78115976562500 -6.43395538125000 -1.34765171875000 
 S -1.31928076562500 -6.97436238125000 -3.638771875000191E-002
 S -0.764782765625000 -2.99514938125000 -4.02605971875000 
 S -3.96166776562500 -2.61179638125000 -1.47083471875000 
 S -1.78026176562500 -3.50930338125000 1.175128124999802E-002
