16

 C -2.51580643750000 -6.24741545625000 -2.44344176875000 
 C -1.33430843750000 -6.76179045625000 -1.76995476875000 
 C -2.46116643750000 -2.38736745625000 -2.36617876875000 
 C -1.29340243750000 -2.97830645625000 -1.73906276875000 
 N -0.277278437499996 -6.93430845625000 -2.58534676875000 
 N -2.32389443750000 -6.20557145625000 -3.78282376875000 
 N -3.12606943750000 -6.50700845625000 5.970123124999849E-002
 N -0.278741437499995 -3.13026545625000 -2.56965476875000 
 N -2.34126843750000 -2.15801545625000 -3.64296776875000 
 N -3.04677043750000 -2.88529945625000 6.705323124999851E-002
 S -0.748076437499996 -6.53479445625000 -4.15188776875000 
 S -3.78826643750000 -5.94769245625000 -1.34811876875000 
 S -1.45332343750000 -6.92105745625000 -4.879476875000144E-002
 S -0.821534437499996 -2.69122545625000 -4.07766376875000 
 S -3.69098143750000 -2.03369045625000 -1.22784976875000 
 S -1.43517643750000 -3.21033645625000 -1.553676875000143E-002
