16

 C -2.52031593125000 -6.25820374374999 -2.48289238125000 
 C -1.34114493125000 -6.68327074375000 -1.81785738125000 
 C -2.44648693125000 -2.35818074374999 -2.33981038125000 
 C -1.30875193125000 -2.97052474375000 -1.72555638125000 
 N -0.292938931250002 -6.95543974375000 -2.54167038125000 
 N -2.31765693125000 -6.23228474374999 -3.76526038125000 
 N -3.09246993125000 -6.54880974375000 4.939261875000067E-002
 N -0.321146931250002 -3.08555174374999 -2.58644038125000 
 N -2.31227793125000 -2.08218474374999 -3.62874938125000 
 N -3.04929793125000 -2.90523074375000 4.956561875000065E-002
 S -0.726748931250002 -6.57139374375000 -4.10669138125000 
 S -3.80462093125000 -5.91547174375000 -1.35998638125000 
 S -1.45362793125000 -6.90174774375000 -6.656838124999931E-002
 S -0.808843931250002 -2.67134174374999 -4.10842938125000 
 S -3.69642493125000 -2.07737074375000 -1.23962738125000 
 S -1.39159093125000 -3.21000974375000 -3.169838124999935E-002
