16

 C -2.46592910937499 -6.79838414062500 -2.21737320937500 
 C -1.18049710937499 -7.12868014062500 -1.66120320937500 
 C -2.60761810937499 -2.76720014062500 -2.38747320937500 
 C -1.32301810937499 -3.30869414062500 -1.82176820937500 
 N -0.202493109374993 -7.30802714062500 -2.53441420937500 
 N -2.49070910937499 -6.72842814062500 -3.53516320937500 
 N -2.81706310937499 -7.12262514062500 0.268812790625001 
 N -0.362466109374993 -3.40117514062500 -2.71386020937500 
 N -2.59829310937499 -2.56282814062500 -3.69909120937500 
 N -2.99135510937499 -3.00481914062500 7.300179062500090E-002
 S -0.927829109374994 -7.05220014062500 -4.02176520937500 
 S -3.74928510937499 -6.65839214062500 -0.998706209374999 
 S -1.14745410937499 -7.33513814062500 6.310079062500074E-002
 S -0.994834109374994 -2.92173314062500 -4.13518120937500 
 S -3.86162710937499 -2.53018214062500 -1.25076020937500 
 S -1.37110410937499 -3.44884114062500 -8.318020937499915E-002
