16

 C -2.14043474687501 -6.43464035000000 -2.52450680937500 
 C -1.03031274687501 -7.03762635000000 -1.84797980937500 
 C -2.65624874687501 -2.35511634999999 -2.42946780937500 
 C -1.56607374687501 -3.04006834999999 -1.77921780937500 
 N -1.490774687500540E-002 -7.24881735000000 -2.66092980937500 
 N -2.02860774687501 -6.27363434999999 -3.82087180937500 
 N -2.78663474687501 -6.53808235000000 -3.080680937499891E-002
 N -0.508379746875006 -3.37061935000000 -2.55287980937500 
 N -2.46116774687501 -2.17068534999999 -3.75864480937500 
 N -3.28255074687501 -2.49226135000000 8.495219062500103E-002
 S -0.520486746875005 -6.86430135000000 -4.19765780937500 
 S -3.49573074687501 -6.11729835000000 -1.47640780937500 
 S -1.31901074687501 -7.33806835000000 -0.166184809374999 
 S -0.984904746875006 -2.81134535000000 -4.05252080937500 
 S -3.88348674687501 -1.90024835000000 -1.30911880937500 
 S -1.74801974687501 -3.16394235000000 -6.386680937499878E-002
