16

 C -2.36316702812499 -6.52073241875000 -2.23614138750000 
 C -1.10067002812499 -6.95551841875000 -1.67660538750000 
 C -2.33723102812499 -2.58556341875000 -2.48928138750000 
 C -1.11910102812499 -3.23782641875000 -2.04674538750000 
 N -0.103011028124994 -7.14931341875000 -2.54357138750000 
 N -2.23750502812499 -6.29258041875000 -3.54283038750000 
 N -2.83610202812499 -6.66062741875000 0.296734612500001 
 N -0.229009028124994 -3.38180641875000 -2.99812738750000 
 N -2.38490502812499 -2.33279641875000 -3.80085938750000 
 N -2.67876802812499 -3.11642841875000 9.541361250000113E-002
 S -0.728915028124995 -6.66278241875000 -4.02525338750000 
 S -3.72555502812499 -6.53811841875000 -1.12785838750000 
 S -1.26046402812499 -7.14214041875000 0.124293612500001 
 S -0.855827028124994 -2.82993741875000 -4.42714338750000 
 S -3.57702202812499 -2.40034441875000 -1.21453738750000 
 S -1.09374702812499 -3.49672241875000 -0.283496387499999 
