16

 C -2.51083971562500 -6.70111380937500 -2.36339261250000 
 C -1.39926571562500 -7.29264280937500 -1.65716761250000 
 C -2.50404771562500 -2.46746380937500 -2.46627461250000 
 C -1.32302171562500 -3.04157480937500 -1.79550661250000 
 N -0.390123715624997 -7.58051980937500 -2.45354461250000 
 N -2.33822371562500 -6.64173280937500 -3.69023361250000 
 N -3.07356671562500 -6.54698780937500 7.806738750000153E-002
 N -0.322796715624997 -3.31793280937500 -2.61841761250000 
 N -2.37222271562500 -2.26927980937500 -3.76822961250000 
 N -3.17962071562500 -3.04125580937500 -1.286261249999843E-002
 S -0.782970715624997 -7.11639980937500 -4.00861161250000 
 S -3.81119371562500 -6.13506880937500 -1.30361961250000 
 S -1.53092971562500 -7.22916080937500 7.637038750000169E-002
 S -0.862912715624997 -2.92699580937500 -4.14705661250000 
 S -3.82514071562500 -2.22564780937500 -1.33293061250000 
 S -1.57184671562500 -3.36783080937500 -3.847261249999834E-002
