16

 C -2.55492815312500 -6.54024490000000 -2.12223155625000 
 C -1.37562015312500 -7.21158390000000 -1.60521655625000 
 C -2.41040515312500 -2.72567490000000 -2.44886655625000 
 C -1.19260215312500 -3.31518390000000 -1.81184955625000 
 N -0.478135153124997 -7.42288190000000 -2.57648055625000 
 N -2.60205915312500 -6.30569990000000 -3.44410655625000 
 N -2.82097015312500 -6.88040390000000 0.416800443750001 
 N -0.180993153124997 -3.58072490000000 -2.64263155625000 
 N -2.23897515312500 -2.50766390000000 -3.77174655625000 
 N -2.92985615312500 -2.89493690000000 0.114515443750001 
 S -1.10319115312500 -6.83440390000000 -3.99027255625000 
 S -3.77897015312500 -6.48083790000000 -0.828638556249999 
 S -1.36217215312500 -7.59424990000000 4.671644375000072E-002
 S -0.767934153124997 -3.18276890000000 -4.15612555625000 
 S -3.70689815312500 -2.43163890000000 -1.28568755625000 
 S -1.36016715312500 -3.54029290000000 -6.808055624999931E-002
