16

 C -2.39993852187501 -6.50314611562500 -2.58357089687500 
 C -1.18128752187501 -6.97000411562500 -1.92632689687500 
 C -2.63661152187501 -2.50728311562500 -2.31503589687500 
 C -1.52639752187501 -3.20819711562500 -1.65983089687500 
 N -0.181468521875006 -7.10064311562500 -2.78530289687500 
 N -2.29248452187501 -6.26424011562500 -3.89238489687500 
 N -2.98112352187501 -6.84294411562500 -3.617389687500094E-002
 N -0.482548521875007 -3.49888711562500 -2.46795789687500 
 N -2.44053452187501 -2.41650311562500 -3.63800389687500 
 N -3.33071552187501 -2.89258511562500 0.133554103124999 
 S -0.683964521875007 -6.61447811562500 -4.27655789687500 
 S -3.71573452187501 -6.37891011562500 -1.48833689687500 
 S -1.33499852187501 -7.13801611562500 -0.233083896875001 
 S -0.971821521875007 -2.95294411562500 -3.98838789687500 
 S -3.97146252187501 -2.22026411562500 -1.21883489687500 
 S -1.78201252187501 -3.30201511562500 4.026710312499904E-002
