16

 C -2.36433121875000 -6.25823446875000 -2.40761495625000 
 C -1.29253521875000 -6.96363546874999 -1.70869595625000 
 C -2.47346121875000 -2.32800046874999 -2.44435995625000 
 C -1.36369521875000 -2.92354546875000 -1.80142295625000 
 N -0.247438218749998 -7.15497846875000 -2.47058895625000 
 N -2.13429321875000 -5.91639846874999 -3.66153995625000 
 N -3.15404521875000 -6.55060446875000 2.619204375000228E-002
 N -0.407585218749999 -3.34018646874999 -2.61300495625000 
 N -2.27201021875000 -2.11788846875000 -3.77423695625000 
 N -3.07632121875000 -2.37135046874999 3.067104375000218E-002
 S -0.638522218749999 -6.56099146874999 -4.02268995625000 
 S -3.75495821875000 -5.98031646874999 -1.38443895625000 
 S -1.60497021875000 -7.23441446874999 -1.146695624999783E-002
 S -0.789659218749999 -2.81676946875000 -4.09845595625000 
 S -3.80376921875000 -2.05554446874999 -1.43353195625000 
 S -1.57914521875000 -3.03740546874999 -7.190795624999780E-002
