16

 C -2.58217891562500 -6.18755981250000 -2.45823576875000 
 C -1.28239391562500 -6.56443281250000 -1.85157476875000 
 C -2.38239991562500 -2.94922781250000 -2.55997476875000 
 C -1.18802791562500 -3.24887481250000 -1.78900076875000 
 N -0.274514915624996 -6.73613481250000 -2.73657176875000 
 N -2.51637591562500 -6.10709081250000 -3.80056376875000 
 N -2.93469091562500 -6.43579781250000 6.446523125000114E-002
 N -0.179247915624996 -3.55387181250000 -2.63021876875000 
 N -2.27309491562500 -3.06101181250000 -3.91234176875000 
 N -3.09438491562500 -2.82512181250000 -4.362976874999891E-002
 S -0.982444915624995 -6.47419581250000 -4.20089076875000 
 S -3.80015591562500 -5.93268881250000 -1.34790076875000 
 S -1.33703391562500 -6.82940981250000 -0.131993768749999 
 S -0.683608915624996 -3.34821581250000 -4.18091676875000 
 S -3.76697691562500 -2.77535881250000 -1.55941776875000 
 S -1.41188791562500 -3.17536181250000 -5.269276874999895E-002
