16

 C -2.35422026874999 -6.64820244062499 -2.46805794062500 
 C -1.12046626874999 -6.92191544062499 -1.82075894062500 
 C -2.41407326874999 -2.70191844062499 -2.47053894062500 
 C -1.28254726874999 -3.12045544062499 -1.68561694062500 
 N -6.357726874999337E-002 -6.81686944062499 -2.62906694062500 
 N -2.27733026874999 -6.40980344062499 -3.78480194062500 
 N -2.98331826874999 -7.05660244062499 6.071705937500083E-002
 N -0.119239268749993 -3.23480744062499 -2.36032994062500 
 N -2.19782626874999 -2.71153844062499 -3.79750194062500 
 N -3.19873726874999 -2.65527144062499 2.291705937500077E-002
 S -0.666142268749994 -6.52021344062499 -4.14058294062500 
 S -3.78516326874999 -6.55245244062499 -1.32057594062500 
 S -1.30394926874999 -7.29958844062499 -0.127816940624999 
 S -0.587178268749994 -3.05394844062499 -3.99824694062500 
 S -3.83869526874999 -2.36673444062499 -1.43220494062500 
 S -1.60866126874999 -3.20344444062499 0.112402059375001 
