16

 C -2.55375829687501 -6.30880719687500 -2.26137198125000 
 C -1.37782129687501 -6.84161819687500 -1.60264998125000 
 C -2.51530429687501 -3.09729619687500 -2.31352898125000 
 C -1.23329529687501 -3.29503319687500 -1.69068798125000 
 N -0.388080296875009 -7.04920819687500 -2.46847498125000 
 N -2.48960529687501 -6.17434119687500 -3.60326298125000 
 N -3.04233729687501 -6.58945519687500 0.304388018750001 
 N -0.210064296875008 -3.44308119687500 -2.53063898125000 
 N -2.45298329687501 -3.05817719687500 -3.63653498125000 
 N -3.02417529687501 -3.16786719687500 0.142134018750001 
 S -0.917166296875008 -6.62389319687500 -3.99533698125000 
 S -3.84012429687501 -6.15368019687500 -1.09447398125000 
 S -1.52932429687501 -7.10058919687500 0.104718018750001 
 S -0.894025296875008 -3.18291819687500 -4.03762698125000 
 S -3.87063429687501 -2.89520419687500 -1.28257598125000 
 S -1.36159529687501 -3.38635219687500 4.780601875000068E-002
