16

 C -2.49653579375000 -6.56000915312500 -2.40809737812500 
 C -1.24985379375000 -6.71334615312500 -1.74123537812500 
 C -2.48065779375000 -2.23534715312500 -2.84122237812500 
 C -1.38710279375000 -2.87449315312500 -2.10721937812500 
 N -0.223413793749999 -6.68269915312500 -2.55152337812500 
 N -2.42936379375000 -6.27814115312500 -3.69762037812500 
 N -3.06274179375000 -6.49419315312500 7.604362187499913E-002
 N -0.324016793749999 -3.14085415312500 -2.87763137812500 
 N -2.20624479375000 -2.03147515312500 -4.13244437812500 
 N -3.32674479375000 -2.73586515312500 -0.485105378125001 
 S -0.800066793749999 -6.39987315312500 -4.09382537812500 
 S -3.86172379375000 -6.48094015312500 -1.32707037812500 
 S -1.38019479375000 -6.85494815312500 -3.658837812500093E-002
 S -0.604509793749999 -2.47712615312500 -4.34911237812500 
 S -3.94766379375000 -2.05204215312500 -1.88948937812500 
 S -1.75096779375000 -3.20144615312500 -0.422735378125001 
