16

 C -2.49743332500000 -6.70038206874999 -2.38199298125000 
 C -1.43470632500000 -7.29185406874999 -1.64349798125000 
 C -2.50708832500000 -2.50023606874999 -2.41925798125000 
 C -1.37496432500000 -3.08573106874999 -1.80809698125000 
 N -0.446996324999997 -7.58551106874999 -2.45111198125000 
 N -2.35769632500000 -6.64355506874999 -3.67935098125000 
 N -3.07449532500000 -6.56853806874999 7.834601874999958E-002
 N -0.345363324999997 -3.34142206874999 -2.60951298125000 
 N -2.34541232500000 -2.25453006874999 -3.72410698125000 
 N -3.19139732500000 -2.99730506874999 -1.617981250000344E-003
 S -0.766911324999997 -7.08609706874999 -4.00960598125000 
 S -3.82638532500000 -6.11796106874999 -1.30632798125000 
 S -1.50906532500000 -7.22836706874999 3.888101874999972E-002
 S -0.875386324999997 -2.97658406874999 -4.14715998125000 
 S -3.83373232500000 -2.25713506874999 -1.33108698125000 
 S -1.58860832500000 -3.35366606874999 -6.225498125000040E-002
