16

 C -2.60121529062500 -6.32103222812500 -2.47202510000000 
 C -1.33290629062500 -6.61769322812500 -1.82300510000000 
 C -2.64531129062500 -2.99773222812500 -2.34661310000000 
 C -1.33544129062500 -3.36645522812500 -1.69083710000000 
 N -0.368744290624998 -6.78684722812500 -2.70988610000000 
 N -2.58683429062500 -6.21299822812500 -3.79709810000000 
 N -3.09292229062500 -6.50180122812500 6.409990000000287E-002
 N -0.280669290624998 -3.45863222812500 -2.50563110000000 
 N -2.54350129062500 -2.81444122812500 -3.65895310000000 
 N -3.09061229062500 -3.03842522812500 0.194304900000003 
 S -0.975521290624998 -6.55173622812500 -4.25376410000000 
 S -3.93711629062500 -6.17682122812500 -1.34845110000000 
 S -1.44316529062500 -6.76945622812500 -0.106535099999997 
 S -0.948724290624998 -3.14827722812500 -4.03679410000000 
 S -3.87282229062500 -2.64258222812500 -1.19859210000000 
 S -1.49225429062500 -3.46581022812500 5.042490000000277E-002
