16

 C -2.36200151875000 -6.46447771875000 -2.55947623125000 
 C -1.17638351875000 -6.79234871875000 -1.76275523125000 
 C -2.63254851875000 -2.84682871875000 -2.43223523125000 
 C -1.43104751875000 -3.15901171875000 -1.70317823125000 
 N -0.126231518749997 -6.91777271875000 -2.53829523125000 
 N -2.20588651875000 -6.44026171875000 -3.89252723125000 
 N -3.02338451875000 -6.51389971875000 -1.653223125000003E-002
 N -0.345713518749998 -3.09735771875000 -2.45095323125000 
 N -2.41492351875000 -2.61694771875000 -3.72476123125000 
 N -3.34742751875000 -3.09955771875000 -2.891623124999998E-002
 S -0.561859518749998 -6.63164971875000 -4.09646223125000 
 S -3.75028451875000 -6.25505971875000 -1.47790023125000 
 S -1.39917051875000 -6.80583171875000 -7.157023124999995E-002
 S -0.781403518749998 -2.85288171875000 -4.04269223125000 
 S -3.97204451875000 -2.48094271875000 -1.42307423125000 
 S -1.67005851875000 -3.33049471875000 -3.647423124999993E-002
