16

 C -2.49542487500000 -6.27018959062501 -2.49377717187500 
 C -1.36853187500000 -6.84584659062501 -1.84657117187500 
 C -2.42699687500000 -2.46911959062501 -2.52285417187500 
 C -1.26354187500000 -2.96658959062501 -1.85797917187500 
 N -0.354396874999996 -7.06794959062501 -2.67147517187500 
 N -2.40710387500000 -6.10162959062501 -3.81933017187500 
 N -3.08743787500000 -6.36274159062501 6.996828124999022E-003
 N -0.243284874999995 -3.32837959062501 -2.67417717187500 
 N -2.27051587500000 -2.32114059062501 -3.85976717187500 
 N -3.06944487500000 -2.61046559062501 -5.638171875000930E-003
 S -0.896794874999996 -6.72525759062501 -4.21358717187500 
 S -3.83668287500000 -5.92356959062501 -1.40397117187500 
 S -1.59612087500000 -7.05990259062501 -0.147032171875001 
 S -0.739298874999996 -2.94861259062501 -4.15855017187500 
 S -3.72995887500000 -2.11105659062501 -1.41407717187500 
 S -1.47336887500000 -2.95760159062501 -7.663417187500099E-002
