16

 C -2.21200268750000 -6.39541886562500 -2.18009647812500 
 C -1.05368968750000 -6.98180986562500 -1.55148847812500 
 C -2.42798968750000 -2.69988986562500 -2.29538947812500 
 C -1.20538068750000 -3.28395686562500 -1.73471747812500 
 N -2.852068749999770E-002 -7.23166086562500 -2.34854947812500 
 N -2.11007168750000 -6.17500286562500 -3.49159147812500 
 N -2.76798568750000 -6.79932486562500 0.319436521874999 
 N -0.221908687499997 -3.49656686562500 -2.60565147812500 
 N -2.29489968750000 -2.28664486562500 -3.55369747812500 
 N -2.93468768750000 -3.15685986562500 0.208525521874999 
 S -0.570913687499997 -6.78957186562500 -3.86627347812500 
 S -3.63692568750000 -6.40841886562500 -1.08906047812500 
 S -1.17581368750000 -7.27217286562500 0.148876521874999 
 S -0.790128687499998 -2.78781286562500 -4.04285647812500 
 S -3.70447768750000 -2.58482786562500 -1.18440747812500 
 S -1.34238468750000 -3.60866686562500 -2.404781250013865E-004
