16

 C -2.50889275312500 -6.23624013750000 -2.48699779687500 
 C -1.38488475312500 -6.88250413750000 -1.90096979687500 
 C -2.49247375312500 -2.62762213750000 -2.20393179687500 
 C -1.31074875312500 -3.31803813750000 -1.61017579687500 
 N -0.379858753124998 -7.11207313750000 -2.73720479687500 
 N -2.38085375312500 -6.04052313750000 -3.81000479687500 
 N -3.08371075312500 -6.64802413750000 5.635120312500064E-002
 N -0.403111753124998 -3.64744913750000 -2.53884979687500 
 N -2.35991475312500 -2.28977513750000 -3.50292579687500 
 N -2.93847475312500 -2.74977013750000 0.352807203125001 
 S -0.887812753124998 -6.69267913750000 -4.23791979687500 
 S -3.78720175312500 -5.98602413750000 -1.29009779687500 
 S -1.56230275312500 -7.25640913750000 -0.176860796874999 
 S -0.893157753124998 -2.94767913750000 -3.94601379687500 
 S -3.74190175312500 -2.37106513750000 -1.05934379687500 
 S -1.45832075312500 -3.51829213750000 0.108575203125001 
