16

 C -2.38101464375000 -6.51331140937500 -2.46061398125000 
 C -1.17487464375000 -6.86723640937500 -1.75129298125000 
 C -2.54292064375000 -3.22695740937500 -2.33233098125000 
 C -1.28915664375000 -3.45404440937500 -1.66583798125000 
 N -7.360564375000056E-002 -7.02983740937500 -2.52836398125000 
 N -2.26498164375000 -6.42353440937500 -3.78987398125000 
 N -3.03275064375000 -6.72668740937500 3.361701875000223E-002
 N -0.233528643750001 -3.67077540937500 -2.46441998125000 
 N -2.42230464375000 -3.07352640937500 -3.62907098125000 
 N -2.98914764375000 -3.32006740937500 0.184860018750002 
 S -0.696361643750000 -6.77380040937500 -4.09277498125000 
 S -3.74203964375000 -6.34947440937500 -1.41340798125000 
 S -1.40879364375000 -6.95831340937500 3.464001875000222E-002
 S -0.865565643750001 -3.35601140937500 -4.06437498125000 
 S -3.85681664375000 -3.34034240937500 -1.20453198125000 
 S -1.30418264375000 -3.59031840937500 4.671901875000217E-002
