16

 C -2.22852746250000 -6.42016394375000 -2.37450504687500 
 C -1.09464846250000 -7.04569994375000 -1.80410804687500 
 C -2.25483146250000 -2.64642394375000 -2.47155804687500 
 C -1.12471746250000 -3.22791294375000 -1.76826104687500 
 N -0.144876462499997 -7.34264794375000 -2.65690004687500 
 N -2.18693846250000 -6.13763494375000 -3.68896204687500 
 N -2.70450346250000 -6.62118394375000 0.176902953125001 
 N 1.426653750000284E-002 -3.37450494375000 -2.48058904687500 
 N -2.01765446250000 -2.44104194375000 -3.78613604687500 
 N -3.05697746250000 -2.90670694375000 4.447295312500055E-002
 S -0.636726462499997 -6.76019294375000 -4.12326804687500 
 S -3.48326846250000 -6.15329294375000 -1.13292804687500 
 S -1.19795846250000 -7.26202394375000 -8.729104687499945E-002
 S -0.484860462499997 -2.89692994375000 -4.01849104687500 
 S -3.61477946250000 -2.41164594375000 -1.42018304687500 
 S -1.39467646250000 -3.34633294375000 -1.507504687499939E-002
