16

 C -2.41464181874999 -6.53547642500000 -2.36973790000000 
 C -1.16429781874999 -6.90835442500000 -1.76281890000000 
 C -2.13906281874999 -2.57604842500000 -2.25032090000000 
 C -1.07819481874999 -3.28790442500000 -1.61507090000000 
 N -0.114870818749995 -7.09258242500000 -2.59404590000000 
 N -2.35358581874999 -6.39945242500000 -3.68114690000000 
 N -2.92437581874999 -6.74328342500000 0.102700100000001 
 N -5.698081874999517E-002 -3.48873142500000 -2.43617490000000 
 N -1.90532281874999 -2.17853842500000 -3.51304590000000 
 N -2.81734181874999 -3.20354742500000 0.213794100000001 
 S -0.760135818749995 -6.66057542500000 -4.10025690000000 
 S -3.73318381874999 -6.52482042500000 -1.37003090000000 
 S -1.34127781874999 -7.17479242500000 -1.127189999999945E-002
 S -0.365973818749994 -2.71900242500000 -3.84811390000000 
 S -3.59204881875000 -2.53234042500000 -1.18601590000000 
 S -1.23980781874999 -3.74043742500000 2.940610000000055E-002
