16

 C -2.47218005937500 -6.45185112500000 -2.32600414687500 
 C -1.18581305937500 -6.84703912500000 -1.71506514687500 
 C -2.52975905937500 -2.79810112500000 -2.36950114687500 
 C -1.36931105937500 -3.26389612500000 -1.68463114687500 
 N -0.191050059375004 -7.00541912500000 -2.59452614687500 
 N -2.41585505937500 -6.36142712500000 -3.64869414687500 
 N -2.96206905937500 -6.91098112500000 0.178780853125000 
 N -0.265859059375004 -3.36842812500000 -2.44872514687500 
 N -2.39943105937500 -2.75978412500000 -3.70078214687500 
 N -3.09793105937500 -2.91448712500000 0.186108853125000 
 S -0.857891059375004 -6.64530412500000 -4.10103014687500 
 S -3.74849205937500 -6.49735112500000 -1.20063014687500 
 S -1.28458405937500 -7.20824812500000 1.248485312499970E-002
 S -0.832593059375005 -3.08961012500000 -4.09350814687500 
 S -3.83330505937500 -2.47937912500000 -1.23962114687500 
 S -1.54922605937500 -3.49626412500000 -3.823414687500026E-002
