16

 C -2.24686199062501 -6.58102450937500 -2.19369580000000 
 C -1.01694299062501 -7.03262350937500 -1.63641180000000 
 C -2.43842199062501 -2.63813450937500 -2.23887380000000 
 C -1.26421099062501 -3.35000250937500 -1.72755780000000 
 N -2.081599062500672E-002 -7.21893350937500 -2.49558880000000 
 N -2.18337599062501 -6.30126650937500 -3.50264380000000 
 N -2.67476699062501 -6.93649050937500 0.333608200000002 
 N -0.342333990625006 -3.52737750937500 -2.65114980000000 
 N -2.34878999062501 -2.37956450937500 -3.52739280000000 
 N -2.96696999062501 -3.19407550937500 0.189466200000002 
 S -0.605822990625006 -6.68189750937500 -3.98944780000000 
 S -3.49280399062501 -6.41848850937500 -0.990842799999998 
 S -1.04752799062501 -7.24428750937500 8.917620000000248E-002
 S -0.813944990625006 -2.91672350937500 -4.09494080000000 
 S -3.74086599062501 -2.50835850937500 -1.12568880000000 
 S -1.34906599062501 -3.54374250937500 -5.048799999997522E-003
