16

 C -2.41178291250000 -6.51743264375000 -2.31632961562500 
 C -1.20790891250000 -6.99384164375000 -1.68075561562500 
 C -2.41979291250000 -2.57131764375000 -2.36726261562500 
 C -1.31749491250000 -3.23214064375000 -1.78037161562500 
 N -0.166738912499996 -7.08017564375000 -2.45359561562500 
 N -2.25122691250000 -6.33115664375000 -3.63001261562500 
 N -2.82785091250000 -6.73905164375000 0.221766384375002 
 N -0.271625912499996 -3.45924864375000 -2.60719361562500 
 N -2.18260291250000 -2.23018164375000 -3.64946861562500 
 N -3.01642591250000 -2.96718264375000 0.118211384375002 
 S -0.663884912499996 -6.66808664375000 -3.99087461562500 
 S -3.72787291250000 -6.40922664375000 -1.21779661562500 
 S -1.33088691250000 -7.34162864375000 -3.871761562499798E-002
 S -0.727235912499996 -2.91627864375000 -4.04921261562500 
 S -3.65840291250000 -2.24093764375000 -1.21707961562500 
 S -1.45519991250000 -3.58483364375000 -7.539361562499813E-002
