16

 C -2.30640974062500 -6.86439510312499 -2.37560877500000 
 C -1.14313374062500 -7.24769910312499 -1.66645977500000 
 C -2.92099274062500 -2.97382510312499 -2.34007077500000 
 C -1.72660174062500 -3.55087810312499 -1.73379477500000 
 N -9.133274062499819E-002 -7.50877910312499 -2.45028177500000 
 N -2.09831074062500 -6.77120810312499 -3.67518777500000 
 N -3.01320074062500 -6.81764510312499 6.604222499999990E-002
 N -0.778032740624998 -3.94758110312499 -2.57124377500000 
 N -2.81956274062500 -2.91942910312499 -3.66597777500000 
 N -3.42169674062500 -3.27701610312499 0.152197225000000 
 S -0.529446740624999 -7.13921110312499 -4.01828877500000 
 S -3.68813974062500 -6.52312510312499 -1.35338177500000 
 S -1.39887974062500 -7.31368310312499 5.747224999999911E-003
 S -1.28688774062500 -3.41927910312499 -4.03528877500000 
 S -4.16051074062500 -2.69783510312499 -1.19944377500000 
 S -1.89501974062500 -3.74478110312499 -6.702877500000004E-002
