16

 C -2.14137688125000 -6.22332228125000 -2.20287413750000 
 C -1.06707988125000 -6.85733828125000 -1.54552813750000 
 C -2.49258688125000 -2.67274528125000 -2.62444513750000 
 C -1.25173888125000 -3.07359128125000 -2.01677713750000 
 N -5.256388124999845E-002 -7.16378428125000 -2.37180613750000 
 N -2.05300288125000 -6.07466228125000 -3.54663713750000 
 N -2.95926588125000 -6.50304628125000 0.248415862500000 
 N -0.263352881249999 -3.07619728125000 -2.87616313750000 
 N -2.43480588125000 -2.45969728125000 -3.92102013750000 
 N -2.96239288125000 -3.08973728125000 -0.162173137500000 
 S -0.485804881249999 -6.59987028125000 -3.89412113750000 
 S -3.54968788125000 -5.98185828125000 -1.20660213750000 
 S -1.36958988125000 -7.06970728125000 0.171716862500001 
 S -0.872887881249999 -2.81516928125000 -4.39446013750000 
 S -3.76494988125000 -2.44703528125000 -1.48641713750000 
 S -1.33857288125000 -3.34938828125000 -0.289419137499999 
