16

 C -2.40146214062499 -6.23758919687500 -2.44985301875000 
 C -1.18420914062499 -6.61827419687500 -1.77404301875000 
 C -2.29557614062499 -2.90171619687500 -2.48864401875000 
 C -1.00105914062499 -3.25267219687500 -1.88300701875000 
 N -0.175842140624993 -6.95254119687500 -2.59870801875000 
 N -2.34013814062499 -6.13139319687500 -3.76294601875000 
 N -3.03398314062499 -6.40779119687500 4.204298125000050E-002
 N 1.415585937500730E-002 -3.33660619687500 -2.74066801875000 
 N -2.19663014062499 -2.81597819687500 -3.80732101875000 
 N -2.86467214062499 -3.15779819687500 3.315698125000055E-002
 S -0.769656140624993 -6.56611519687500 -4.11481401875000 
 S -3.82557514062499 -5.98752619687500 -1.41019701875000 
 S -1.40643114062499 -6.70685819687500 -8.301601874999953E-002
 S -0.646704140624993 -3.09536619687500 -4.24747401875000 
 S -3.64149914062499 -2.90991519687500 -1.41193701875000 
 S -1.21173614062499 -3.47961819687500 -0.112158018750000 
