16

 C -2.52639966875000 -6.62315058750000 -2.30462908125000 
 C -1.25681266875000 -6.80422558750000 -1.65309208125000 
 C -2.38277966875000 -2.62802758750000 -2.44422008125000 
 C -1.22046566875000 -3.22778058750000 -1.74685008125000 
 N -0.265427668749997 -6.82026958750000 -2.55712708125000 
 N -2.47381366875000 -6.57877458750000 -3.64500308125000 
 N -3.04038066875000 -6.86522558750000 0.197857918750001 
 N -0.138330668749997 -3.49595058750000 -2.47600608125000 
 N -2.14543066875000 -2.49857358750000 -3.73957008125000 
 N -3.19073966875000 -3.09096058750000 -1.987081249999134E-003
 S -0.926833668749997 -6.76209758750000 -4.05841108125000 
 S -3.87864166875000 -6.77400158750000 -1.23122708125000 
 S -1.42579266875000 -7.12929758750000 5.041918750001040E-003
 S -0.608507668749997 -2.96690758750000 -3.98856208125000 
 S -3.75025866875000 -2.35448558750000 -1.40037908125000 
 S -1.60148666875000 -3.56670258750000 -7.256608124999908E-002
