16

 C -2.63522459687500 -6.66726081562500 -2.33052372187500 
 C -1.33667459687500 -6.85204681562500 -1.68048172187500 
 C -2.45677159687500 -3.09845281562500 -2.50289972187500 
 C -1.12030959687500 -3.31355381562500 -1.91933172187500 
 N -0.367280596874998 -6.81331181562500 -2.57411172187500 
 N -2.62232559687500 -6.55462281562500 -3.65632472187500 
 N -3.16240159687500 -6.81315981562500 0.263314278125001 
 N -0.106105596874998 -3.26986781562500 -2.77984772187500 
 N -2.39077059687500 -3.05965881562500 -3.82305372187500 
 N -2.71636659687500 -3.07821581562500 7.480527812500060E-002
 S -1.04996259687500 -6.66259481562500 -4.09077772187500 
 S -3.99831859687500 -6.67261781562500 -1.20077672187500 
 S -1.55058659687500 -7.15445981562500 6.330327812500069E-002
 S -0.830840596874999 -3.31278081562500 -4.31666872187500 
 S -3.69108259687500 -2.90860781562500 -1.23485272187500 
 S -1.05972559687500 -3.33840981562500 -0.197456721874999 
