16

 C -2.19405724687500 -6.41570864062500 -2.37541171875000 
 C -0.897640246875004 -6.72987064062500 -1.81559871875000 
 C -2.54619224687500 -2.85528364062500 -2.45449171875000 
 C -1.35390024687500 -3.18697364062500 -1.73552871875000 
 N 0.140227753124996 -6.79826164062500 -2.65052871875000 
 N -2.13757224687500 -6.27714864062500 -3.69735171875000 
 N -2.63685524687500 -6.68252664062500 0.135128281250003 
 N -0.299816246875004 -3.30598364062500 -2.50754471875000 
 N -2.36560924687500 -2.71246664062500 -3.75273371875000 
 N -3.22536524687500 -2.84327264062500 4.667528125000331E-002
 S -0.557798246875004 -6.46773664062500 -4.15247771875000 
 S -3.47983724687500 -6.40041064062500 -1.24389171875000 
 S -1.04647724687500 -7.09894464062500 -0.108977718749997 
 S -0.786494246875003 -3.07621164062500 -4.07857171875000 
 S -3.93509624687500 -2.48320664062500 -1.44218971875000 
 S -1.63564224687500 -3.39656664062500 -9.750971874999692E-002
