16

 C -2.45538084687500 -6.43430710625001 -2.11565008437500 
 C -1.23786384687500 -6.91112010625001 -1.50164708437500 
 C -2.31155584687500 -2.59580310625001 -2.41876508437500 
 C -1.09532084687500 -3.15385310625001 -1.87577208437500 
 N -0.189892846875002 -7.04619710625001 -2.29965708437500 
 N -2.29313984687500 -6.09939310625001 -3.38826108437500 
 N -3.12492084687500 -7.18294010625001 0.249597915625000 
 N -0.128801846875002 -3.34391310625001 -2.77136208437500 
 N -2.32324984687500 -2.42743710625001 -3.72915708437500 
 N -2.86787184687500 -3.05145310625001 1.472091562499966E-002
 S -0.695584846875001 -6.54085010625001 -3.80978808437500 
 S -3.86118384687500 -6.70804710625001 -1.14299508437500 
 S -1.45242584687500 -7.39601510625001 0.127274915625000 
 S -0.758595846875002 -2.81720810625001 -4.23367108437500 
 S -3.59248484687500 -2.36702510625001 -1.30266808437500 
 S -1.24358384687500 -3.31635310625001 -0.179403084375001 
