16

 C -2.66569589375000 -6.58417788437500 -2.13833896250000 
 C -1.43822089375000 -7.18363988437500 -1.65328396250000 
 C -2.32657389375000 -2.73228688437500 -2.33469496250000 
 C -1.16302689375000 -3.36588288437500 -1.76989396250000 
 N -0.546417893749997 -7.52424288437500 -2.60807796250000 
 N -2.56583789375000 -6.31838388437500 -3.45137096250000 
 N -2.93978789375000 -6.95413688437500 0.488687037500002 
 N -0.215161893749998 -3.65272488437500 -2.64171396250000 
 N -2.18461089375000 -2.53297788437500 -3.63517296250000 
 N -2.82554189375000 -2.96078488437500 0.136111037500002 
 S -1.12698789375000 -6.94194588437500 -4.03793396250000 
 S -3.83337289375000 -6.49108188437500 -0.852900962499998 
 S -1.43990089375000 -7.54238288437500 5.494403750000187E-002
 S -0.717787893749998 -3.14000888437500 -4.14527696250000 
 S -3.61497289375000 -2.48806388437500 -1.25787996250000 
 S -1.29089689375000 -3.45071788437500 -6.817496249999833E-002
