16

 C -2.47627147500000 -6.42020735625000 -2.34571659375000 
 C -1.23073847500000 -6.79056335625000 -1.75524259375000 
 C -2.45980247500000 -2.95165435625000 -2.57217459375000 
 C -1.16986947500000 -3.28170335625000 -1.95505559375000 
 N -0.162427474999998 -6.84421235625000 -2.55690259375000 
 N -2.33161447500000 -6.09909735625000 -3.62963359375000 
 N -2.85216547500000 -6.87229235625000 0.205561406249999 
 N -0.228725474999998 -3.31592535625000 -2.90893659375000 
 N -2.42489147500000 -2.60850835625000 -3.82719959375000 
 N -2.95221847500000 -3.25365135625000 -3.503159375000120E-002
 S -0.728537474999998 -6.49869135625000 -4.08659559375000 
 S -3.76147847500000 -6.49016435625000 -1.17656859375000 
 S -1.24909747500000 -7.14141935625000 -6.216359375000113E-002
 S -0.824791474999998 -2.81095835625000 -4.28396459375000 
 S -3.80400947500000 -2.94100535625000 -1.42597559375000 
 S -1.31563747500000 -3.55878235625000 -0.202356593750001 
