16

 C -2.55153335000001 -6.15561220937501 -2.44666555312500 
 C -1.27790135000001 -6.58360420937501 -1.90539755312500 
 C -2.38789635000001 -3.00128620937501 -2.60090655312500 
 C -1.16581835000001 -3.27822520937501 -1.80334455312500 
 N -0.279975350000009 -6.78986020937501 -2.72921655312500 
 N -2.53234735000001 -6.11812520937501 -3.76785255312500 
 N -2.91748635000001 -6.39016720937501 6.399944687499781E-002
 N -0.163492350000009 -3.58636320937501 -2.61140355312500 
 N -2.26421335000001 -3.04821120937501 -3.92738355312500 
 N -3.09327535000001 -2.84289420937501 -6.258455312500222E-002
 S -0.966519350000009 -6.46812320937501 -4.21077155312500 
 S -3.82917735000001 -5.91151020937501 -1.32418955312500 
 S -1.32727335000001 -6.82049920937501 -0.132844553125002 
 S -0.665882350000009 -3.32410120937501 -4.20349255312500 
 S -3.80361935000001 -2.79239720937501 -1.54179055312500 
 S -1.39263635000001 -3.19658820937501 -3.030655312500219E-002
