16

 C -2.40042488437500 -6.45910339062500 -2.26516955312500 
 C -1.11094888437500 -6.84494439062500 -1.69032955312500 
 C -2.32997788437500 -2.56206239062500 -2.37510855312500 
 C -1.19958988437500 -3.14996239062500 -1.76638955312500 
 N -6.111588437500437E-002 -6.96411839062500 -2.50718955312500 
 N -2.27976488437500 -6.25048939062500 -3.58246055312500 
 N -2.87080988437500 -6.60777539062500 0.199920446875000 
 N -0.180499884375004 -3.41298039062500 -2.60317655312500 
 N -2.29846688437500 -2.37113339062500 -3.70777355312500 
 N -2.99456988437500 -3.07291939062500 6.495244687500046E-002
 S -0.705059884375004 -6.59352639062500 -3.97467455312500 
 S -3.72926988437500 -6.35752339062500 -1.15942555312500 
 S -1.32505888437500 -7.35199139062500 1.304468750003007E-004
 S -0.714830884375004 -2.78323439062500 -4.10534955312500 
 S -3.72353288437500 -2.39441139062500 -1.27505155312500 
 S -1.42889388437500 -3.49725939062500 -0.137597553125000 
