16

 C -2.28973038437500 -6.40057464687500 -2.42797433437500 
 C -1.06654738437500 -6.81199664687500 -1.77945433437500 
 C -2.58001438437500 -2.63208864687500 -2.26289133437500 
 C -1.32375438437500 -3.13425864687501 -1.66508933437500 
 N -7.604138437500296E-002 -7.01452164687501 -2.63381633437500 
 N -2.16328738437500 -6.07327064687501 -3.71034933437500 
 N -2.81373438437500 -6.59382864687501 0.124875665624999 
 N -0.336934384375003 -3.25735764687500 -2.55441633437500 
 N -2.53084538437500 -2.36664364687500 -3.57862933437500 
 N -2.96542538437500 -2.93403764687501 0.330681665624999 
 S -0.620462384375003 -6.56373864687500 -4.12082733437500 
 S -3.61394838437500 -6.30388464687501 -1.32404833437500 
 S -1.20907338437500 -6.99235364687500 -2.436833437500052E-002
 S -0.928638384375003 -2.68561364687501 -3.98269233437500 
 S -3.83886438437500 -2.54194364687500 -1.07022233437500 
 S -1.35565838437500 -3.25206964687500 7.096566562499929E-002
