16

 C -2.45990048125000 -6.82754707187500 -2.37291190625000 
 C -1.12381648125000 -7.00454207187500 -1.88924890625000 
 C -2.39948848125000 -2.69535007187500 -2.43984490625000 
 C -1.33496848125000 -3.29689407187500 -1.74665390625000 
 N -0.145921481250000 -6.97678507187500 -2.82095390625000 
 N -2.44778948125000 -6.66277807187500 -3.69670490625000 
 N -2.72830948125000 -7.02429907187500 0.178909093749999 
 N -0.258539481250000 -3.56319507187500 -2.48480290625000 
 N -2.21788648125000 -2.43934907187500 -3.73894090625000 
 N -3.26714748125000 -3.00045807187500 3.104109374999875E-002
 S -0.912068481250000 -6.69345707187500 -4.25073990625000 
 S -3.67868648125000 -6.78080107187500 -1.12755590625000 
 S -1.08098048125000 -7.00957907187500 -0.136923906250001 
 S -0.760514481250000 -3.07482607187500 -4.01518390625000 
 S -3.86559448125000 -2.51827107187500 -1.41971490625000 
 S -1.65139148125000 -3.43911307187500 -1.510790625000125E-002
