16

 C -2.47326255000000 -6.45561928125000 -2.18312151562500 
 C -1.20689355000000 -7.05696728125000 -1.66400551562500 
 C -2.19843255000000 -2.47199028125000 -2.62388451562500 
 C -1.02879855000000 -2.93870128125000 -1.83091251562500 
 N -0.171326549999999 -7.15457128125000 -2.48013651562500 
 N -2.39403655000000 -6.25015128125000 -3.49643151562500 
 N -2.85929055000000 -6.81229328125000 0.299091484374998 
 N 1.007345000000193E-002 -3.26460428125000 -2.61894351562500 
 N -1.98733955000000 -2.34335828125000 -3.94099251562500 
 N -3.00611955000000 -2.93726528125000 -0.176843515625002 
 S -0.865547549999999 -6.69872228125000 -3.92629551562500 
 S -3.72215355000000 -6.36252628125000 -1.06723151562500 
 S -1.32530255000000 -7.35786328125000 9.040048437499815E-002
 S -0.420059549999999 -2.87123828125000 -4.18447951562500 
 S -3.63448055000000 -2.37046628125000 -1.59752451562500 
 S -1.33093355000000 -3.09169528125000 -7.082051562500191E-002
