16

 C -2.23355768750000 -6.56128608750000 -2.28614544687500 
 C -0.938336687499999 -6.84099608750000 -1.83308544687500 
 C -2.54291668750000 -2.85836608750000 -2.37195244687500 
 C -1.33927268750000 -3.27155108750000 -1.77376344687500 
 N -3.720468749999828E-002 -6.93115108750000 -2.81251344687500 
 N -2.33361768750000 -6.46205708750000 -3.62631444687500 
 N -2.39415068750000 -6.91739408750000 0.286719553125001 
 N -0.310646687499998 -3.49022808750000 -2.58767444687500 
 N -2.44871868750000 -2.65686908750000 -3.66887244687500 
 N -3.10568468750000 -2.91856008750000 0.142970553125001 
 S -0.819545687499999 -6.73014108750000 -4.23720944687500 
 S -3.41773368750000 -6.71957908750000 -0.957789446874999 
 S -0.835194687499999 -7.24375208750000 -0.195794446874999 
 S -0.908367687499998 -3.09516208750000 -4.08602544687500 
 S -3.83422568750000 -2.47138708750000 -1.26282244687500 
 S -1.55100668750000 -3.48686608750000 -3.256244687499921E-002
