16

 C -2.28469986562501 -6.67842750312499 -2.58237288750000 
 C -1.02133486562500 -7.06975150312499 -1.94796088750000 
 C -2.53969686562501 -2.64522450312499 -2.52642588750000 
 C -1.29442286562501 -3.13270250312499 -1.99621288750000 
 N -0.122311865625005 -7.49535350312499 -2.79308988750000 
 N -2.24890886562501 -6.89842650312499 -3.90701188750000 
 N -2.68632086562500 -6.48889950312499 -3.467688749999964E-002
 N -0.327148865625006 -3.40450350312499 -2.87430588750000 
 N -2.55756986562501 -2.53522050312499 -3.85344388750000 
 N -2.94156586562501 -2.78395250312499 2.281911250000035E-002
 S -0.710984865625005 -7.37558250312499 -4.35682688750000 
 S -3.56925186562500 -6.24181150312499 -1.45436688750000 
 S -1.12056686562501 -6.93456550312499 -0.204014887500000 
 S -1.01531886562501 -2.92692450312499 -4.34412988750000 
 S -3.69091886562501 -2.21543950312499 -1.31028588750000 
 S -1.45911186562501 -3.41163650312499 -0.263347887499999 
