16

 C -2.42931560937500 -6.42059838125000 -2.12430619687500 
 C -1.22793460937500 -6.91843438125000 -1.54677219687500 
 C -2.32204560937500 -2.68642738125000 -2.42811719687500 
 C -1.11768160937500 -3.11177538125000 -1.87889419687500 
 N -0.131732609375003 -7.05239038125000 -2.31825219687500 
 N -2.26244360937500 -6.14275638125000 -3.42134219687500 
 N -3.07386060937500 -7.18667438125000 0.245227803125000 
 N -0.163341609375004 -3.25434338125000 -2.75611319687500 
 N -2.33733560937500 -2.44778838125000 -3.71339319687500 
 N -2.88541960937500 -3.05044038125000 6.055803124999759E-003
 S -0.662980609375003 -6.53219638125000 -3.81544019687500 
 S -3.84127860937500 -6.69433438125000 -1.12996719687500 
 S -1.40184460937500 -7.38010538125000 0.132177803125000 
 S -0.763902609375004 -2.83278238125000 -4.25075419687500 
 S -3.61012460937500 -2.36279538125000 -1.30979519687500 
 S -1.23008460937500 -3.28780538125000 -0.161141196875000 
