16

 C -2.62367608750001 -6.44222669062500 -2.33542299687500 
 C -1.40577708750001 -6.93548369062500 -1.70941299687500 
 C -2.42414808750001 -2.95334969062500 -2.43774199687500 
 C -1.17430608750001 -3.33097569062500 -1.77453799687500 
 N -0.386588087500015 -7.10511569062500 -2.54546599687500 
 N -2.54141808750001 -6.27864869062500 -3.64588499687500 
 N -3.13169208750001 -6.48498369062500 0.202734003124999 
 N -0.206034087500015 -3.54863669062500 -2.66493499687500 
 N -2.36597508750001 -2.77423969062500 -3.77093299687500 
 N -2.82470108750001 -2.94523869062500 0.154648003124999 
 S -0.971557087500015 -6.71810669062500 -4.07998999687500 
 S -3.89806308750001 -6.09998969062500 -1.25408599687500 
 S -1.59889408750001 -7.14547469062500 8.434100312499915E-002
 S -0.758945087500015 -3.10270069062500 -4.17473999687500 
 S -3.65764508750001 -2.55543069062500 -1.28172899687500 
 S -1.21123908750002 -3.35629869062500 -5.264799687500066E-002
