16

 C -2.63076972812500 -6.33950448125000 -2.44589959062500 
 C -1.34737672812500 -6.59797348125000 -1.83423159062500 
 C -2.57678372812500 -2.97124048125000 -2.30875959062500 
 C -1.31593872812500 -3.36773748125000 -1.68022459062500 
 N -0.357182728125004 -6.77138848125000 -2.70475159062500 
 N -2.59092572812500 -6.19794148125000 -3.76523759062500 
 N -3.14774872812500 -6.53545948125000 5.689140937500148E-002
 N -0.274983728125004 -3.47023048125000 -2.50820359062500 
 N -2.51161572812500 -2.89797348125000 -3.63349659062500 
 N -3.05980172812500 -3.04096148125000 0.182419409375002 
 S -1.00655172812500 -6.55939848125000 -4.23953659062500 
 S -3.97658372812500 -6.17467248125000 -1.34195559062500 
 S -1.51362972812500 -6.80969748125000 -9.982759062499857E-002
 S -0.886823728125004 -3.12177148125000 -4.03167759062500 
 S -3.88052072812500 -2.64924148125000 -1.19409059062500 
 S -1.44870672812500 -3.47662648125000 4.951340937500159E-002
