16

 C -2.47691806250001 -6.69328453437500 -2.32502106562500 
 C -1.20902306250001 -7.10585053437500 -1.74543506562500 
 C -2.64602906250001 -3.24594253437500 -2.03809906562500 
 C -1.44959906250001 -3.51604553437500 -1.34535706562500 
 N -0.138269062500005 -7.12439553437500 -2.58156406562500 
 N -2.38992506250001 -6.52764153437500 -3.64664406562500 
 N -2.92367006250001 -6.86780353437500 0.178803934374999 
 N -0.386478062500005 -3.55725153437500 -2.16695106562500 
 N -2.51965906250001 -3.05046653437500 -3.36299306562500 
 N -3.28822206250001 -3.29522353437500 0.453672934374999 
 S -0.796513062500005 -6.68507853437500 -4.02368506562500 
 S -3.67872406250001 -6.44602653437500 -1.19695206562500 
 S -1.24770006250001 -7.19726153437500 -1.313806562500153E-002
 S -0.925023062500006 -3.28071053437500 -3.67254106562500 
 S -4.05070406250001 -3.19981453437500 -1.02915106562500 
 S -1.69446406250001 -3.60591853437500 0.295519934374999 
