16

 C -2.64431531875001 -6.51520629687500 -2.31229068750000 
 C -1.37707931875001 -6.91957829687500 -1.77579968750000 
 C -2.36817031875001 -2.92439529687500 -2.35753868750000 
 C -1.19881131875001 -3.53168829687500 -1.70337068750000 
 N -0.455998318750006 -7.10407429687500 -2.70405468750000 
 N -2.63595531875001 -6.25086929687500 -3.61224868750000 
 N -3.03813431875001 -6.76918429687500 0.235007312499999 
 N -0.176384318750006 -3.69083129687500 -2.51870468750000 
 N -2.17013431875001 -2.71883129687500 -3.64033568750000 
 N -2.98249231875001 -3.00583329687500 9.621431249999945E-002
 S -1.09921131875001 -6.61140829687500 -4.13857268750000 
 S -3.91256831875001 -6.22488429687500 -1.08745668750000 
 S -1.43023131875001 -7.12479529687500 -4.068268750000059E-002
 S -0.622040318750006 -3.21117429687500 -4.05498768750000 
 S -3.71894431875001 -2.81013729687500 -1.37751868750000 
 S -1.42216131875001 -3.69337229687500 -1.470668750000059E-002
