16

 C -2.52757785937500 -6.23382733125000 -2.47041031250000 
 C -1.43395785937500 -7.01717133125000 -2.02122631250000 
 C -2.54142285937500 -2.68868333125000 -2.42378131250000 
 C -1.37604085937500 -3.15886833125000 -1.76954031250000 
 N -0.481645859374998 -7.24842133125000 -2.92855131250000 
 N -2.46759185937500 -5.87851133125000 -3.74691931250000 
 N -3.06313085937500 -6.94461133125000 -2.136631249999765E-002
 N -0.332205859374998 -3.38613833125000 -2.55403431250000 
 N -2.38366585937500 -2.45496133125000 -3.72604031250000 
 N -3.12297185937500 -2.90838833125000 8.733368750000237E-002
 S -0.977964859374998 -6.47794233125000 -4.34233531250000 
 S -3.78744685937500 -6.02662333125000 -1.26437331250000 
 S -1.62754185937500 -7.61044133125000 -0.413011312499998 
 S -0.839657859374999 -2.90561033125000 -4.11021531250000 
 S -3.82577685937500 -2.22379433125000 -1.30186331250000 
 S -1.55376185937500 -3.47638633125000 -8.102131249999744E-002
