16

 C -2.33595566875000 -6.35352633750000 -2.49327763750000 
 C -1.21666966875000 -6.81255233750000 -1.72114063750000 
 C -2.64190466875000 -2.52306033750000 -2.40688363750000 
 C -1.39395066875000 -2.74133233750000 -1.76901863750000 
 N -0.164657668750000 -7.03731733750000 -2.49495063750000 
 N -2.11030766875000 -6.25367133750000 -3.80883063750000 
 N -3.14655466875000 -6.51161233750000 -8.366663750000036E-002
 N -0.350034668750000 -2.89336533750000 -2.57418563750000 
 N -2.51008066875000 -2.37067333750000 -3.73257263750000 
 N -3.19277066875000 -2.73711533750000 2.449136249999939E-002
 S -0.507135668750000 -6.65557133750000 -4.06046063750000 
 S -3.79018566875000 -6.15414233750000 -1.58779363750000 
 S -1.58627166875000 -7.02101333750000 -3.882463750000076E-002
 S -0.908321668750000 -2.64331233750000 -4.10325663750000 
 S -4.02154666875000 -2.38672933750000 -1.37597563750000 
 S -1.57379866875000 -3.00822233750000 -7.023463750000047E-002
