16

 C -2.33156899062500 -6.42294141250000 -2.62418461250000 
 C -1.15202799062500 -6.88218141250000 -1.96781761250000 
 C -2.27871199062500 -2.55045441250000 -2.53607761250000 
 C -1.01614599062500 -3.02128941250000 -2.01210661250000 
 N -0.134991990624997 -7.13772041250000 -2.76894961250000 
 N -2.21348099062500 -6.42537841250000 -3.94273561250000 
 N -3.00792499062500 -6.59638441250000 -0.105639612500001 
 N -0.101193990624997 -2.98389941250000 -2.97570661250000 
 N -2.30538899062500 -2.18741241250000 -3.79647561250000 
 N -2.76623299062500 -3.25691541250000 -0.170709612500002 
 S -0.643158990624996 -6.76868941250000 -4.33558961250000 
 S -3.74514999062500 -6.07414541250000 -1.50543761250000 
 S -1.36462999062500 -6.91533941250000 -0.182341612500002 
 S -0.748856990624996 -2.49927541250000 -4.40332561250000 
 S -3.57678599062500 -2.62854241250000 -1.45359861250000 
 S -1.15057499062500 -3.59718141250000 -0.359478612500001 
