16

 C -2.42412751875000 -6.58603456250001 -2.28101033750000 
 C -1.26129451875000 -7.02846956250001 -1.56506233750000 
 C -2.43885151875000 -2.74335456250001 -2.43318333750000 
 C -1.18408351875000 -3.21784756250001 -1.74370933750000 
 N -0.135968518750002 -7.19381356250001 -2.25308033750000 
 N -2.12957951875000 -6.40915956250001 -3.55353033750000 
 N -3.07948451875000 -6.70916556250001 0.229149662500001 
 N -0.102913518750002 -3.13292756250001 -2.52262233750000 
 N -2.28104951875000 -2.44524056250001 -3.73219833750000 
 N -3.04000951875000 -3.28924456250001 4.731366250000102E-002
 S -0.539358518750002 -6.76237456250001 -3.77066533750000 
 S -3.74578451875000 -6.20124056250001 -1.21989233750000 
 S -1.51645951875000 -7.21193156250001 0.125874662500001 
 S -0.705185518750002 -2.67064756250001 -4.02330733750000 
 S -3.77597951875000 -2.71648356250001 -1.32039833750000 
 S -1.42887251875000 -3.59571956250001 -0.105933337499999 
