16

 C -2.49859533125000 -6.69339205625000 -2.32281710312500 
 C -1.21767733125000 -7.04002705625000 -1.72570810312500 
 C -2.29160533125000 -3.17284105625000 -2.31408910312500 
 C -1.05197533125000 -3.61314605625000 -1.70054210312500 
 N -0.316577331250003 -7.28511105625000 -2.66003010312500 
 N -2.56609833125000 -6.71919205625000 -3.63482610312500 
 N -2.86177833125000 -6.77921505625000 0.226973896874999 
 N -7.270933125000312E-002 -3.88311705625000 -2.54761310312500 
 N -2.16234933125000 -2.95055905625000 -3.59011910312500 
 N -2.74255633125000 -3.37908705625000 0.188017896874999 
 S -1.01755233125000 -6.97655305625000 -4.15091810312500 
 S -3.72141433125000 -6.39795105625000 -1.17028210312500 
 S -1.28734533125000 -7.11315705625000 7.648896874998812E-003
 S -0.627631331250003 -3.43925105625000 -4.10706310312500 
 S -3.55942133125000 -2.89785205625000 -1.14972410312500 
 S -1.13944333125000 -3.81726905625000 3.409389687499886E-002
