16

 C -2.59740440000000 -6.60038679687500 -2.08418257187500 
 C -1.33039840000000 -7.18634579687500 -1.63783757187500 
 C -2.40847040000000 -2.71676479687500 -2.43932757187500 
 C -1.25008740000000 -3.26317479687500 -1.80994357187500 
 N -0.441469399999998 -7.38041379687500 -2.58816957187500 
 N -2.55052140000000 -6.30639379687500 -3.37079457187500 
 N -2.79903840000000 -6.88637779687500 0.387464428124998 
 N -0.259498399999998 -3.56117879687500 -2.61932157187500 
 N -2.25987940000000 -2.57503579687500 -3.75314257187500 
 N -2.93469540000000 -2.91713179687500 9.352142812499808E-002
 S -1.10584140000000 -6.79473179687500 -3.98207857187500 
 S -3.77791540000000 -6.44581879687500 -0.866247571875002 
 S -1.31831440000000 -7.60625779687500 5.321342812499830E-002
 S -0.764729399999998 -3.17904179687500 -4.16901457187500 
 S -3.70334540000000 -2.41622779687500 -1.32085957187500 
 S -1.40091140000000 -3.56367179687500 -8.039857187500199E-002
