16

 C -2.35215672812500 -6.41257690625001 -2.41620479375000 
 C -1.10579072812500 -6.74022990625001 -1.77271379375000 
 C -2.52295572812500 -2.65975890625001 -2.59610979375000 
 C -1.37834572812500 -3.10074990625001 -1.83490079375000 
 N -7.148972812500354E-002 -6.88165290625001 -2.58639579375000 
 N -2.20729372812500 -6.36589190625001 -3.74173479375000 
 N -2.88232072812500 -6.64786390625001 4.765220624999866E-002
 N -0.408464728125004 -3.56358890625001 -2.60506679375000 
 N -2.39391972812500 -2.63464990625001 -3.93337379375000 
 N -3.29689872812500 -2.93227690625001 -3.804579375000117E-002
 S -0.650396728125004 -6.70763690625001 -4.12084279375000 
 S -3.68839472812500 -6.26924890625001 -1.37978379375000 
 S -1.22900572812500 -6.89782590625001 -8.549793750001422E-003
 S -0.868812728125004 -3.23667890625001 -4.16673479375000 
 S -3.94918072812500 -2.46146790625001 -1.53175779375000 
 S -1.67711572812500 -3.40773690625001 -9.954779375000111E-002
