16

 C -2.65284874375000 -6.22396139062501 -2.28484741562500 
 C -1.41772574375000 -6.68688439062501 -1.68162841562500 
 C -2.40257274375000 -2.58082439062501 -2.49028741562500 
 C -1.20134574375000 -3.00985939062501 -1.75404241562500 
 N -0.400649743750001 -6.97633239062501 -2.51751441562500 
 N -2.59454874375000 -6.13217139062501 -3.62654041562500 
 N -3.12019474375000 -6.45667239062501 0.234569584374998 
 N -0.171392743750000 -3.34502739062501 -2.50398941562500 
 N -2.27867974375000 -2.50560239062501 -3.79574241562500 
 N -3.07646474375000 -2.76214839062501 5.988558437499814E-002
 S -1.04586074375000 -6.56232339062501 -3.99671141562500 
 S -3.89293574375000 -5.84278939062501 -1.10978241562500 
 S -1.50480074375000 -6.87450639062501 6.365843749980282E-004
 S -0.731924743750000 -2.98448139062501 -4.11404041562500 
 S -3.70875974375000 -2.31148939062501 -1.40114241562500 
 S -1.45082474375000 -3.04063539062501 -4.155541562500198E-002
