16

 C -2.32984574687500 -6.03475610000000 -2.31240953125000 
 C -1.18268674687500 -6.75533810000000 -1.82210253125000 
 C -2.72907274687500 -2.40358410000001 -2.68965553125000 
 C -1.50678774687500 -2.87953910000001 -2.05393053125000 
 N -0.284905746875000 -7.13328210000001 -2.71692453125000 
 N -2.31875474687500 -5.89209310000001 -3.62894053125000 
 N -2.72175374687500 -6.35869610000000 0.207881468749999 
 N -0.463742746875000 -3.11535910000001 -2.87301053125000 
 N -2.61801074687500 -2.39060710000000 -4.02847853125000 
 N -3.11620074687500 -2.39892610000001 -0.221101531250001 
 S -0.898144746875000 -6.55905310000001 -4.15369153125000 
 S -3.53746474687500 -5.75702810000000 -1.07394253125000 
 S -1.22822574687500 -7.09260410000001 -0.116793531250001 
 S -1.06568774687500 -2.76685810000000 -4.44782853125000 
 S -4.01242274687500 -2.12972210000000 -1.57134353125000 
 S -1.53255574687500 -2.87952610000000 -0.355075531250002 
