16

 C -2.36147402812499 -6.68524907500000 -2.37489654062500 
 C -1.16009802812499 -7.17120207500000 -1.74172654062500 
 C -2.34979102812499 -2.52187207500000 -2.27099454062500 
 C -1.30114502812499 -3.34595707500000 -1.74445254062500 
 N -9.884702812499135E-002 -7.40423807500000 -2.56231554062500 
 N -2.20203302812499 -6.38978407500000 -3.64712554062500 
 N -3.00245602812499 -7.08552907500000 0.125062459374999 
 N -0.439746028124992 -3.75626607500000 -2.64986254062500 
 N -2.25311402812499 -2.28632107500000 -3.55675154062500 
 N -2.97183202812499 -2.76727807500000 0.163440459374999 
 S -0.637931028124991 -6.79692507500000 -4.06179654062500 
 S -3.72047102812499 -6.43441207500000 -1.28022254062500 
 S -1.38280802812499 -7.29412707500000 5.197345937499942E-002
 S -0.839970028124991 -2.98153907500000 -4.05740754062500 
 S -3.62601002812499 -2.06168507500000 -1.16034854062500 
 S -1.61547102812499 -3.68826407500000 -6.155254062500060E-002
