16

 C -2.26296179062501 -6.41305261875000 -2.23894886250000 
 C -1.07110679062501 -7.00070161875000 -1.71950486250000 
 C -2.29832379062501 -2.55526061875000 -2.45445286250000 
 C -1.12223479062501 -3.16334061875000 -1.87546086250000 
 N -0.111916790625007 -7.31506961875000 -2.59439286250000 
 N -2.24067279062501 -6.29879861875000 -3.55719586250000 
 N -2.72567979062501 -6.72570361875000 0.321098137500001 
 N -0.130271790625007 -3.35633861875000 -2.74041986250000 
 N -2.17154779062501 -2.28995461875000 -3.76518486250000 
 N -2.86545779062501 -3.12326361875000 -1.133986249999897E-002
 S -0.700539790625007 -6.87933961875000 -4.09392086250000 
 S -3.49063279062501 -6.09043661875000 -1.00609986250000 
 S -1.10861179062501 -7.29209561875000 -1.012862499998990E-003
 S -0.659059790625007 -2.77165861875000 -4.23207786250000 
 S -3.63667479062501 -2.39961161875000 -1.26168186250000 
 S -1.24222579062501 -3.59691261875000 -0.207545862499999 
