16

 C -2.27036613750000 -6.42145581562500 -2.27177507812500 
 C -1.00611213750000 -6.89680681562500 -1.82397007812500 
 C -2.66436813750000 -2.54202781562500 -2.48716107812500 
 C -1.54151613750000 -3.17592281562500 -1.80705807812500 
 N -1.442413749999982E-002 -6.89163381562500 -2.72382907812500 
 N -2.24190013750000 -6.10558981562500 -3.55950907812500 
 N -2.57307613750000 -6.68098381562500 0.234127921875001 
 N -0.500074137500000 -3.40977481562500 -2.56830407812500 
 N -2.42650513750000 -2.34823381562500 -3.76347907812500 
 N -3.33034413750000 -2.98266981562500 -2.412607812499923E-002
 S -0.738985137500000 -6.42395581562500 -4.14575907812500 
 S -3.49409413750000 -6.28564281562500 -1.09209707812500 
 S -1.00990313750000 -7.19686581562500 -0.105740078124999 
 S -0.903182137500000 -2.85030681562500 -4.15042207812500 
 S -4.04431813750000 -2.37773981562500 -1.41635307812500 
 S -1.71907313750000 -3.35362281562500 -9.597607812499920E-002
