16

 C -2.40660059375000 -6.43191565937500 -2.47774144375000 
 C -1.19554059375000 -6.82905065937500 -1.82818944375000 
 C -2.51215059375000 -2.49083965937500 -2.18850744375000 
 C -1.22076859375000 -2.97574965937500 -1.59250044375000 
 N -0.161499593749998 -7.03021665937500 -2.63362344375000 
 N -2.20854759375000 -6.20136765937500 -3.77036744375000 
 N -2.97878459375000 -6.55465465937500 7.159155624999802E-002
 N -0.235719593749998 -3.09725565937500 -2.50507144375000 
 N -2.50306459375000 -2.40153765937500 -3.53882144375000 
 N -2.94284759375000 -2.91931865937500 0.382925556249998 
 S -0.662627593749998 -6.63126265937500 -4.16292144375000 
 S -3.74413659375000 -6.11645765937500 -1.34617244375000 
 S -1.39520559375000 -7.08274865937500 -7.306544375000223E-002
 S -0.971832593749998 -2.83038665937500 -3.95583644375000 
 S -3.77139259375000 -2.37866565937500 -0.967120443750002 
 S -1.34845159375000 -3.38746365937500 0.114874556249998 
