16

 C -2.56909847187500 -6.59594489062500 -2.37133448437500 
 C -1.35347747187500 -7.02300189062499 -1.71550548437500 
 C -2.12641647187500 -2.87445289062499 -2.39087948437500 
 C -1.05936247187500 -3.50116489062500 -1.75300148437500 
 N -0.358160471874999 -7.20141089062500 -2.59020848437500 
 N -2.49235747187500 -6.38556389062500 -3.69012848437500 
 N -3.14284047187500 -6.60768589062500 0.167478515625000 
 N 6.188152812500025E-002 -3.69100889062500 -2.48142848437500 
 N -1.88510247187500 -2.60400889062500 -3.67835548437500 
 N -2.88082247187500 -3.31305789062499 6.435651562500011E-002
 S -0.948024471875000 -6.84733389062499 -4.10175848437500 
 S -3.90032647187500 -6.21752389062499 -1.28388748437500 
 S -1.58470447187500 -7.09971789062500 9.818515625000135E-003
 S -0.287252471874999 -3.02875889062499 -3.93948548437500 
 S -3.58199347187500 -2.81196889062500 -1.41693648437500 
 S -1.35204647187500 -3.91564189062500 -4.726848437499998E-002
