16

 C -2.79568590312500 -6.41668448750000 -2.48606100000000 
 C -1.59381490312500 -6.80213748750000 -1.77607400000000 
 C -2.32523490312500 -2.88960448750000 -2.23635300000000 
 C -1.10167090312500 -3.29760348750000 -1.62083400000000 
 N -0.532679903125003 -6.91174148750000 -2.58446600000000 
 N -2.62527590312500 -6.19844248750000 -3.80855900000000 
 N -3.36050590312500 -6.60211348750000 3.453700000000071E-002
 N -8.099590312500293E-002 -3.33314248750000 -2.47779300000000 
 N -2.20229190312500 -2.71945148750000 -3.54814000000000 
 N -2.85449090312500 -3.11876848750000 0.248680000000001 
 S -1.05039790312500 -6.46409148750000 -4.08453100000000 
 S -4.14837890312500 -6.08466748750000 -1.35615200000000 
 S -1.74700890312500 -6.99967548750000 -6.708999999999921E-002
 S -0.684430903125003 -3.15601848750000 -4.00156700000000 
 S -3.66385890312500 -2.85523748750000 -1.19123100000000 
 S -1.26375690312500 -3.48994948750000 0.117588000000001 
