16

 C -2.59477096250000 -6.52707970312500 -2.42643347812500 
 C -1.50538596250000 -7.05745170312500 -1.66551047812500 
 C -2.31809496250000 -2.79806870312500 -2.47663847812500 
 C -1.13975396250000 -3.20051870312500 -1.82642847812500 
 N -0.469009962499999 -7.33890470312500 -2.44370447812500 
 N -2.34095696250000 -6.34434970312500 -3.73500647812500 
 N -3.26560296250000 -6.45021170312500 6.295152187500141E-002
 N -0.109839962499999 -3.42396370312500 -2.59770047812500 
 N -2.12814596250000 -2.52976470312500 -3.75885147812500 
 N -3.00652496250000 -2.93895970312500 -6.630747812499860E-002
 S -0.816999962499999 -6.94899470312500 -3.99263547812500 
 S -3.91277296250000 -6.00533670312500 -1.44059747812500 
 S -1.70671796250000 -7.02317370312500 3.396952187500135E-002
 S -0.618622962499999 -2.99963670312500 -4.17244547812500 
 S -3.73473996250000 -2.59735270312500 -1.53385147812500 
 S -1.32696496250000 -3.35026770312500 -0.100312478124999 
