16

 C -2.64250653749999 -6.32850291250000 -2.50597178750000 
 C -1.37402653749999 -6.90442291250000 -2.09238778750000 
 C -2.69126653749999 -3.08332391250000 -2.34849378750000 
 C -1.49904753749999 -3.45473691250000 -1.59613978750000 
 N -0.422663537499995 -7.03932291250000 -3.03447078750000 
 N -2.73073753750000 -6.19660391250000 -3.80587278750000 
 N -2.89248753749999 -6.75463391250000 -9.482787500000311E-003
 N -0.428267537499995 -3.62664791250000 -2.34072578750000 
 N -2.45030553749999 -2.96246491250000 -3.64494178750000 
 N -3.37944753749999 -2.97822291250000 0.132777212500000 
 S -1.19224153749999 -6.48197091250000 -4.39374278750000 
 S -3.73821853749999 -6.04444891250000 -1.25628678750000 
 S -1.35760353749999 -7.16555791250000 -0.319562787500000 
 S -0.906155537499995 -3.41669891250000 -3.92972378750000 
 S -4.08656153749999 -2.70011591250000 -1.35114578750000 
 S -1.81369953749999 -3.35098691250000 7.769621249999958E-002
