16

 C -2.56589790000001 -6.64991396875001 -2.50052580937500 
 C -1.24602890000001 -7.07996596875001 -1.97695480937500 
 C -2.55247590000001 -2.66110596875001 -2.23782180937500 
 C -1.33354390000001 -3.12057596875001 -1.58454580937500 
 N -0.237769900000006 -7.14821796875001 -2.88412780937500 
 N -2.57231190000001 -6.48949296875001 -3.83618980937500 
 N -2.89748390000001 -6.73701296875001 -1.777180937500056E-002
 N -0.388563900000006 -3.40161696875001 -2.44119480937500 
 N -2.56745790000001 -2.64631496875001 -3.56065380937500 
 N -3.12439590000001 -2.99000396875001 0.253298190625000 
 S -1.04754690000001 -6.81980496875001 -4.30370380937500 
 S -3.78747690000001 -6.40797996875001 -1.32418680937500 
 S -1.20591290000001 -7.05636096875001 -0.178869809375000 
 S -1.00659790000001 -3.05508096875001 -3.95785180937500 
 S -3.87636690000001 -2.54241396875001 -1.12930780937500 
 S -1.57812690000001 -3.64580696875001 7.171119062499964E-002
