16

 C -2.66320064375000 -6.38459267187500 -2.56931290937500 
 C -1.48772164375000 -6.96443767187500 -1.92748690937500 
 C -2.24173664375000 -2.85445367187500 -2.39351690937500 
 C -1.02753564375000 -3.27435467187500 -1.80639990937500 
 N -0.395903643750001 -7.02605467187500 -2.70362290937500 
 N -2.47236864375000 -6.13685067187500 -3.84948890937500 
 N -3.35476264375000 -6.70298167187500 -8.283690937500121E-002
 N -1.104643750000633E-003 -3.44507067187500 -2.62559890937500 
 N -2.19885664375000 -2.68999267187500 -3.71721390937500 
 N -2.73583464375000 -3.15624767187500 0.153212090624999 
 S -0.891436643750001 -6.58456167187500 -4.23696290937500 
 S -4.03889464375000 -6.34550667187500 -1.52653790937500 
 S -1.82990664375000 -7.30828467187500 -0.133753909375001 
 S -0.619392643750000 -3.04012267187500 -4.09560190937500 
 S -3.61380964375000 -2.71760267187500 -1.23606590937500 
 S -1.17208164375000 -3.58769967187500 -0.101556909375001 
