16

 C -2.65036750312500 -6.24967480000001 -2.69451529375000 
 C -1.43693250312500 -6.66529280000001 -2.07098429375000 
 C -2.48955950312500 -2.84759780000001 -2.47149629375000 
 C -1.17636650312500 -3.14232480000001 -1.83142329375000 
 N -0.391106503125004 -6.69769880000001 -2.91721829375000 
 N -2.58079150312500 -6.11276580000001 -4.00851429375000 
 N -3.31449550312500 -6.93198280000001 -0.297222293750000 
 N -0.198536503125004 -3.22471680000001 -2.72230729375000 
 N -2.38979950312500 -2.65712780000001 -3.80324629375000 
 N -2.86308950312500 -2.96629380000001 6.666470625000054E-002
 S -0.976091503125003 -6.27937480000001 -4.38946329375000 
 S -4.02444350312500 -6.23190880000001 -1.59551029375000 
 S -1.67433050312500 -6.94390480000001 -0.343439293749999 
 S -0.804597503125003 -3.01054080000001 -4.21524729375000 
 S -3.73273550312500 -2.66916280000001 -1.26963729375000 
 S -1.21456650312500 -3.16792480000001 -0.117749293749999 
