16

 C -2.44497913125001 -6.40776153124999 -2.58762693125000 
 C -1.24559413125001 -6.83006553124999 -1.87440593125000 
 C -2.72480913125001 -2.85032553124999 -2.47590393125000 
 C -1.59100813125001 -3.49371053125000 -1.87181593125000 
 N -0.174534131250011 -6.97421953124999 -2.64329293125000 
 N -2.24204613125001 -6.25996253124999 -3.90583093125000 
 N -3.14452913125001 -6.65940853125000 -6.355793125000186E-002
 N -0.556820131250011 -3.71610853125000 -2.66219893125000 
 N -2.61276913125001 -2.67647253124999 -3.76834393125000 
 N -3.37641913125001 -3.22869853124999 -4.095493125000171E-002
 S -0.652130131250011 -6.68969853125000 -4.22509493125000 
 S -3.89534413125001 -6.28274353125000 -1.52955593125000 
 S -1.56844613125001 -7.15595053124999 -0.129963931250002 
 S -1.03204613125001 -3.10840953125000 -4.13122393125000 
 S -4.02455413125001 -2.55566253124999 -1.40372893125000 
 S -1.81640713125001 -3.84815853124999 -0.222252931250002 
