16

 C -2.71881856250001 -6.48446598437500 -2.33933476875000 
 C -1.49586356250001 -6.95268998437500 -1.74101476875000 
 C -2.46333456250001 -3.24353898437500 -2.41995876875000 
 C -1.15014356250001 -3.24551098437500 -1.81466576875000 
 N -0.497563562500008 -7.28428398437500 -2.55666276875000 
 N -2.66479156250001 -6.38596898437500 -3.66175576875000 
 N -3.22150856250001 -6.53819498437500 0.175712231250003 
 N -0.210436562500008 -3.21930098437500 -2.76422376875000 
 N -2.53972156250001 -3.07783198437500 -3.73681176875000 
 N -2.84237856250001 -3.07587098437500 0.164111231250003 
 S -1.07628056250001 -6.89335498437500 -4.09870276875000 
 S -3.97793856250001 -6.16099598437500 -1.19337976875000 
 S -1.59033156250001 -6.88914198437500 4.373523125000345E-002
 S -0.926854562500008 -3.20991298437500 -4.21006376875000 
 S -3.75242656250001 -3.12748998437500 -1.20377776875000 
 S -1.15755956250001 -3.25620398437500 -6.923076874999667E-002
