16

 C -2.11741620312500 -6.51496468750000 -2.30489124687500 
 C -0.931094203124997 -6.98048568750000 -1.67920324687500 
 C -2.54879420312500 -2.63749768750000 -2.46671224687500 
 C -1.32596820312500 -2.90193668750000 -1.85542124687500 
 N 9.663179687500367E-002 -7.06753168750000 -2.50869224687500 
 N -2.02677220312500 -6.35252668750000 -3.62369124687500 
 N -2.63931020312500 -6.76371968750000 0.236342753124999 
 N -0.268078203124997 -3.14036468750000 -2.67631524687500 
 N -2.49187920312500 -2.47399868750000 -3.80474124687500 
 N -3.06344320312500 -2.71564468750000 8.582475312499871E-002
 S -0.487375203124997 -6.80708668750000 -4.02440424687500 
 S -3.44813620312500 -6.40403868750000 -1.14256024687500 
 S -1.06333920312500 -7.21590868750000 3.018175312499860E-002
 S -0.948067203124997 -2.77605868750000 -4.17570024687500 
 S -3.86945320312500 -2.43875168750000 -1.33601824687500 
 S -1.45520920312500 -3.02073368750000 -8.644224687500124E-002
