16

 C -2.54459973125000 -6.50489724375000 -2.40480256250000 
 C -1.35962873125000 -6.96012324375000 -1.78109356250000 
 C -2.56747773125000 -2.69106724375000 -2.54712856250000 
 C -1.34341273125000 -3.19277624375000 -1.84725756250000 
 N -0.346120731250001 -7.18258324375000 -2.61682456250000 
 N -2.40919373125000 -6.25642324375000 -3.72309556250000 
 N -3.07645073125000 -6.87015724375000 9.290843750000088E-002
 N -0.217360731250001 -3.30573424375000 -2.56578856250000 
 N -2.31352273125000 -2.53210324375000 -3.85339456250000 
 N -3.19772673125000 -2.93361924375000 -4.563956249999901E-002
 S -0.840164731250001 -6.71372124375000 -4.08917756250000 
 S -3.90218973125000 -6.44863424375000 -1.30051656250000 
 S -1.46082673125000 -7.18160324375000 -9.261956249999903E-002
 S -0.768893731250001 -2.94914724375000 -4.13412056250000 
 S -3.96922573125000 -2.62331924375000 -1.51638356250000 
 S -1.57037473125000 -3.30768424375000 -0.106758562499999 
