16

 C -2.45446604062501 -6.35414126250000 -2.52761814375000 
 C -1.27131104062501 -6.83776126250000 -1.84022914375000 
 C -2.38281504062501 -2.56014526250000 -2.49509014375000 
 C -1.34296104062501 -3.29347726250000 -1.83186714375000 
 N -0.209038040625008 -7.05224526250000 -2.58613114375000 
 N -2.25752404062501 -6.18551026250000 -3.81474914375000 
 N -3.21246204062501 -6.76754526250000 -0.135068143750000 
 N -0.306461040625008 -3.58223626250000 -2.57438214375000 
 N -2.14840104062501 -2.28338826250000 -3.77741814375000 
 N -2.99594204062501 -2.77711926250000 5.197785624999973E-002
 S -0.642914040625008 -6.55605526250000 -4.17998114375000 
 S -3.84240704062501 -6.12897826250000 -1.56635414375000 
 S -1.60168404062501 -7.03656326250000 -9.700614375000027E-002
 S -0.688145040625008 -3.07552626250000 -4.11355314375000 
 S -3.64166404062501 -2.23246326250000 -1.35666914375000 
 S -1.41885404062501 -3.36027826250000 -0.112580143750000 
