16

 C -2.37513727187500 -6.47612114062500 -2.38830530000000 
 C -1.23846427187500 -6.91836114062500 -1.66887230000000 
 C -2.21295427187500 -2.46483514062500 -2.06054230000000 
 C -1.10172227187500 -3.27147914062500 -1.70883630000000 
 N -0.166597271875002 -7.11532014062500 -2.43712130000000 
 N -2.21373827187500 -6.24963314062500 -3.72471530000000 
 N -2.99985927187500 -6.62051314062500 0.224479699999998 
 N -0.161402271875002 -3.42298014062500 -2.66930330000000 
 N -2.11299727187500 -1.93344714062500 -3.27034730000000 
 N -2.86295727187500 -3.36964414062500 0.248127699999998 
 S -0.594277271875002 -6.71509714062500 -4.03205030000000 
 S -3.76507327187500 -6.22543514062500 -1.22540430000000 
 S -1.43331427187500 -6.99210714062500 1.180269999999828E-002
 S -0.635129271875003 -2.42748214062500 -3.86571530000000 
 S -3.56716427187500 -2.53513414062500 -1.04460930000000 
 S -1.24124827187500 -3.78102514062500 2.692569999999828E-002
