16

 C -2.58973769687499 -6.60036500937500 -2.24316020937500 
 C -1.29208369687499 -6.80628800937500 -1.60859320937500 
 C -2.39374369687499 -2.70548600937500 -2.45696620937500 
 C -1.21254469687499 -3.27442200937500 -1.72137620937500 
 N -0.219316696874995 -6.86397600937500 -2.43704020937500 
 N -2.52169369687500 -6.52395200937501 -3.57349620937500 
 N -3.18524169687499 -6.87403600937501 0.210549790625000 
 N -0.161958696874994 -3.37445500937500 -2.49794120937500 
 N -2.13377769687499 -2.44011600937500 -3.70792820937500 
 N -3.12621869687499 -3.06257500937500 -1.713320937499985E-002
 S -0.902406696874995 -6.68532500937500 -3.99913320937500 
 S -3.96515069687499 -6.71947700937501 -1.22199420937500 
 S -1.53566469687499 -7.17469500937500 0.102992790625000 
 S -0.537877696874995 -2.93345900937500 -4.04252320937500 
 S -3.65643369687499 -2.28486500937500 -1.37786420937500 
 S -1.55571269687499 -3.60596700937500 -0.104608209375000 
