16

 C -2.55583300312500 -6.55560437187500 -2.45921209687500 
 C -1.35031900312500 -7.00346037187500 -1.88311909687500 
 C -2.60213400312500 -2.76572037187499 -2.53462509687500 
 C -1.39803100312500 -3.13103737187499 -1.81793809687500 
 N -0.344948003125003 -7.06990737187499 -2.76344609687500 
 N -2.48017700312500 -6.31371137187499 -3.78581809687500 
 N -2.99515200312500 -6.97914837187500 6.960490312499878E-002
 N -0.370999003125003 -3.43640237187499 -2.60299109687500 
 N -2.38793800312500 -2.68772937187499 -3.82185209687500 
 N -3.23649100312500 -2.76679537187499 -3.718109687500126E-002
 S -0.932429003125002 -6.62760237187499 -4.25623009687500 
 S -3.86674400312500 -6.46486737187499 -1.26074009687500 
 S -1.35475400312500 -7.23566437187499 -0.176922096875001 
 S -0.762199003125002 -3.09684037187500 -4.15282209687500 
 S -3.90363900312500 -2.42845537187500 -1.52208609687500 
 S -1.67981200312500 -3.26327537187499 -8.931009687500135E-002
