16

 C -2.62048696875000 -6.66588791562500 -2.41640962500000 
 C -1.42724796875000 -7.22091691562500 -1.77152662500000 
 C -2.51877496875000 -2.55161691562500 -2.40601562500000 
 C -1.39763496875000 -3.22459291562500 -1.77187662500000 
 N -0.364015968750001 -7.59423491562500 -2.50068362500000 
 N -2.37723896875000 -6.51282291562501 -3.73194862500000 
 N -3.06760296875000 -6.60961891562500 0.179611374999999 
 N -0.404832968750001 -3.50741491562500 -2.58950862500000 
 N -2.32561596875000 -2.32840491562500 -3.68673562500000 
 N -3.20005496875000 -2.85746991562500 5.852037499999940E-002
 S -0.814470968750001 -7.03773291562500 -3.98557362500000 
 S -3.81062296875000 -6.10632991562500 -1.31599162500000 
 S -1.52782696875000 -7.22079491562500 -2.541062500000080E-002
 S -0.909659968750001 -3.03192591562500 -4.09655462500000 
 S -3.89464196875000 -2.33295891562500 -1.34759262500000 
 S -1.61117096875000 -3.32548291562500 -0.105840625000001 
