16

 C -2.45575727812500 -6.46557654687500 -2.33247294062500 
 C -1.20333427812500 -6.89868254687500 -1.72455294062500 
 C -2.35524327812500 -3.01693154687500 -2.20516394062500 
 C -1.06553727812500 -3.36420254687500 -1.72511694062500 
 N -0.187376278124998 -7.02696054687500 -2.58446994062500 
 N -2.40692527812500 -6.35521154687500 -3.66378094062500 
 N -2.90728527812500 -6.72877554687500 8.920705937499807E-002
 N -8.220627812499792E-002 -3.44253154687500 -2.61220794062500 
 N -2.37598627812500 -2.74928154687500 -3.52158194062500 
 N -2.64495827812500 -3.36729254687500 0.351864059374998 
 S -0.842237278124998 -6.62308154687500 -4.07356694062500 
 S -3.72455327812500 -6.34861954687500 -1.27475794062500 
 S -1.23949327812500 -7.01986954687500 1.851005937499806E-002
 S -0.868485278124998 -3.11388554687500 -4.07135494062500 
 S -3.61427027812500 -3.12201254687500 -0.986171940625002 
 S -1.01152127812500 -3.56167154687500 -5.544940625001882E-003
