16

 C -2.45476587812500 -6.66210383437501 -2.41655493437500 
 C -1.16737087812500 -6.93926683437501 -1.78726093437500 
 C -2.43423487812500 -2.81893183437501 -2.46102893437500 
 C -1.21103587812500 -3.09093883437501 -1.64301593437500 
 N -7.687287812500099E-002 -6.88039583437501 -2.54234493437500 
 N -2.27466187812500 -6.44985083437501 -3.73142293437500 
 N -2.91852287812500 -7.11755683437501 0.105289065625000 
 N -0.136369878125000 -3.23256083437501 -2.39530993437500 
 N -2.18840187812500 -2.73725983437501 -3.77018193437500 
 N -3.11086687812500 -2.68706483437501 5.678906562500008E-002
 S -0.648576878125001 -6.53850883437501 -4.09333993437500 
 S -3.77680787812500 -6.55545983437501 -1.27862593437500 
 S -1.25700687812500 -7.30260083437501 -7.637293437500015E-002
 S -0.527796878125001 -3.06522883437501 -3.96084193437500 
 S -3.81631887812500 -2.42001183437501 -1.50837493437500 
 S -1.53573787812500 -3.19973183437501 3.575606562500000E-002
