16

 C -2.61429937500000 -6.45285017500000 -2.31630510000000 
 C -1.40419837500000 -6.90728317500000 -1.68157010000000 
 C -2.45636637500000 -2.93306917500000 -2.44477910000000 
 C -1.16308037500000 -3.35541917500000 -1.78693510000000 
 N -0.418334374999997 -7.12024417500000 -2.54275910000000 
 N -2.55029037500000 -6.27940617500000 -3.64451610000000 
 N -3.14514637500000 -6.47087017500000 0.209675899999999 
 N -0.180664374999997 -3.53417517500000 -2.66208110000000 
 N -2.37758137500000 -2.74781917500000 -3.76906210000000 
 N -2.82344737500000 -2.94989817500000 0.136751899999999 
 S -0.986568374999997 -6.73529817500000 -4.07891310000000 
 S -3.90428637500000 -6.11044717500000 -1.24771510000000 
 S -1.61303837500000 -7.12809317500000 8.115689999999942E-002
 S -0.780272374999997 -3.11020717500000 -4.18236210000000 
 S -3.68702137500000 -2.55441717500000 -1.27975410000000 
 S -1.21207637500000 -3.34508317500000 -5.440110000000065E-002
