16

 C -2.21233557812500 -6.27039640937500 -2.40920827187500 
 C -1.03986257812500 -6.82340340937500 -1.78975627187500 
 C -2.54379157812500 -3.02034240937500 -2.45587627187500 
 C -1.30774457812500 -3.14298940937500 -1.71045127187500 
 N -4.112557812499773E-002 -6.97170740937499 -2.64265127187500 
 N -2.17866857812500 -6.19335440937500 -3.72378527187500 
 N -2.85224257812500 -6.84032540937500 7.580772812499736E-002
 N -0.203300578124997 -3.24009540937500 -2.48464327187500 
 N -2.40507757812500 -3.01966240937500 -3.80439527187500 
 N -3.12031157812500 -2.71597240937500 6.982072812499740E-002
 S -0.648802578124998 -6.64560440937499 -4.22311627187500 
 S -3.59789457812500 -6.12713640937500 -1.30021627187500 
 S -1.31204257812500 -7.25169940937499 -9.715827187500259E-002
 S -0.766848578124997 -3.09743340937499 -4.07355527187500 
 S -3.83705557812500 -2.69350040937500 -1.44027927187500 
 S -1.49320257812500 -3.03296440937500 2.646472812499745E-002
