16

 C -2.59042954062501 -6.43113375000000 -2.50519349062500 
 C -1.43859754062501 -6.88542575000000 -1.74517849062500 
 C -2.44044054062501 -2.97233875000000 -2.37356249062500 
 C -1.18673254062501 -3.13851075000000 -1.67276549062500 
 N -0.358061540625007 -7.20022475000000 -2.49387649062500 
 N -2.41435954062501 -6.45104675000000 -3.84206349062500 
 N -3.21525954062501 -6.22936675000000 -1.497749062499931E-002
 N -0.152144540625008 -3.37328175000000 -2.49803549062500 
 N -2.34017754062501 -2.99865675000000 -3.69751349062500 
 N -3.03142054062501 -3.08459675000000 0.175243509375001 
 S -0.849526540625007 -6.93097275000000 -4.04421949062500 
 S -3.89428854062501 -5.81787475000000 -1.53642349062500 
 S -1.66376454062501 -6.70286475000000 -2.356049062499932E-002
 S -0.751702540625008 -3.16884675000000 -4.04059549062500 
 S -3.81139854062501 -2.77434475000000 -1.28768449062500 
 S -1.41980554062501 -3.44701775000000 3.323050937500072E-002
