16

 C -2.48399332500000 -6.45692726250001 -2.20566332500000 
 C -1.22034632500000 -6.93140726250001 -1.74963932500000 
 C -2.53544432500000 -2.77732126250001 -2.51441632500000 
 C -1.39161932500001 -3.39988826250001 -1.78555832500000 
 N -0.191044325000004 -7.03460626250001 -2.60776932500000 
 N -2.43577332500000 -6.18721826250001 -3.51723632500000 
 N -2.85264332500000 -7.05278026250001 0.298611675000001 
 N -0.325764325000005 -3.62834926250001 -2.54395232500000 
 N -2.34117832500000 -2.60096126250001 -3.83589232500000 
 N -3.27878832500000 -3.08216026250001 -3.878432499999951E-002
 S -0.865104325000004 -6.55347226250001 -4.03973332500000 
 S -3.72703932500001 -6.36784626250001 -0.966025324999999 
 S -1.18996432500000 -7.37623526250001 -3.644532499999942E-002
 S -0.779505325000005 -3.15676026250001 -4.06050232500000 
 S -3.83062732500000 -2.38836526250001 -1.41767032500000 
 S -1.68614432500000 -3.60932526250001 -3.325032499999936E-002
