16

 C -2.45271535937501 -6.52593340937500 -2.38593755312500 
 C -1.14649635937501 -6.82806140937500 -1.75744655312500 
 C -2.61754535937501 -2.61880740937500 -2.43994655312500 
 C -1.41144635937501 -3.18060540937500 -1.79130455312500 
 N -0.134456359375007 -7.01651240937500 -2.60385455312500 
 N -2.35495135937501 -6.56834540937500 -3.70408955312500 
 N -2.82104735937501 -6.64069040937500 0.141441446874999 
 N -0.387253359375007 -3.44146740937500 -2.60255655312500 
 N -2.42822635937501 -2.44899140937500 -3.76095555312500 
 N -3.12481335937501 -2.82582240937500 0.138209446874999 
 S -0.769987359375007 -6.85499340937500 -4.11882755312500 
 S -3.76184535937501 -6.33981140937500 -1.23974455312500 
 S -1.22666935937501 -7.07681140937500 -1.742455312500057E-002
 S -0.955298359375007 -2.99887640937500 -4.13836055312500 
 S -3.94709735937501 -2.29549540937500 -1.30248555312500 
 S -1.60002835937501 -3.51912340937500 -0.101113553125001 
