16

 C -2.36184736562500 -6.92981724687500 -2.40322505000000 
 C -1.16574236562500 -7.32151924687500 -1.73139105000000 
 C -2.82274536562500 -2.95589624687500 -2.32238905000000 
 C -1.72633636562500 -3.56793724687500 -1.73946105000000 
 N -4.718936562500353E-002 -7.53701124687500 -2.43904205000000 
 N -2.11299936562500 -6.80640624687500 -3.69417505000000 
 N -2.96908436562500 -6.80285624687500 0.101025949999998 
 N -0.795794365625003 -3.93334224687500 -2.61525405000000 
 N -2.79114636562500 -2.85028324687500 -3.65391805000000 
 N -3.41139136562500 -3.22164524687500 0.161821949999998 
 S -0.521262365625003 -7.10729024687500 -4.00424505000000 
 S -3.68545936562500 -6.50579524687500 -1.38993005000000 
 S -1.41571136562500 -7.34352224687500 4.157094999999833E-002
 S -1.29093336562500 -3.42919424687500 -4.05750605000000 
 S -4.14028236562500 -2.62272524687500 -1.19909005000000 
 S -1.86978936562500 -3.75615724687500 -0.104528050000002 
