16

 C -2.60557910312500 -6.15903231250000 -2.69520152187500 
 C -1.35702510312500 -6.54264931250000 -2.04336552187500 
 C -2.42118510312500 -2.71639231250000 -2.52139752187500 
 C -1.17422810312500 -2.96415031250000 -1.85608452187500 
 N -0.300961103125002 -6.66661931250000 -2.84150752187500 
 N -2.44152010312500 -5.97986731250000 -4.02241652187500 
 N -3.21929010312500 -6.70737131250000 -0.251464521875001 
 N -0.155018103125002 -3.22736331250000 -2.69329252187500 
 N -2.38302010312500 -2.65142831250000 -3.85285352187500 
 N -3.00168910312500 -2.82249331250000 -3.545052187500075E-002
 S -0.864522103125002 -6.41811231250000 -4.34855652187500 
 S -3.95815510312500 -6.18915331250000 -1.67742452187500 
 S -1.52783810312500 -6.94843631250000 -0.327757521875001 
 S -0.787202103125002 -2.96400831250000 -4.18192352187500 
 S -3.84089510312500 -2.71864931250000 -1.41054152187500 
 S -1.37491710312500 -3.16537231250000 -0.140614521875001 
