16

 C -2.29072497812500 -6.58397957187500 -2.30106265000000 
 C -0.934615978125003 -6.80796657187500 -1.86954365000000 
 C -2.58111897812500 -2.84256257187500 -2.36655365000000 
 C -1.35368097812500 -3.34246857187500 -1.70766265000000 
 N -1.633997812500354E-002 -6.94169657187500 -2.80815065000000 
 N -2.36593397812500 -6.45464057187500 -3.60852565000000 
 N -2.38274097812500 -6.91947757187500 0.276401349999998 
 N -0.358884978125003 -3.46448657187500 -2.57439465000000 
 N -2.45380697812500 -2.65346557187500 -3.67093065000000 
 N -3.09149997812500 -2.91917257187500 0.129924349999998 
 S -0.831413978125003 -6.74076057187500 -4.26767665000000 
 S -3.44414097812500 -6.75183157187500 -0.986888650000002 
 S -0.828996978125003 -7.22673057187500 -0.204155650000002 
 S -0.868036978125003 -3.10567857187500 -4.09370265000000 
 S -3.83846497812500 -2.48305357187500 -1.29684065000000 
 S -1.57360197812500 -3.45781457187500 -5.093165000000188E-002
