16

 C -2.49385308125000 -6.34960832187500 -2.39436779062500 
 C -1.22828408125000 -6.80031432187500 -1.82304079062500 
 C -2.47611708125000 -2.47654932187500 -2.32741779062500 
 C -1.30158108125000 -3.02754532187500 -1.71844079062500 
 N -0.189568081250003 -6.94401432187500 -2.69849079062500 
 N -2.34073708125000 -5.99362232187500 -3.68834479062500 
 N -2.96514808125000 -6.36314832187500 9.051420937499977E-002
 N -0.316700081250002 -3.25947532187500 -2.56589479062500 
 N -2.38823508125000 -2.41761532187500 -3.63648479062500 
 N -3.12416908125000 -2.66194932187500 0.144530209375000 
 S -0.838606081250003 -6.46013932187500 -4.16497279062500 
 S -3.75778908125000 -6.05808732187500 -1.35789179062500 
 S -1.48312308125000 -7.00756832187500 -6.116479062500035E-002
 S -0.815721081250002 -2.77805632187500 -4.08236179062500 
 S -3.71888808125000 -1.95215232187500 -1.21741779062500 
 S -1.54747308125000 -3.23675632187500 -3.806579062500037E-002
