16

 C -2.44615550000000 -6.78600636250000 -2.39424698125000 
 C -1.17989850000000 -7.00893036250000 -1.71607898125000 
 C -2.17155250000000 -2.79503036250000 -2.43496898125000 
 C -1.00832850000000 -3.26826636250000 -1.71528298125000 
 N -0.173557500000000 -6.91305436250000 -2.56270398125000 
 N -2.44766250000000 -6.51898236250000 -3.69353998125000 
 N -2.99826350000000 -7.07915936250000 0.125027018749998 
 N 9.124949999999998E-002 -3.48016136250000 -2.41918798125000 
 N -1.96504650000000 -2.84581136250000 -3.75206998125000 
 N -2.83954050000000 -3.07969036250000 4.246901874999831E-002
 S -0.820266500000001 -6.52348736250000 -4.08381198125000 
 S -3.82191450000000 -6.82777736250000 -1.33624198125000 
 S -1.35410150000000 -7.23009136250000 -3.655098125000178E-002
 S -0.315915500000000 -3.13954736250000 -3.95500998125000 
 S -3.52770650000000 -2.58511436250000 -1.42304198125000 
 S -1.31194550000000 -3.60516036250000 -1.840981250001761E-003
