16

 C -2.22290619374999 -6.27319616562500 -2.40089009375000 
 C -1.04383319374999 -6.82334116562500 -1.79020809375000 
 C -2.53768019374999 -3.00382316562500 -2.45962909375000 
 C -1.31482819374999 -3.13360016562500 -1.71475709375000 
 N -3.950719374999245E-002 -6.96122716562500 -2.64611409375000 
 N -2.17714919374999 -6.19579916562500 -3.71780809375000 
 N -2.85297619374999 -6.82753016562500 7.108390624999972E-002
 N -0.207361193749992 -3.24327616562500 -2.48561609375000 
 N -2.40310219374999 -3.01555116562500 -3.80997809375000 
 N -3.12742619374999 -2.71917616562500 6.471890624999976E-002
 S -0.644544193749992 -6.64568816562500 -4.22690209375000 
 S -3.59932819374999 -6.12784516562500 -1.30467309375000 
 S -1.30961319374999 -7.25223816562500 -9.679509375000017E-002
 S -0.767129193749992 -3.09449516562500 -4.06976809375000 
 S -3.83192319374999 -2.69410416562500 -1.44312509375000 
 S -1.50305819374999 -3.03380816562500 2.407090624999975E-002
