16

 C -2.26622193750000 -6.46008556875000 -2.30222767187500 
 C -1.05690693750000 -7.12196456875000 -1.77055267187500 
 C -2.24521793750000 -2.70124456875000 -2.43217367187500 
 C -1.06828593750000 -3.14894256875000 -1.71357067187500 
 N -0.104300937500000 -7.36939056875000 -2.68796067187500 
 N -2.14348693750000 -6.25240556875000 -3.60047567187500 
 N -2.58743493750000 -6.58276456875000 0.201996328124999 
 N -5.470893750000005E-002 -3.37785756875000 -2.53972167187500 
 N -2.08226993750000 -2.44993456875000 -3.71170367187500 
 N -2.93228893750000 -2.91600956875000 -2.414671875001106E-003
 S -0.696439937500000 -6.75101056875000 -4.11706067187500 
 S -3.47116593750000 -6.07831756875000 -1.13068167187500 
 S -1.15738393750000 -7.34223656875000 -3.897167187500106E-002
 S -0.474146937500000 -2.84528956875000 -4.03827167187500 
 S -3.66639693750000 -2.37677956875000 -1.46024867187500 
 S -1.37903293750000 -3.45774256875000 -3.590967187500094E-002
