16

 C -2.34074278125000 -6.26636661875000 -2.59983441250000 
 C -1.20753278125000 -6.84121461875000 -1.92176841250000 
 C -2.22959278125000 -2.91278461875000 -2.33720241250000 
 C -1.06602378125000 -3.46578061875000 -1.85188641250000 
 N -0.134086781249996 -7.06704661875000 -2.68971741250000 
 N -2.07069278125000 -6.00902461875000 -3.89245441250000 
 N -3.00597378125000 -6.62757561875000 -7.338141249999985E-002
 N -0.131738781249996 -3.61999661875000 -2.77219441250000 
 N -2.17954378125000 -2.52743161875000 -3.59633241250000 
 N -2.60982278125000 -3.29448761875000 0.178068587500000 
 S -0.547626781249996 -6.56926661875000 -4.21452841250000 
 S -3.68645878125000 -6.01477761875000 -1.46041941250000 
 S -1.39627478125000 -7.11462661875000 -0.176500412500000 
 S -0.657557781249996 -2.89430561875000 -4.12044741250000 
 S -3.43995578125000 -2.84771761875000 -1.14771541250000 
 S -1.06622578125000 -3.81691961875000 -0.150748412500000 
