16

 C -2.40952655000000 -6.39037833437500 -2.27668581875000 
 C -1.11678255000000 -6.77618333437500 -1.75231981875000 
 C -2.54972555000000 -2.70990833437500 -2.41008781875000 
 C -1.44769955000000 -3.37369133437500 -1.72565981875000 
 N -0.148014549999999 -6.93335433437500 -2.64543881875000 
 N -2.35834655000000 -6.08758833437500 -3.56592281875000 
 N -2.83599455000000 -6.80542633437500 0.171217181249999 
 N -0.437956549999999 -3.71426933437500 -2.51233781875000 
 N -2.26692155000000 -2.50200233437500 -3.66142981875000 
 N -3.29468055000000 -2.93927033437500 -1.189381875000106E-002
 S -0.856953549999999 -6.52275733437500 -4.07974481875000 
 S -3.69001155000000 -6.45315033437500 -1.20522981875000 
 S -1.26530855000000 -7.24702633437500 -3.440781875000121E-002
 S -0.755576549999999 -3.12684233437500 -4.01976781875000 
 S -3.98343855000000 -2.55402633437500 -1.47114681875000 
 S -1.73721755000000 -3.59119533437500 -9.374881875000129E-002
