16

 C -2.50836789062500 -6.62765206562500 -2.43233259687500 
 C -1.40603489062500 -7.20597606562499 -1.73426259687500 
 C -2.55873489062500 -2.62166806562500 -2.41304959687500 
 C -1.43415389062500 -3.25209906562500 -1.77943559687500 
 N -0.389277890625003 -7.47671906562500 -2.53954259687500 
 N -2.37210189062500 -6.38580906562500 -3.74088759687500 
 N -3.08359089062500 -6.59542306562500 0.128142403124999 
 N -0.431476890625003 -3.68054906562500 -2.58756459687500 
 N -2.39833189062500 -2.42228806562500 -3.73043159687500 
 N -3.17167989062500 -2.76724506562500 7.626340312499869E-002
 S -0.875123890625003 -7.01574306562500 -4.05754559687500 
 S -3.79200489062500 -6.11979806562500 -1.26817459687500 
 S -1.56102789062500 -7.22567206562500 -5.917959687500129E-002
 S -0.894466890625004 -3.04376106562500 -4.05849659687500 
 S -3.93827089062500 -2.36599306562500 -1.37260459687500 
 S -1.61070689062500 -3.33410406562500 -3.600459687500135E-002
