16

 C -2.58833648750001 -6.47696833125000 -2.21250676875000 
 C -1.32798548750001 -6.93693633125000 -1.57491476875000 
 C -2.46799148750001 -2.93967833125000 -2.25295476875000 
 C -1.23355248750001 -3.29193333125000 -1.62780776875000 
 N -0.332780487500007 -7.03946233125000 -2.44858876875000 
 N -2.46713448750001 -6.20262933125000 -3.50804976875000 
 N -3.05767948750001 -6.61300333125000 0.302027231250003 
 N -0.197525487500007 -3.39529633125000 -2.47504076875000 
 N -2.40510048750001 -2.86972333125000 -3.57980276875000 
 N -2.96658148750001 -3.10068733125000 0.319633231250003 
 S -0.945417487500007 -6.56881633125000 -3.90645476875000 
 S -3.95717748750001 -6.18500333125000 -1.14042576875000 
 S -1.47984448750001 -7.10601333125000 9.209023125000249E-002
 S -0.801603487500007 -3.28635333125000 -4.01348476875000 
 S -3.76829148750001 -2.81085233125000 -1.10181776875000 
 S -1.34828948750001 -3.32672333125000 0.136033231250003 
