16

 C -2.37014754375000 -6.53980374375000 -2.48578355937500 
 C -1.23361654375000 -7.01247274375000 -1.74823955937500 
 C -2.34118454375000 -2.88277774375000 -2.52705755937500 
 C -1.20231154375000 -3.38530774375000 -1.85744855937500 
 N -9.445954375000287E-002 -7.19193674375000 -2.42396855937500 
 N -2.09008754375000 -6.40919574375000 -3.78365855937500 
 N -3.15122954375000 -6.82393874375000 -3.115555937500014E-002
 N -8.097354375000254E-002 -3.46555374375000 -2.58827855937500 
 N -2.23108354375000 -2.73642774375000 -3.83088055937500 
 N -2.96978654375000 -3.11698574375000 -9.280455937500021E-002
 S -0.527106543750003 -6.86757874375000 -3.97297155937500 
 S -3.75304354375000 -6.31435074375000 -1.47657355937500 
 S -1.58198054375000 -7.32546074375000 -9.372455937500002E-002
 S -0.660503543750003 -3.10456274375000 -4.17406755937500 
 S -3.68246154375000 -2.67873674375000 -1.48264555937500 
 S -1.40786854375000 -3.67155174375000 -0.217968559375000 
