16

 C -2.43051640312499 -6.22462866250000 -2.44601673437500 
 C -1.17182840312499 -6.64694666250000 -1.76531973437500 
 C -2.32367840312499 -2.90753666250000 -2.50973473437500 
 C -1.03962240312499 -3.22359466250000 -1.86928773437500 
 N -0.228357403124995 -6.98234166250000 -2.62052273437500 
 N -2.32951040312499 -6.12326666250000 -3.74832673437500 
 N -2.97728440312499 -6.38608866250000 2.877526562499999E-002
 N -4.568940312499414E-002 -3.38397266250000 -2.75312373437500 
 N -2.20709040312499 -2.85693966250000 -3.81925873437500 
 N -2.88615540312499 -3.11947066250000 -9.826734375000035E-003
 S -0.803807403124995 -6.54257866250000 -4.11793773437500 
 S -3.83888940312499 -5.96424166250000 -1.41936073437500 
 S -1.38790140312499 -6.70022766250000 -8.351673437500007E-002
 S -0.623807403124995 -3.10638266250000 -4.25361573437500 
 S -3.67504440312499 -2.91650466250000 -1.43521073437500 
 S -1.21671340312500 -3.47696766250000 -8.412273437500017E-002
