16

 C -2.22437438437500 -6.37614830000000 -2.55642213125000 
 C -1.03715638437500 -6.71566830000000 -1.82998913125000 
 C -2.38316038437500 -2.88018830000000 -2.49247513125000 
 C -1.11042638437500 -3.29534330000000 -1.89473513125000 
 N 7.833615625004064E-003 -7.00809730000000 -2.64635013125000 
 N -2.03412638437500 -6.24966030000000 -3.88147013125000 
 N -2.98274238437500 -6.58679230000000 -0.103661131249999 
 N -0.102526384374996 -3.41128930000000 -2.75783313125000 
 N -2.29744938437500 -2.72880330000000 -3.82326713125000 
 N -2.73561538437500 -2.87824130000000 0.114180868750001 
 S -0.447315384374996 -6.59504930000000 -4.18261413125000 
 S -3.63655938437500 -5.92400630000000 -1.49677113125000 
 S -1.34729038437500 -6.70882330000000 -7.324813124999952E-002
 S -0.734119384374996 -3.07547930000000 -4.23369113125000 
 S -3.63857538437500 -2.77483130000000 -1.31428813125000 
 S -1.13633938437500 -3.29675130000000 -0.121328131250000 
