16

 C -2.23560626562500 -6.51874327500000 -2.52314222500000 
 C -1.03480626562500 -6.92535627500000 -1.88069022500000 
 C -2.51989126562500 -2.54580827500000 -2.52552922500000 
 C -1.31352826562500 -3.08378727500000 -1.95771822500000 
 N -0.137357265625000 -7.32269227500000 -2.79650422500000 
 N -2.30442326562500 -6.53321427500000 -3.83642022500000 
 N -2.63269726562500 -6.36731927500000 5.844775000001912E-003
 N -0.332930265625000 -3.41259427500000 -2.80034322500000 
 N -2.39568626562500 -2.32701827500000 -3.83919122500000 
 N -2.97678226562500 -2.99259527500000 -4.279622499999824E-002
 S -0.879570265625000 -7.26940827500000 -4.29274122500000 
 S -3.55265526562500 -6.31888127500000 -1.38965922500000 
 S -1.03878126562500 -6.90273027500000 -0.197341224999998 
 S -1.00530226562500 -3.05913927500000 -4.30476922500000 
 S -3.74843026562500 -2.23476527500000 -1.29739722500000 
 S -1.36240026562500 -3.47892427500000 -0.231270224999998 
