16

 C -2.35959882812500 -6.41118139375000 -2.25233485625000 
 C -1.13068482812500 -6.86620939375000 -1.63727185625000 
 C -2.37987782812500 -2.56975839375000 -2.39659485625000 
 C -1.16392282812500 -3.12991339375000 -1.81263685625000 
 N -0.106421828124997 -6.92042639375001 -2.50264585625000 
 N -2.25584482812500 -6.24239639375000 -3.54222285625000 
 N -2.84981382812500 -6.63510839375000 0.258440143750001 
 N -0.160092828124997 -3.34727339375000 -2.66182985625000 
 N -2.27866782812500 -2.40990439375001 -3.70647085625000 
 N -3.02794682812500 -3.09108339375000 5.812014375000052E-002
 S -0.706467828124997 -6.55567239375000 -4.02235885625000 
 S -3.70504982812500 -6.33274339375000 -1.16307485625000 
 S -1.34331082812500 -7.31682739375001 2.322814375000060E-002
 S -0.722962828124997 -2.75146939375000 -4.12636185625000 
 S -3.75626382812500 -2.43718339375000 -1.31919885625000 
 S -1.38142882812500 -3.49881539375000 -0.110522856249999 
