16

 C -2.16624901875001 -6.45285890000000 -2.39471235625000 
 C -0.859412018750007 -6.69693390000000 -1.78475835625000 
 C -2.52919801875001 -2.78139890000000 -2.40693435625000 
 C -1.35694701875001 -3.14316190000000 -1.73801735625000 
 N 0.149968981249993 -6.78668590000000 -2.65958635625000 
 N -2.15720401875001 -6.27450190000000 -3.69697235625000 
 N -2.64986601875001 -6.71302390000000 0.164492643749997 
 N -0.278520018750007 -3.24268990000000 -2.50148635625000 
 N -2.40333301875001 -2.68108890000000 -3.71971435625000 
 N -3.21217601875001 -2.86749190000000 4.660864374999729E-002
 S -0.542305018750007 -6.47423190000000 -4.16838835625000 
 S -3.50277801875001 -6.38409290000000 -1.22432635625000 
 S -1.04475401875001 -7.10523990000000 -0.105910356250003 
 S -0.793801018750007 -3.07409890000000 -4.08573935625000 
 S -3.93238101875001 -2.49725790000000 -1.40175635625000 
 S -1.61872501875001 -3.40132790000000 -8.531335625000303E-002
