16

 C -2.58833621562500 -6.27815550000000 -2.37543042812500 
 C -1.43670721562500 -7.04443650000000 -1.89151442812500 
 C -2.46651821562500 -2.71477150000000 -2.26344242812500 
 C -1.35564121562500 -3.36393250000000 -1.67769342812500 
 N -0.528251215625001 -7.21628250000000 -2.83122342812500 
 N -2.53019821562500 -5.99234850000000 -3.66064742812500 
 N -3.04750921562500 -6.61963750000000 6.780557187499903E-002
 N -0.354651215625001 -3.72563950000000 -2.49436942812500 
 N -2.28032421562500 -2.39094950000000 -3.55059742812500 
 N -3.04984121562500 -2.97146250000000 0.246676571874999 
 S -1.07519221562500 -6.51340750000000 -4.19355442812500 
 S -3.88686921562500 -5.98406750000000 -1.24579542812500 
 S -1.53501721562500 -7.32021850000000 -0.205568428125001 
 S -0.839430215625001 -3.16643050000000 -3.96587342812500 
 S -3.78410221562500 -2.42821450000000 -1.13169442812500 
 S -1.57227521562500 -3.74240550000000 6.463057187499910E-002
