16

 C -2.37940740937501 -6.31694879375000 -2.46558480937500 
 C -1.25397240937501 -6.95733379375000 -1.82211680937500 
 C -2.25214040937501 -2.83554879375000 -2.36758780937500 
 C -1.05595240937501 -3.24270179375000 -1.77033380937500 
 N -0.220297409375009 -7.11545779375000 -2.63888080937500 
 N -2.21267640937501 -6.11319279375000 -3.78289380937500 
 N -3.03605840937501 -6.78520179375000 2.757119062500024E-002
 N -9.389140937500873E-002 -3.44621679375000 -2.65145580937500 
 N -2.18996240937501 -2.67206579375000 -3.67994780937500 
 N -2.72577040937501 -2.91865679375000 0.178524190625000 
 S -0.679542409375009 -6.59128879375000 -4.13209480937500 
 S -3.72133140937501 -6.09732779375000 -1.31291480937500 
 S -1.42650540937501 -7.21465079375000 -9.535180937499965E-002
 S -0.706111409375008 -3.20406479375000 -4.15304880937500 
 S -3.57650840937501 -2.61775479375000 -1.23715780937500 
 S -1.15995640937501 -3.61187579375000 -5.111680937499963E-002
