16

 C -2.31564087187500 -6.56254755000000 -2.40906367812500 
 C -1.10054787187500 -6.84337455000000 -1.69376267812500 
 C -2.46891087187500 -3.23677055000000 -2.30871367812500 
 C -1.21216187187500 -3.49446955000000 -1.66403167812500 
 N -7.380787187499571E-002 -6.96564855000000 -2.56457767812500 
 N -2.20487287187500 -6.48031355000000 -3.72811767812500 
 N -3.02589187187500 -6.66549055000000 2.417632187499952E-002
 N -0.156893871874995 -3.62073855000000 -2.50113067812500 
 N -2.39647087187500 -3.23505255000000 -3.62199367812500 
 N -2.96517087187500 -3.36377655000000 0.274772321875000 
 S -0.631718871874996 -6.86410355000000 -4.11237467812500 
 S -3.72841487187500 -6.32782555000000 -1.44787067812500 
 S -1.37498287187500 -6.94388255000000 -3.175167812500046E-002
 S -0.753593871874996 -3.49829855000000 -3.97088367812500 
 S -3.82474987187500 -3.35000755000000 -1.16363567812500 
 S -1.31140087187500 -3.54146155000000 9.772432187499946E-002
