16

 C -2.41755462500000 -6.29254770312501 -2.29834946875000 
 C -1.17591762500000 -6.71962270312501 -1.67922446875000 
 C -2.48379062500000 -2.53219970312501 -2.86013246875000 
 C -1.17390262500000 -2.74212770312501 -2.21153746875000 
 N -0.163275625000002 -6.72355670312501 -2.54174746875000 
 N -2.44678162500000 -6.07178370312501 -3.62999146875000 
 N -3.03972862500000 -6.90936370312501 0.127688531250001 
 N -0.120424625000002 -2.85815370312501 -3.01546546875000 
 N -2.37703962500000 -2.51295570312501 -4.15623846875000 
 N -3.11230762500000 -2.91661870312501 -0.409672468749999 
 S -0.879964625000001 -6.36248270312501 -3.99917046875000 
 S -3.84260562500000 -6.33694870312501 -1.23306246875000 
 S -1.36194662500000 -6.95971070312501 3.483753125000133E-002
 S -0.749051625000002 -2.57560270312501 -4.59705246875000 
 S -3.88866962500000 -2.59729070312501 -1.88544846875000 
 S -1.37995962500000 -3.08326370312501 -0.459984468749999 
