16

 C -2.43038042812500 -6.53102453437500 -2.31961794062500 
 C -1.23608742812500 -6.99695453437500 -1.59285994062500 
 C -2.48756142812500 -2.70087653437499 -2.52545394062500 
 C -1.28924842812500 -3.15703953437500 -1.83703994062500 
 N -0.224792428124998 -7.17331753437499 -2.44422894062500 
 N -2.28399342812500 -6.30915253437500 -3.61883094062500 
 N -3.13696142812500 -6.60504053437499 0.151581059375001 
 N -0.166853428124997 -3.25126653437500 -2.57160594062500 
 N -2.31415642812500 -2.48947253437500 -3.83004694062500 
 N -3.13664142812500 -3.21579453437500 -2.319794062499869E-002
 S -0.722924428124998 -6.76327653437500 -3.98773094062500 
 S -3.87893642812500 -6.34220753437500 -1.34310694062500 
 S -1.58392242812500 -7.24607553437500 0.152019059375001 
 S -0.723130428124997 -2.73962853437500 -4.10136694062500 
 S -3.88063042812500 -2.74294953437500 -1.44250694062500 
 S -1.49892642812500 -3.42076453437500 -7.044594062499887E-002
