16

 C -2.29413895937499 -6.25115629687500 -2.06884358437500 
 C -1.11073295937500 -6.87620429687500 -1.53911558437500 
 C -2.32918495937500 -2.59567329687500 -2.29189958437500 
 C -1.22937995937499 -3.19253229687500 -1.60184058437500 
 N -7.713495937499459E-002 -6.93516629687500 -2.40598458437500 
 N -2.10232795937499 -5.74453029687500 -3.26801358437500 
 N -2.98963395937499 -6.78792129687500 0.386874415624997 
 N -0.205697959374994 -3.51266229687500 -2.37313458437500 
 N -2.08932195937499 -2.29452729687500 -3.56609258437500 
 N -3.09358595937499 -3.00224629687500 0.210364415624997 
 S -0.605976959374995 -6.16911729687500 -3.76400458437500 
 S -3.64074595937499 -6.15394929687500 -0.968492584375003 
 S -1.35279295937499 -7.17862029687500 0.229235415624997 
 S -0.469856959374995 -2.83637029687500 -3.83996758437500 
 S -3.78475495937499 -2.46764529687500 -1.25742758437500 
 S -1.41473895937499 -3.30055729687500 0.158202415624997 
