16

 C -2.42190026562499 -6.29988685312500 -2.29115525312500 
 C -1.17689126562499 -6.72537285312500 -1.69095525312500 
 C -2.48783426562499 -2.53770385312500 -2.84583825312500 
 C -1.16618726562499 -2.74685485312500 -2.21144425312500 
 N -0.157571265624993 -6.72351885312500 -2.53790425312500 
 N -2.44857326562499 -6.07943985312500 -3.62143925312500 
 N -3.05089826562499 -6.90559285312500 0.115036746875000 
 N -0.114257265624993 -2.85147185312500 -3.02282425312500 
 N -2.37740526562499 -2.52540685312500 -4.15469425312500 
 N -3.09864326562499 -2.93189685312500 -0.409709253125000 
 S -0.872762265624993 -6.35389685312500 -3.99835125312500 
 S -3.83370326562499 -6.32428085312500 -1.22123225312500 
 S -1.35769826562499 -6.96528985312500 3.412974687499948E-002
 S -0.752289265624993 -2.57908385312500 -4.60012125312500 
 S -3.89085826562499 -2.61171885312500 -1.88048425312500 
 S -1.37412126562499 -3.07798885312500 -0.468682253125000 
