16

 C -2.56413799062500 -6.32858392187500 -2.28011624687500 
 C -1.36268499062500 -6.81512892187500 -1.70285924687500 
 C -2.53539499062500 -3.07336792187500 -2.32925224687500 
 C -1.24078699062500 -3.33585392187500 -1.70331324687500 
 N -0.348049990624997 -7.05125492187500 -2.52888124687500 
 N -2.43089399062500 -6.15378592187500 -3.59302924687500 
 N -3.08554699062500 -6.58026992187500 0.322179753124999 
 N -0.253285990624996 -3.44641692187500 -2.57612424687500 
 N -2.49884599062500 -3.09816092187500 -3.64472224687500 
 N -3.03138599062500 -3.14838092187500 0.134373753124999 
 S -0.912032990624996 -6.64930492187500 -4.04933224687500 
 S -3.87559399062500 -6.13240192187500 -1.09981824687500 
 S -1.51006399062500 -7.10680292187500 0.136239753124999 
 S -0.859206990624997 -3.15281492187500 -4.08593724687500 
 S -3.93508799062500 -2.92330392187500 -1.30157224687500 
 S -1.39639699062500 -3.42161392187500 3.202753124999180E-003
