16

 C -2.38145123750001 -6.49487470625000 -2.52180045000000 
 C -1.14099323750001 -6.70539070625000 -1.80890645000000 
 C -2.61122123750001 -2.80817170625000 -2.50666145000000 
 C -1.41926423750001 -3.10009670625000 -1.76920245000000 
 N -3.963023750000971E-002 -6.93887770625000 -2.56730045000000 
 N -2.20398223750001 -6.44524470625000 -3.86241245000000 
 N -3.06577723750001 -6.47594670625000 -3.808544999999963E-002
 N -0.289370237500010 -3.02331270625000 -2.48696445000000 
 N -2.44465623750001 -2.60457470625000 -3.80340745000000 
 N -3.31038423750001 -3.06287770625000 2.035855000000031E-002
 S -0.556886237500010 -6.69576370625000 -4.12987745000000 
 S -3.74764323750001 -6.22136170625000 -1.50219845000000 
 S -1.43134623750001 -6.81520270625000 -3.588449999999632E-003
 S -0.795190237500011 -2.83632570625000 -4.04736445000000 
 S -3.95886623750001 -2.51325270625000 -1.41948945000000 
 S -1.66854823750001 -3.29712770625000 -1.789744999999976E-002
