16

 C -2.51792563437500 -6.51983299375000 -2.41576330000000 
 C -1.41168163437500 -7.09200999375000 -1.70145930000000 
 C -2.30617463437500 -2.75983199375000 -2.53938130000000 
 C -1.10868363437500 -3.28257699375000 -1.85775430000000 
 N -0.331453634375001 -7.40063099375000 -2.42841730000000 
 N -2.31352963437500 -6.39843199375000 -3.71353430000000 
 N -3.34001463437500 -6.55101299375000 2.901700000001561E-003
 N -9.979263437500130E-002 -3.48304999375000 -2.70668830000000 
 N -2.16053363437500 -2.49249999375000 -3.83498230000000 
 N -3.00054463437500 -2.97868299375000 -2.491729999999848E-002
 S -0.752854634375002 -6.96068199375000 -3.99790630000000 
 S -3.84359863437500 -6.05064399375000 -1.45279330000000 
 S -1.75429663437500 -7.05348399375000 3.704870000000149E-002
 S -0.613724634375002 -3.00338899375000 -4.15103430000000 
 S -3.68408363437500 -2.67270799375000 -1.50694130000000 
 S -1.39805063437500 -3.37321599375000 -0.135562299999998 
