16

 C -2.23557267499999 -6.46955172812500 -2.27561839687500 
 C -1.06357767499999 -7.05686072812500 -1.70139439687500 
 C -2.33284567499999 -2.62911872812500 -2.46315539687500 
 C -1.12710367499999 -3.12858772812500 -1.85238439687500 
 N -0.128350674999993 -7.30933772812500 -2.61603239687500 
 N -2.21046167499999 -6.32051272812500 -3.60566039687500 
 N -2.60439467499999 -6.66974272812500 0.305421603125000 
 N -0.105938674999993 -3.29080572812500 -2.68851739687500 
 N -2.15941167499999 -2.27258872812500 -3.71186839687500 
 N -2.86544867499999 -3.07745572812500 6.211860312499984E-002
 S -0.738713674999993 -6.84926372812500 -4.09434139687500 
 S -3.36990167499999 -6.06579172812500 -1.01818839687500 
 S -1.16890867499999 -7.32545172812500 1.038060312499978E-002
 S -0.567491674999993 -2.80690172812500 -4.19088839687500 
 S -3.57743167499999 -2.41831072812500 -1.30527739687500 
 S -1.35903567499999 -3.58675572812500 -0.188414396875000 
