16

 C -2.30395480625000 -6.33129496875001 -2.35422411250000 
 C -1.11248680625000 -6.80109096875001 -1.76151111250000 
 C -2.55261380625000 -2.74517196875001 -2.47810911250000 
 C -1.45870080625000 -3.40859496875001 -1.74035711250000 
 N -0.147104806250002 -6.93980596875001 -2.65946811250000 
 N -2.32636580625000 -6.15352796875001 -3.69325111250000 
 N -2.94293180625000 -6.64982896875001 0.172525887500000 
 N -0.361831806250001 -3.64288196875001 -2.48058311250000 
 N -2.24836880625000 -2.37793496875001 -3.71483411250000 
 N -3.31161180625000 -2.92488096875001 2.952088749999948E-002
 S -0.764131806250002 -6.46726196875001 -4.17823711250000 
 S -3.69220280625000 -6.48650896875001 -1.30125211250000 
 S -1.32260580625000 -7.10058596875001 2.388887499999548E-003
 S -0.787079806250001 -3.08334296875001 -4.01522711250000 
 S -4.02011780625000 -2.62293796875001 -1.45067011250000 
 S -1.79427480625000 -3.55461196875001 1.367887499999609E-003
