16

 C -2.13233606875001 -6.07223169687500 -2.61227401250000 
 C -1.02171706875001 -6.56053569687500 -1.82953301250000 
 C -2.37593806875001 -2.75048569687500 -2.54296101250000 
 C -1.10352106875001 -3.13422769687500 -1.86618001250000 
 N 4.555993124999347E-002 -6.90224569687500 -2.55331501250000 
 N -1.90404706875001 -5.96852869687500 -3.90959501250000 
 N -2.99424306875001 -6.30842669687500 -0.199252012500001 
 N -7.931306875000654E-002 -3.30529069687500 -2.71477701250000 
 N -2.31360606875001 -2.71245169687500 -3.87772101250000 
 N -3.00541806875001 -2.91729469687500 9.762987499998932E-003
 S -0.371946068750007 -6.60536469687500 -4.16804201250000 
 S -3.64445106875001 -5.85175269687500 -1.64941101250000 
 S -1.41607006875001 -6.85150569687500 -0.153257012500001 
 S -0.744136068750007 -3.04333369687500 -4.22157601250000 
 S -3.75690006875001 -2.77000269687500 -1.44826701250000 
 S -1.32514406875001 -3.30942669687500 -0.115487012500001 
