16

 C -2.45141101874999 -6.22675500000000 -2.46194767500000 
 C -1.22195401874999 -6.63588900000000 -1.78744367500000 
 C -2.21469701874999 -2.94287100000000 -2.46495467500000 
 C -0.970812018749992 -3.26202600000000 -1.84051367500000 
 N -0.158121018749992 -6.80505600000000 -2.55911667500000 
 N -2.28147701874999 -6.17463300000000 -3.77417267500000 
 N -3.11884601874999 -6.44195500000000 4.425832500000038E-002
 N 8.210398125000751E-002 -3.27192500000000 -2.67625367500000 
 N -2.22579101874999 -2.71797200000000 -3.77671967500000 
 N -2.76784401874999 -3.22487000000000 8.050432500000038E-002
 S -0.691718018749993 -6.61918500000000 -4.13509867500000 
 S -3.76428401874999 -6.05491900000000 -1.38624567500000 
 S -1.45347901874999 -6.72934900000000 -4.610567499999951E-002
 S -0.670462018749992 -3.06750300000000 -4.22084067500000 
 S -3.57402201874999 -2.88885000000000 -1.35019467500000 
 S -1.18215901874999 -3.48622700000000 -0.176075675000000 
