16

 C -2.72579735000000 -6.38633382187500 -2.65949438437500 
 C -1.52033635000000 -6.86736182187500 -2.02284038437500 
 C -2.37895835000000 -2.88700882187500 -2.39431638437500 
 C -1.05383335000000 -3.19591482187500 -1.82779738437500 
 N -0.422804349999998 -6.81932282187500 -2.77183738437500 
 N -2.57602635000000 -6.12186782187500 -3.93628838437500 
 N -3.30636335000000 -6.70387982187500 -0.226933384375000 
 N -7.844234999999866E-002 -3.30841482187500 -2.73600238437500 
 N -2.38164035000000 -2.78622382187500 -3.73345538437500 
 N -2.72029535000000 -2.99124582187500 0.145299615624999 
 S -0.962867349999998 -6.35308182187500 -4.23356938437500 
 S -4.11782335000000 -6.32963982187500 -1.61346038437500 
 S -1.71837135000000 -7.16512682187500 -0.371946384375000 
 S -0.811473349999998 -3.01748882187500 -4.18658238437500 
 S -3.59985035000000 -2.67387382187500 -1.22172738437500 
 S -1.13381335000000 -3.42269882187500 -4.790638437500028E-002
