16

 C -2.62445463750000 -6.43978561562500 -2.34034144375000 
 C -1.40647663750000 -6.94270861562500 -1.71529644375000 
 C -2.41489463750000 -2.95689561562500 -2.43555544375000 
 C -1.17857863750000 -3.32472061562500 -1.77593044375000 
 N -0.378956637499998 -7.10148161562500 -2.54642844375000 
 N -2.53751663750000 -6.27885661562500 -3.64682344375000 
 N -3.12826363750000 -6.48884561562500 0.200143556250000 
 N -0.211777637499998 -3.55140561562500 -2.66570944375000 
 N -2.36180763750000 -2.78133761562500 -3.76886844375000 
 N -2.82561663750000 -2.94365861562500 0.157717556250000 
 S -0.967959637499998 -6.71374261562500 -4.07942644375000 
 S -3.89655463750000 -6.09745561562500 -1.25527644375000 
 S -1.59519263750000 -7.14950861562500 8.369955625000003E-002
 S -0.754233637499998 -3.10116361562500 -4.17245344375000 
 S -3.65013163750000 -2.55607861562500 -1.28165544375000 
 S -1.21146263750000 -3.35927261562500 -5.232744374999987E-002
