16

 C -2.49600798125000 -6.78022372500000 -2.39284593750000 
 C -1.18767298125000 -6.98607872500000 -1.83489693750000 
 C -2.46123298125000 -2.68765472500000 -2.42361593750000 
 C -1.29716298125000 -3.24504772500000 -1.69100693750000 
 N -0.221328981249996 -6.92729572500000 -2.71445993750000 
 N -2.47223298125000 -6.66106172500000 -3.71473993750000 
 N -2.76292398125000 -6.98278472500000 0.180144062500001 
 N -0.260475981249995 -3.53197672500000 -2.49327593750000 
 N -2.19050398125000 -2.40063472500000 -3.70065393750000 
 N -3.23152298125000 -3.03052372500000 2.267706250000079E-002
 S -0.883866981249995 -6.72061772500000 -4.21606593750000 
 S -3.76780098125000 -6.78376872500000 -1.15969193750000 
 S -1.13247298125000 -7.02530272500000 -0.109775937499999 
 S -0.708435981249996 -3.07321772500000 -4.03402093750000 
 S -3.83965698125000 -2.48411172500000 -1.46424793750000 
 S -1.63880598125000 -3.48340672500000 9.786062500000803E-003
