16

 C -2.64606533750000 -6.42273220000000 -2.59263811562500 
 C -1.47825533750000 -6.86057120000000 -1.90398311562500 
 C -2.34937733750000 -2.86393220000000 -2.34956911562500 
 C -1.07446133750000 -3.28832620000000 -1.78046811562500 
 N -0.457214337499996 -6.98193920000000 -2.74313811562500 
 N -2.47832133750000 -6.13429120000000 -3.90005611562500 
 N -3.35559133750000 -6.64918220000000 -9.381911562500078E-002
 N -5.861833749999690E-002 -3.32074420000000 -2.64332011562500 
 N -2.22065933750000 -2.72344420000000 -3.66142211562500 
 N -2.74760933750000 -3.06599220000000 0.157266884374999 
 S -0.904173337499996 -6.48814720000000 -4.26637811562500 
 S -4.06281733750000 -6.36799920000000 -1.56317011562500 
 S -1.82091133750000 -7.29723120000000 -0.204977115625001 
 S -0.661552337499996 -3.06389020000000 -4.16552011562500 
 S -3.59265133750000 -2.70102820000000 -1.20901311562500 
 S -1.13288033750000 -3.55438920000000 -0.116120115625001 
