16

 C -2.37632884375000 -6.62675067187501 -2.31996692500000 
 C -1.13251184375000 -6.97925967187501 -1.71044892500000 
 C -2.34972384375000 -2.76921667187501 -2.47231092500000 
 C -1.13456184374999 -3.15988267187501 -1.67641392500000 
 N -5.918284374999505E-002 -7.02262967187501 -2.51752692500000 
 N -2.28465784375000 -6.40185567187501 -3.63335592500000 
 N -2.90642184375000 -7.07719167187501 0.192065075000002 
 N -2.606184374999554E-002 -3.31620767187501 -2.43115492500000 
 N -2.19788584375000 -2.77801967187501 -3.80201292500000 
 N -3.07953984374999 -2.85915467187501 -1.505692499999833E-002
 S -0.724620843749995 -6.61442467187501 -3.98850092500000 
 S -3.68177984374999 -6.63340567187501 -1.22926392500000 
 S -1.27668184375000 -7.29974967187501 1.875407500000170E-002
 S -0.578082843749995 -3.06095667187501 -4.00078192500000 
 S -3.75819884375000 -2.53896267187501 -1.47679592500000 
 S -1.46548484375000 -3.14341467187501 9.992075000001543E-003
