16

 C -2.44591409999999 -6.56167229062500 -2.55796458750000 
 C -1.31085509999999 -7.09573429062500 -1.83904458750000 
 C -2.72880109999999 -2.86007329062500 -2.48328958750000 
 C -1.56032509999999 -3.43935229062500 -1.86493258750000 
 N -0.241777099999994 -7.19527429062500 -2.65823758750000 
 N -2.30383409999999 -6.28653129062500 -3.84903158750000 
 N -3.02415009999999 -6.81371429062500 -8.076858750000326E-002
 N -0.526619099999994 -3.63800929062500 -2.67699558750000 
 N -2.54756309999999 -2.61208529062500 -3.78275458750000 
 N -3.49415309999999 -3.24699729062500 -6.685758750000326E-002
 S -0.714462099999994 -6.59709629062500 -4.09261558750000 
 S -3.82347209999999 -6.32517229062500 -1.48142658750000 
 S -1.47119409999999 -7.29955029062500 -0.173772587500003 
 S -0.981931099999994 -3.17529329062500 -4.21849858750000 
 S -4.04983709999999 -2.45656829062500 -1.41861958750000 
 S -1.86567809999999 -3.71422629062500 -0.103679587500003 
