16

 C -2.28133735625000 -6.82134744062500 -2.37629344687500 
 C -1.10930935625000 -7.22506144062500 -1.63670244687500 
 C -2.96434635625000 -2.99226044062500 -2.35418144687500 
 C -1.73514535625000 -3.54784044062500 -1.74566044687500 
 N -0.108186356249998 -7.48804144062500 -2.44806344687500 
 N -2.10947335625000 -6.74190944062500 -3.69424244687500 
 N -3.01491635625000 -6.83434144062500 6.839255312499803E-002
 N -0.756613356249998 -3.94563544062500 -2.53995844687500 
 N -2.83192035625000 -2.93754544062500 -3.66103044687500 
 N -3.43952235625000 -3.29848244062500 0.152845553124998 
 S -0.540564356249998 -7.15684144062500 -4.01736144687500 
 S -3.69493135625000 -6.52931844062500 -1.34800144687500 
 S -1.39015435625000 -7.29994844062500 -6.354468750020548E-004
 S -1.28148235625000 -3.41704744062500 -4.03735044687500 
 S -4.17818935625000 -2.73087144062500 -1.20244044687500 
 S -1.89286035625000 -3.74599444062500 -3.019244687500211E-002
