16

 C -2.49358785312500 -6.66689581249999 -2.41446487812500 
 C -1.23270485312500 -6.91688381249999 -1.80029987812500 
 C -2.09614585312500 -2.91206381250000 -2.39018087812500 
 C -0.948964853124996 -3.26183481249999 -1.60408287812500 
 N -0.191393853124996 -6.91428481249999 -2.57962787812500 
 N -2.38418485312500 -6.54368781249999 -3.72858087812500 
 N -2.94961285312500 -7.01317381250000 5.315312187499943E-002
 N 0.140283146875004 -3.37166081249999 -2.34353587812500 
 N -1.90518085312500 -2.71653381250000 -3.68786087812500 
 N -2.96321685312500 -3.10475881249999 3.005612187499951E-002
 S -0.793208853124996 -6.58722081249999 -4.04127387812500 
 S -3.80485585312500 -6.77207781250000 -1.31619087812500 
 S -1.28934585312500 -7.27784881249999 -7.603787812500040E-002
 S -0.301664853124996 -3.06373481250000 -3.97360787812500 
 S -3.51294485312500 -2.49336381249999 -1.40931387812500 
 S -1.33077685312500 -3.68444081249999 5.513112187499947E-002
