16

 C -2.31584004062500 -6.43414564375000 -2.46324099687500 
 C -1.12441104062500 -6.98259164375000 -1.87400399687500 
 C -2.33622904062500 -3.07553164375000 -2.35967799687500 
 C -1.13508304062500 -3.43467164375000 -1.68603899687500 
 N -7.248204062499752E-002 -7.25752564375000 -2.65462999687500 
 N -2.14443804062500 -6.27163164375000 -3.77588199687500 
 N -2.78243204062500 -6.72211264375000 5.388500312499822E-002
 N -0.141726040624998 -3.58701864375000 -2.57042599687500 
 N -2.26435804062500 -2.84174064375000 -3.64219699687500 
 N -2.95919404062500 -3.15907564375000 0.201235003124998 
 S -0.553157040624998 -6.65377164375000 -4.12514399687500 
 S -3.59313004062500 -6.22359064375000 -1.29129599687500 
 S -1.25838804062500 -7.44041064375000 -0.209759996875002 
 S -0.688061040624998 -3.18649564375000 -4.03711599687500 
 S -3.71103504062500 -2.79225764375000 -1.26634399687500 
 S -1.39481304062500 -3.59321264375000 4.953800312499834E-002
