16

 C -2.39009274375000 -6.62118845937500 -2.45469249687500 
 C -1.15876674375000 -6.99373245937500 -1.78399949687500 
 C -2.59989174375000 -2.89404945937500 -2.28543049687500 
 C -1.32126474375000 -3.36984045937500 -1.70225849687500 
 N -0.144892743749998 -7.18118545937500 -2.61875949687500 
 N -2.34452474375000 -6.65915845937500 -3.80224649687500 
 N -2.86492974375000 -6.78174045937500 0.131807503125000 
 N -0.351254743749998 -3.52760745937500 -2.57216949687500 
 N -2.56808274375000 -2.72411545937500 -3.58753949687500 
 N -2.95608274375000 -3.12623845937500 0.269208503125000 
 S -0.779726743749998 -7.00322245937500 -4.15541449687500 
 S -3.70557074375000 -6.40735145937500 -1.25470949687500 
 S -1.31914174375000 -7.23423145937500 -0.108324496875000 
 S -0.978184743749998 -3.00610945937500 -4.07945049687500 
 S -3.78869774375000 -2.49466145937500 -1.03670149687500 
 S -1.28435274375000 -3.32908645937500 0.112575503125000 
