16

 C -2.20211709687500 -6.36149098125000 -2.61382786875000 
 C -1.08885309687500 -6.95981098125000 -1.90918286875000 
 C -2.68277809687500 -2.41505898125000 -2.40853186875000 
 C -1.58904409687500 -3.12230998125000 -1.72697986875000 
 N -0.119562096875003 -7.33160398125000 -2.71488186875000 
 N -2.02202809687500 -6.21601898125000 -3.93506486875000 
 N -2.81091809687500 -6.52458798125000 -6.764786875000062E-002
 N -0.510082096875003 -3.35735798125000 -2.47489386875000 
 N -2.41254609687500 -2.17951398125000 -3.69831086875000 
 N -3.34213809687500 -2.44462298125000 8.628713124999954E-002
 S -0.499624096875003 -6.84588498125000 -4.24219086875000 
 S -3.55877909687500 -6.15653598125000 -1.49615986875000 
 S -1.30169009687500 -7.21317598125000 -0.229453868750001 
 S -0.942436096875003 -2.82402298125000 -4.00800286875000 
 S -4.04868909687500 -2.08793798125000 -1.36352386875000 
 S -1.78013509687500 -3.11580298125000 5.843613124999947E-002
