16

 C -2.54333444062499 -6.13567295312501 -2.25133020937500 
 C -1.31313544062499 -6.66445795312501 -1.67812120937500 
 C -2.50946344062499 -2.54126595312501 -2.46973120937500 
 C -1.33525044062499 -2.97186595312501 -1.79419520937500 
 N -0.327120440624992 -6.90126695312501 -2.53477920937500 
 N -2.44217444062499 -5.90838995312501 -3.55594920937500 
 N -2.98672244062499 -6.38084695312501 0.316390790625000 
 N -0.300821440624992 -3.32348895312501 -2.56134120937500 
 N -2.33558344062499 -2.31375395312501 -3.78682820937500 
 N -3.06086344062499 -2.53332095312501 3.318979062499960E-002
 S -0.962232440624992 -6.47468895312501 -4.02835320937500 
 S -3.78215744062499 -5.86030595312501 -1.05414320937500 
 S -1.34837844062499 -6.84383995312501 0.125755790625000 
 S -0.833367440624992 -2.88845295312501 -4.17696720937500 
 S -3.87433944062499 -2.21751695312501 -1.42407420937500 
 S -1.41127044062499 -2.98365495312501 -9.462320937500057E-002
