16

 C -2.39433220625001 -6.34349773437501 -2.41286612187500 
 C -1.14204620625001 -6.76280573437501 -1.78339712187500 
 C -2.33673220625001 -2.96895373437501 -2.44445412187500 
 C -1.07373720625001 -3.21530273437501 -1.83346612187500 
 N -0.172460206250006 -6.97730673437501 -2.66271112187500 
 N -2.40643320625001 -6.34542573437501 -3.72953112187500 
 N -2.91177320625001 -6.40698273437501 0.112587878125000 
 N -4.079720625000594E-002 -3.37467873437501 -2.63556412187500 
 N -2.26731320625001 -2.86812573437501 -3.76537312187500 
 N -2.75098720625001 -3.08841973437501 8.218787812499984E-002
 S -0.850625206250005 -6.72486373437501 -4.23776012187500 
 S -3.77985220625001 -6.27974273437501 -1.30044212187500 
 S -1.30509520625001 -6.90784973437501 -4.412412187500014E-002
 S -0.686247206250005 -3.21000673437501 -4.18862112187500 
 S -3.59539820625001 -2.70367873437501 -1.27142012187500 
 S -1.15701320625001 -3.49458173437501 -8.737412187500015E-002
