16

 C -2.42153359375000 -6.57405160625001 -2.48143741250000 
 C -1.13598959375001 -6.86596060625001 -1.83933741250000 
 C -2.43899559375000 -2.68419160625001 -2.39117341250000 
 C -1.28790259375000 -3.04141760625001 -1.61914941250000 
 N -7.510159375000480E-002 -6.83855360625001 -2.65742641250000 
 N -2.31130359375001 -6.36904360625001 -3.77464141250000 
 N -2.94715659375001 -6.98437660625001 -3.749741250000005E-002
 N -0.237889593750005 -3.31080960625001 -2.39850441250000 
 N -2.23413759375001 -2.63719860625001 -3.69198941250000 
 N -3.22483259375000 -2.71044860625001 8.358058750000019E-002
 S -0.683305593750005 -6.51275360625001 -4.18211041250000 
 S -3.69846659375000 -6.57151560625001 -1.41207541250000 
 S -1.36934159375001 -7.29327660625001 -0.159570412500000 
 S -0.655956593750004 -3.04358960625001 -3.99168441250000 
 S -3.82730759375000 -2.32709760625001 -1.44424241250000 
 S -1.67166159375001 -3.19172360625001 5.493358750000010E-002
