16

 C -2.44220165937500 -6.53736134687500 -2.30890151250000 
 C -1.25335565937500 -6.98945834687500 -1.58799951250000 
 C -2.45116965937500 -2.70390234687500 -2.51312351250000 
 C -1.28774165937500 -3.16931434687500 -1.83867651250000 
 N -0.225209659374996 -7.16974734687500 -2.43530951250000 
 N -2.25263565937500 -6.32732234687500 -3.61673251250000 
 N -3.12489865937500 -6.60001434687500 0.154155487500002 
 N -0.175667659374995 -3.23573534687500 -2.56933751250000 
 N -2.31183265937500 -2.49556334687500 -3.82209751250000 
 N -3.13127565937500 -3.23679134687500 -1.932251249999850E-002
 S -0.704895659374996 -6.76495134687500 -3.97330351250000 
 S -3.87684865937500 -6.32733834687500 -1.33857251250000 
 S -1.58099565937500 -7.25214734687500 0.165623487500002 
 S -0.718581659374996 -2.72600734687500 -4.10202551250000 
 S -3.88385765937500 -2.74331534687500 -1.43702551250000 
 S -1.48715065937500 -3.43323534687500 -6.494451249999855E-002
