16

 C -2.61076806562500 -6.31167185937500 -2.25793518750000 
 C -1.46250606562500 -6.99619585937500 -1.76891218750000 
 C -2.30129506562500 -2.50831285937500 -2.49812318750000 
 C -1.12760006562500 -3.11014085937500 -1.85942018750000 
 N -0.462496065624999 -7.12309685937500 -2.63764918750000 
 N -2.49402906562500 -5.93101185937500 -3.51035118750000 
 N -3.11132706562500 -6.68405085937500 0.215402812500000 
 N -0.124345065624999 -3.34922685937500 -2.72158018750000 
 N -2.16378406562500 -2.23782285937500 -3.77909618750000 
 N -2.89355606562500 -2.84314185937500 2.332381249999971E-002
 S -1.03239406562500 -6.54537385937500 -4.05653718750000 
 S -3.88060606562500 -6.11508485937500 -1.12863918750000 
 S -1.54824706562500 -7.24421985937500 -5.609187500000168E-003
 S -0.632730065624998 -2.74956185937500 -4.18916918750000 
 S -3.66141906562500 -2.24471685937500 -1.36258218750000 
 S -1.28802206562500 -3.29308085937500 -0.144984187500000 
