16

 C -2.18972074687500 -6.41651712187500 -2.41854199062500 
 C -0.948052746874999 -6.80689512187500 -1.78016699062500 
 C -2.56044374687500 -2.88545812187500 -2.55122099062500 
 C -1.41407274687500 -3.30910412187500 -1.81400199062500 
 N 3.546925312500093E-002 -6.82471812187500 -2.65059499062500 
 N -2.15031274687500 -6.20409612187500 -3.72595599062500 
 N -2.62544274687500 -6.68173312187500 0.100842009375003 
 N -0.295282746874999 -3.49029212187500 -2.51725799062500 
 N -2.40332474687500 -2.79189012187500 -3.88093499062500 
 N -3.22878874687500 -2.82985912187500 -5.140999062499718E-002
 S -0.558881746874999 -6.48291812187500 -4.12870899062500 
 S -3.49534874687500 -6.39914812187500 -1.30013699062500 
 S -1.01163774687500 -7.05718712187500 -8.455099062499727E-002
 S -0.751525746874999 -3.05934312187500 -4.07261399062500 
 S -3.91943774687500 -2.46244112187500 -1.50192299062500 
 S -1.67363774687500 -3.36337112187500 -2.210799062499724E-002
