16

 C -2.20104291562500 -6.56062174062500 -2.46132986562500 
 C -1.04045091562500 -7.13165574062500 -1.85383086562500 
 C -2.54919491562500 -2.34895374062500 -2.39168786562500 
 C -1.41724391562500 -2.90035774062500 -1.79350986562500 
 N 3.196308437500139E-002 -7.31307474062500 -2.62220186562500 
 N -2.00442291562500 -6.40333774062500 -3.75928186562500 
 N -2.70319191562500 -6.57861274062500 8.780213437500017E-002
 N -0.443058915624999 -3.26584374062500 -2.64179286562500 
 N -2.53134791562500 -2.31929174062500 -3.73664186562500 
 N -3.24361791562500 -2.66817474062500 5.633913437500015E-002
 S -0.460315915624999 -6.86096374062500 -4.13787186562500 
 S -3.47488391562500 -6.12586374062500 -1.31397486562500 
 S -1.17668491562500 -7.27739774062500 -0.108784865625000 
 S -1.04887391562500 -2.83056774062500 -4.14502686562500 
 S -3.90456291562500 -1.97603174062500 -1.27703486562500 
 S -1.64498791562500 -3.14561574062500 -7.331386562499986E-002
