16

 C -2.60420298437500 -6.43858286562499 -2.35827329687500 
 C -1.40527198437500 -6.98506286562499 -1.73507729687500 
 C -2.37791098437500 -2.95223486562499 -2.42318129687500 
 C -1.18939098437500 -3.30074186562499 -1.80755429687500 
 N -0.345401984375004 -7.07985486562499 -2.55342029687500 
 N -2.49524198437500 -6.27916886562499 -3.67100929687500 
 N -3.10617598437500 -6.51843086562499 0.173725703125000 
 N -0.225861984375004 -3.56029586562499 -2.66923829687500 
 N -2.32279898437500 -2.82829286562499 -3.73948629687500 
 N -2.83142898437500 -2.93015086562499 0.161602703125000 
 S -0.942263984375004 -6.68281586562499 -4.06996329687500 
 S -3.88502198437500 -6.08148686562499 -1.25847629687500 
 S -1.56912798437500 -7.17318586562499 5.939070312500050E-002
 S -0.730952984375004 -3.09591186562499 -4.15418829687500 
 S -3.60124698437500 -2.56367986562499 -1.27487329687500 
 S -1.21764098437500 -3.38163886562499 -5.179829687499948E-002
