16

 C -2.65605744375000 -6.28428674999999 -2.70463647500000 
 C -1.44891044375000 -6.68586874999999 -2.05870247500000 
 C -2.47623544375000 -2.87099874999999 -2.46448747500000 
 C -1.16488044375000 -3.14601474999999 -1.85955647500000 
 N -0.411242443749996 -6.70388674999999 -2.90969247500000 
 N -2.59929444375000 -6.10214174999999 -4.04398947500000 
 N -3.33703144375000 -6.94072874999999 -0.273761474999998 
 N -0.150684443749997 -3.24567474999999 -2.73527047500000 
 N -2.40178044375000 -2.66691274999999 -3.79882547500000 
 N -2.83548244375000 -2.97650774999999 6.779552500000174E-002
 S -0.970577443749996 -6.26974374999999 -4.39432147500000 
 S -4.03364144375000 -6.23421974999999 -1.58548247500000 
 S -1.67822644375000 -6.95453374999999 -0.335632474999998 
 S -0.819617443749997 -3.00816974999999 -4.20384947500000 
 S -3.72761944375000 -2.66289574999999 -1.25583447500000 
 S -1.20548144375000 -3.18096274999999 -0.104372474999998 
