16

 C -2.31788784375000 -6.27930432812499 -2.68632875937500 
 C -1.21030184375000 -6.78606432812499 -1.92639775937500 
 C -2.50166984375000 -2.79817332812499 -2.59888575937500 
 C -1.22015484375000 -3.08211932812499 -1.89155775937500 
 N -9.585484374999886E-002 -6.95545932812499 -2.63895875937500 
 N -2.07280984375000 -5.95232832812499 -3.94985775937500 
 N -3.05371484375000 -6.35319332812499 -0.260269759374999 
 N -0.110842843749999 -3.13977332812499 -2.64244775937500 
 N -2.32989584375000 -2.79515932812499 -3.92194075937500 
 N -3.13409184375000 -3.00061632812499 -6.091075937499824E-002
 S -0.482476843749999 -6.39014932812499 -4.18375775937500 
 S -3.63168084375000 -5.80719732812499 -1.70993675937500 
 S -1.44693384375000 -6.80308932812499 -0.197412759374998 
 S -0.694829843749998 -2.91622632812499 -4.18081875937500 
 S -3.87231084375000 -2.65708632812499 -1.50831075937500 
 S -1.42904484375000 -3.25519432812499 -0.187267759374998 
