16

 C -2.47880700625000 -6.24502958437500 -2.47447980000000 
 C -1.27423900625000 -6.67514458437500 -1.76761780000000 
 C -2.41691300625000 -2.26173158437500 -2.38038080000000 
 C -1.20167100625000 -2.88277258437500 -1.82840780000000 
 N -0.210708006250002 -6.94707558437500 -2.49016380000000 
 N -2.31217900625000 -6.18056658437500 -3.78407680000000 
 N -3.09199200625000 -6.49355558437500 -7.390800000002473E-003
 N -0.211048006250002 -3.16997558437500 -2.69625280000000 
 N -2.29924400625000 -1.97600658437500 -3.67590880000000 
 N -2.99115300625000 -2.90723158437500 9.057519999999752E-002
 S -0.701615006250002 -6.69892358437500 -4.02434680000000 
 S -3.80599400625000 -5.90386858437500 -1.37117180000000 
 S -1.48047200625000 -6.87023958437500 -0.101100800000002 
 S -0.829357006250002 -2.56632158437500 -4.12455080000000 
 S -3.76938000625000 -2.19402558437500 -1.22686780000000 
 S -1.38554700625000 -3.21952858437500 -9.894980000000242E-002
