16

 C -2.72358172812500 -6.69180638437500 -2.25413225625000 
 C -1.45940472812500 -7.16027338437500 -1.70916125625000 
 C -2.26756472812500 -2.93974138437500 -2.29713525625000 
 C -1.04775772812500 -3.41967438437500 -1.63976025625000 
 N -0.539944728125002 -7.49096538437500 -2.61531825625000 
 N -2.65606272812500 -6.53269738437500 -3.57423025625000 
 N -3.15415872812500 -7.00337238437500 0.285456743750000 
 N -8.108728125002074E-003 -3.52531938437500 -2.48534125625000 
 N -2.11676372812500 -2.76518138437500 -3.60171525625000 
 N -2.85453872812500 -3.19390738437500 0.188840743749999 
 S -1.13929872812500 -6.99995738437500 -4.09534425625000 
 S -3.88868872812500 -6.44968338437500 -1.07818425625000 
 S -1.54572772812500 -7.39011138437500 3.554574374999953E-002
 S -0.585731728125002 -3.23748938437500 -4.03798725625000 
 S -3.56792272812500 -2.59403338437500 -1.16724425625000 
 S -1.25697972812500 -3.63787338437500 3.211274374999951E-002
