16

 C -2.61469565625000 -6.65810082812501 -2.35956437812500 
 C -1.33562965625000 -6.88584582812500 -1.69800437812500 
 C -2.23954665625000 -2.98918782812501 -2.46542037812500 
 C -1.01567765625000 -3.44956782812501 -1.79140537812500 
 N -0.259519656249998 -6.90769282812500 -2.51459237812500 
 N -2.53105065625000 -6.45427782812501 -3.67019337812500 
 N -3.08279665625000 -7.15369582812500 0.128648621875000 
 N -2.233765624999773E-002 -3.58278982812501 -2.66448337812500 
 N -2.11795165625000 -2.76996582812501 -3.79116437812500 
 N -2.77789765625000 -2.99030482812501 4.710962187499956E-002
 S -0.863177656249998 -6.54765982812501 -4.03055837812500 
 S -3.90855365625000 -6.92400282812500 -1.28429237812500 
 S -1.38651965625000 -7.13768182812501 -1.226337812500033E-002
 S -0.558936656249998 -3.26124782812501 -4.18764637812500 
 S -3.61786865625000 -2.79985482812500 -1.40962037812500 
 S -1.18779165625000 -3.39426582812500 -2.203437812500031E-002
