16

 C -2.42675204062500 -6.35637839062500 -2.50937646250000 
 C -1.14602104062500 -6.57074939062500 -1.82711946250000 
 C -2.45120904062500 -2.16867739062500 -2.75913946250000 
 C -1.52390804062500 -2.90160539062500 -1.99541846250000 
 N -8.078304062499786E-002 -6.61729639062500 -2.60724446250000 
 N -2.22660004062500 -6.37929539062500 -3.80089646250000 
 N -3.01284104062500 -6.64828039062500 -2.947246250000135E-002
 N -0.430526040624998 -3.23361639062500 -2.68174546250000 
 N -2.10534004062500 -1.90240339062500 -4.03122146250000 
 N -3.43463504062500 -2.60470739062500 -0.322216462500001 
 S -0.597756040624998 -6.64847639062500 -4.17924046250000 
 S -3.79700704062500 -6.38775239062500 -1.45133446250000 
 S -1.31133804062500 -6.76648639062500 -9.669846250000136E-002
 S -0.581315040624998 -2.51453339062500 -4.12161546250000 
 S -3.91037904062500 -1.93501439062500 -1.78806046250000 
 S -2.02543604062500 -3.44585139062500 -0.437223462500001 
