16

 C -2.35337442500000 -6.47102781250001 -2.63797049375000 
 C -1.19075942500000 -6.88571481250001 -1.95877549375000 
 C -2.29471642500000 -2.54579181250001 -2.56473949375000 
 C -1.06353942500000 -3.07041981250001 -2.10629349375000 
 N -0.191313425000000 -7.15496781250001 -2.75845649375000 
 N -2.30072642500000 -6.32590081250001 -3.97073849375000 
 N -2.96072442500000 -6.62209581250001 -8.866349374999927E-002
 N -3.024542499999949E-002 -3.07195081250001 -2.98897949375000 
 N -2.27016142500000 -2.21572481250001 -3.86541149375000 
 N -2.73023742500000 -3.27687881250001 -6.161649374999922E-002
 S -0.719953425000000 -6.83099081250001 -4.32740549375000 
 S -3.62819442500000 -6.14102881250001 -1.54993749375000 
 S -1.35293542500000 -7.00100481250001 -0.236538493749999 
 S -0.734408425000000 -2.36228581250001 -4.36621649375000 
 S -3.52160442500000 -2.61590081250001 -1.35695349375000 
 S -1.16538342500000 -3.61116681250001 -0.425900493749999 
