16

 C -2.35843930937500 -6.55137375000000 -2.40409924375000 
 C -1.13324930937500 -6.92206575000000 -1.77019324375000 
 C -2.17307830937500 -2.61454875000000 -2.27930124375000 
 C -1.03825130937500 -3.22251975000000 -1.61689824375000 
 N -0.128645309375000 -7.01100175000000 -2.62468724375000 
 N -2.33563330937500 -6.39890175000000 -3.71635524375000 
 N -2.97721830937500 -6.79173775000000 0.110463756249999 
 N -4.972309374999817E-003 -3.52297875000000 -2.37980724375000 
 N -1.88652130937500 -2.31214775000000 -3.54826924375000 
 N -2.86279930937500 -3.18360475000000 0.165841756249999 
 S -0.757570309375000 -6.67243375000000 -4.12962524375000 
 S -3.73572530937500 -6.57879375000000 -1.29688124375000 
 S -1.35538630937500 -7.20386075000000 -3.428324375000069E-002
 S -0.339995309374999 -2.75730875000000 -3.84776424375000 
 S -3.54285730937500 -2.52123575000000 -1.22423724375000 
 S -1.25807330937500 -3.74060075000000 3.793275624999937E-002
