16

 C -2.44842356562500 -6.55695479062500 -2.31993826875000 
 C -1.14914456562500 -6.86240979062500 -1.72886126875000 
 C -2.54798756562500 -2.60308179062500 -2.43176326875000 
 C -1.42740756562500 -3.22142479062500 -1.79730426875000 
 N -0.128988565624999 -7.02974179062500 -2.57035726875000 
 N -2.37155656562500 -6.55410379062500 -3.64327926875000 
 N -2.83510156562500 -6.65349079062500 0.185562731249999 
 N -0.409496565624999 -3.41370479062500 -2.61939426875000 
 N -2.41121756562500 -2.45062979062500 -3.72947926875000 
 N -3.08412256562500 -2.85142879062500 7.022573124999854E-002
 S -0.779465565624999 -6.83744879062500 -4.11000926875000 
 S -3.75642256562500 -6.37127679062500 -1.25785726875000 
 S -1.21477656562500 -7.04103079062500 -5.512687500015545E-004
 S -0.942891565624999 -3.02283379062500 -4.15377126875000 
 S -3.91344256562500 -2.31050579062500 -1.34627726875000 
 S -1.55783356562500 -3.50985079062500 -0.106405268750001 
