16

 C -2.46500331562500 -6.21093294375000 -2.41552342500000 
 C -1.21331831562500 -6.67493394375000 -1.78645042500000 
 C -2.31171431562500 -2.93065294375000 -2.52068042500000 
 C -1.07938931562500 -3.20570594375000 -1.84924642500000 
 N -0.261443315624999 -6.99064094375000 -2.64488642500000 
 N -2.32413431562500 -6.11144994375000 -3.73636342500000 
 N -2.96045831562500 -6.35974494375000 8.748574999997594E-003
 N -8.689831562499872E-002 -3.42340694375000 -2.72750742500000 
 N -2.23209131562500 -2.87680894375000 -3.85602942500000 
 N -2.88299031562500 -3.08921994375000 -3.606942500000243E-002
 S -0.820928315624999 -6.52996894375000 -4.13161842500000 
 S -3.83031731562500 -5.95261294375000 -1.41964742500000 
 S -1.36774831562500 -6.69685294375000 -7.442342500000243E-002
 S -0.612815315624999 -3.11766994375000 -4.25411542500000 
 S -3.70374431562500 -2.92033694375000 -1.45325542500000 
 S -1.22637331562500 -3.46987294375000 -7.581142500000237E-002
