16

 C -2.52263376562500 -6.37328061875001 -2.29336651250000 
 C -1.30820676562499 -6.86871861875001 -1.70760251250000 
 C -2.55469176562499 -2.97158961875001 -2.46303251250000 
 C -1.31783376562499 -3.37493261875001 -1.84790651250000 
 N -0.332032765624995 -7.06130361875001 -2.60233751250000 
 N -2.53777676562499 -6.20635061875001 -3.63976751250000 
 N -3.05336576562499 -6.77245161875001 0.224272487499999 
 N -0.277678765624995 -3.32091961875001 -2.58809651250000 
 N -2.44271076562499 -2.79358161875001 -3.78103051250000 
 N -2.98676276562500 -3.23308361875001 9.399548749999931E-002
 S -0.994038765624995 -6.53654161875001 -4.10237351250000 
 S -3.85088876562499 -6.22466061875001 -1.17591251250000 
 S -1.44807076562499 -7.13814461875001 2.502248749999936E-002
 S -0.839500765624995 -2.98941961875001 -4.15467251250000 
 S -3.81546776562499 -2.96934261875001 -1.28827251250000 
 S -1.40546376562499 -3.76657961875001 -0.193223512500001 
