16

 C -2.47282713125000 -6.67887352812500 -2.29259772187500 
 C -1.20596913125000 -6.92739652812500 -1.63886472187500 
 C -2.35706013125000 -2.60789252812500 -2.52104072187500 
 C -1.11630513125000 -3.18295852812500 -2.02922872187500 
 N -0.109850131250003 -6.86480752812500 -2.39919772187500 
 N -2.31535513125000 -6.45861052812500 -3.60652872187500 
 N -2.90765013125000 -6.79971552812500 0.298175278124997 
 N -0.156801131250003 -3.31482252812500 -2.93486772187500 
 N -2.42021813125000 -2.45905252812500 -3.85550572187500 
 N -2.58124713125000 -2.93169252812500 2.830927812499739E-002
 S -0.719621131250003 -6.58248952812500 -3.88068172187500 
 S -3.73108113125000 -6.61642452812500 -1.18887672187500 
 S -1.28263513125000 -7.08089552812500 6.401027812499738E-002
 S -0.907157131250003 -2.96592552812500 -4.34585772187500 
 S -3.51865713125000 -2.42658952812500 -1.27383372187500 
 S -1.09695513125000 -3.48549952812500 -0.353094721875003 
