16

 C -2.76481706250000 -6.68806170937500 -2.37582176250000 
 C -1.52840806250000 -7.05962770937500 -1.68887176250000 
 C -2.47859106250000 -3.18056270937500 -2.36337876250000 
 C -1.09056106250000 -3.22384970937500 -1.87770376250000 
 N -0.506360062500004 -7.13694070937500 -2.55060276250000 
 N -2.64078306250000 -6.47066070937500 -3.67676876250000 
 N -3.18549906250000 -6.62812470937500 0.236071237500002 
 N -0.127429062500005 -3.17303370937500 -2.79797976250000 
 N -2.51369106250000 -3.18290270937500 -3.68368676250000 
 N -2.75759906250000 -3.10761770937500 0.134356237500002 
 S -1.07537506250000 -6.81291170937500 -4.07677476250000 
 S -4.00001006250000 -6.22154970937500 -1.16636976250000 
 S -1.56172506250000 -6.93304470937500 1.594423750000140E-002
 S -0.974034062500004 -3.21575270937500 -4.27374276250000 
 S -3.75477806250000 -3.05667170937500 -1.25099276250000 
 S -1.13203706250000 -3.28861670937500 -9.905376249999853E-002
