16

 C -2.39197650937500 -6.37512081562500 -2.55586660312500 
 C -1.20937250937500 -6.68205381562500 -1.83941460312500 
 C -2.41974950937500 -2.86625081562500 -2.48714560312500 
 C -1.14001350937500 -3.22572081562500 -1.90081060312500 
 N -0.131506509375000 -6.86478981562500 -2.64360160312500 
 N -2.21988750937500 -6.23491081562500 -3.86394560312500 
 N -3.12569550937500 -6.34319481562500 -6.567260312499923E-002
 N -0.107349509375000 -3.22677281562500 -2.75249960312500 
 N -2.32492750937500 -2.69378581562500 -3.80796460312500 
 N -2.93398350937500 -2.87526881562500 -5.932060312499909E-002
 S -0.640784509375000 -6.57467581562500 -4.21997860312500 
 S -3.84361250937500 -6.22579481562500 -1.55470160312500 
 S -1.49368450937500 -6.80824281562500 -0.128772603124999 
 S -0.734917509375000 -2.94116381562500 -4.27974160312500 
 S -3.74597050937500 -2.52470281562500 -1.49373560312500 
 S -1.25543450937500 -3.18324081562500 -0.171854603124999 
