16

 C -2.38068451562500 -6.58115740937500 -2.50722137187500 
 C -1.11335151562500 -7.04026940937500 -1.92344137187500 
 C -2.36451051562500 -2.89188040937500 -2.49969937187500 
 C -1.29165151562500 -3.53236140937500 -1.82070437187500 
 N -0.113097515625004 -7.10998940937500 -2.78248237187500 
 N -2.27353551562500 -6.29362140937500 -3.81535537187500 
 N -2.84131351562500 -7.09876040937500 4.767628125001533E-003
 N -0.243339515625004 -3.84952340937500 -2.52907737187500 
 N -2.18081551562500 -2.69771940937500 -3.80058537187500 
 N -3.12400651562500 -3.16629140937500 -5.272037187499867E-002
 S -0.703347515625004 -6.58059340937500 -4.21750337187500 
 S -3.74579351562500 -6.67545940937500 -1.30811537187500 
 S -1.17581751562500 -7.35741540937500 -0.238854371874999 
 S -0.665537515625004 -3.27947240937500 -4.12008737187500 
 S -3.77643551562500 -2.69841140937500 -1.47532337187500 
 S -1.51439751562500 -3.70706340937500 -9.043737187499845E-002
