16

 C -2.56455948437500 -6.39581136874999 -2.48447311250000 
 C -1.42376848437500 -6.85068236874999 -1.70885311250000 
 C -2.46628048437500 -2.99520836874999 -2.35192311250000 
 C -1.18486248437500 -3.19458636874999 -1.69533211250000 
 N -0.419602484374999 -7.24476036874999 -2.47483711250000 
 N -2.45931848437500 -6.43185236874999 -3.83125111250000 
 N -3.23596148437500 -6.24963436874999 2.145988749999983E-002
 N -0.158775484374999 -3.35215136874999 -2.55035111250000 
 N -2.38561248437500 -2.97597736874999 -3.68281611250000 
 N -3.05951448437500 -3.10488736874999 0.153186887500000 
 S -0.858745484375000 -6.95694536874999 -4.08026411250000 
 S -3.90973948437500 -5.79653936874999 -1.49282911250000 
 S -1.65187448437500 -6.71609536874999 -3.256011250000035E-002
 S -0.771412484374999 -3.18484136874999 -4.03471011250000 
 S -3.76795748437500 -2.86191836874999 -1.29348911250000 
 S -1.41283348437500 -3.40614636874999 6.918788749999982E-002
