16

 C -2.41571209062500 -6.52636439062501 -2.51777731562500 
 C -1.16091209062500 -6.94164039062501 -1.92884031562500 
 C -2.70241309062500 -2.65889239062501 -2.31076531562500 
 C -1.51367309062500 -3.21264139062501 -1.64497331562500 
 N -0.128224090625002 -7.09408639062501 -2.76143331562500 
 N -2.29293309062500 -6.37879639062501 -3.82217131562500 
 N -2.91066609062500 -6.75800939062501 -0.109462315625001 
 N -0.531539090625002 -3.44501639062501 -2.51818331562500 
 N -2.56659809062500 -2.37033639062501 -3.59241931562500 
 N -3.32156409062500 -2.83475139062501 0.114270684374999 
 S -0.752348090625002 -6.68933439062501 -4.26908431562500 
 S -3.74828309062500 -6.28269839062501 -1.45824531562500 
 S -1.29812109062500 -7.16231539062501 -0.150099315625001 
 S -1.01202509062500 -2.93349939062501 -3.99140731562500 
 S -3.99525609062500 -2.19125039062501 -1.29881531562500 
 S -1.70646909062500 -3.41950039062501 4.819368437499905E-002
