16

 C -2.32165944062499 -6.62136686250000 -2.31956862187500 
 C -0.937108440624991 -6.83343486250000 -1.87505162187500 
 C -2.55745544062499 -2.82748286250000 -2.40447462187500 
 C -1.42746844062499 -3.36701086250000 -1.76272262187500 
 N -1.768544062499089E-002 -6.94459686250000 -2.82790762187500 
 N -2.41807844062499 -6.45798286250000 -3.64455062187500 
 N -2.40112444062499 -6.93514286250000 0.235862378125000 
 N -0.356550440624991 -3.48182886250000 -2.52816262187500 
 N -2.43522844062499 -2.64410486250000 -3.70785562187500 
 N -3.11930344062499 -2.91695586250000 0.107023378125000 
 S -0.864089440624991 -6.74218586250000 -4.28419362187500 
 S -3.48818844062499 -6.78169286250000 -1.03806462187500 
 S -0.806157440624991 -7.19416086250000 -0.181193621875000 
 S -0.839433440624991 -3.10455386250000 -4.07841562187500 
 S -3.87477844062499 -2.49014586250000 -1.33096962187500 
 S -1.56329544062499 -3.43921486250000 -2.439062187500030E-002
