16

 C -2.32780567500000 -6.27908206562501 -2.32444644687500 
 C -1.08068467500000 -6.73430506562501 -1.78046744687500 
 C -2.60074067500000 -2.54892406562501 -2.54852644687500 
 C -1.53049467500000 -3.17009706562501 -1.82842344687500 
 N -0.142750674999999 -6.97162306562501 -2.68518144687500 
 N -2.28119667500000 -6.11285706562501 -3.63477244687500 
 N -2.89384767500000 -6.74552706562501 2.323055312500233E-002
 N -0.545965674999999 -3.50997006562501 -2.62454144687500 
 N -2.36289467500000 -2.37142606562501 -3.82610044687500 
 N -3.19352367500000 -2.62160806562501 -2.617344687499767E-002
 S -0.788582674999999 -6.48479806562501 -4.13958044687500 
 S -3.55373767500000 -5.93950506562501 -1.25168944687500 
 S -1.20750167500000 -7.09406206562501 -1.286844687499755E-002
 S -0.913699674999999 -3.12395206562501 -4.21230544687500 
 S -3.87281667500000 -2.13411006562501 -1.50276644687500 
 S -1.63133767500000 -3.11981606562501 -9.786244687499757E-002
