16

 C -2.28330727187500 -6.48966196250000 -2.23929988437500 
 C -1.09160127187500 -6.97793496250000 -1.64666188437500 
 C -2.34388727187500 -2.58521996250000 -2.51421088437500 
 C -1.13533427187500 -3.26333796250000 -2.05399488437500 
 N -0.118340271875001 -7.18239396250000 -2.54810788437500 
 N -2.27623027187500 -6.23686896250000 -3.56065488437500 
 N -2.82730127187500 -6.66896696250000 0.346577115624999 
 N -0.158745271875000 -3.39524596250000 -2.98116888437500 
 N -2.32750927187500 -2.28788796250000 -3.81919188437500 
 N -2.71307127187500 -3.14434196250000 5.305611562499890E-002
 S -0.751507271875001 -6.70987996250000 -4.01946188437500 
 S -3.65175827187500 -6.48777196250000 -1.14140488437500 
 S -1.25235627187500 -7.15532796250000 0.100212115624999 
 S -0.885490271875001 -2.80202096250000 -4.38764588437500 
 S -3.53773827187500 -2.41609696250000 -1.20930388437500 
 S -1.13193427187500 -3.49020596250000 -0.249140884375001 
