16

 C -2.54524709375000 -6.47734749062500 -2.30551865937500 
 C -1.37768009375000 -6.89860249062500 -1.62894665937500 
 C -2.45606309375000 -2.85274449062500 -2.15896665937500 
 C -1.19527909375000 -3.25817349062500 -1.56683365937500 
 N -0.372141093750000 -7.09481349062500 -2.48262865937500 
 N -2.48546809375000 -6.25568849062500 -3.62887165937500 
 N -3.11719609375000 -6.70524449062500 0.320617340625000 
 N -0.212258093749999 -3.50061249062500 -2.41058765937500 
 N -2.41140809375000 -2.78963649062500 -3.48075165937500 
 N -2.84160409375000 -2.92533149062500 0.319053340625000 
 S -0.910390093749999 -6.61314549062500 -3.97528065937500 
 S -3.86061109375000 -6.33960149062500 -1.13135165937500 
 S -1.56199709375000 -7.10178249062500 0.112745340625000 
 S -0.805826093749999 -3.17049249062500 -3.90236265937500 
 S -3.73863709375000 -2.68761749062500 -1.08311465937500 
 S -1.24819009375000 -3.39702949062500 0.128511340625000 
