16

 C -2.67625321562500 -6.33686552500000 -2.35300256250000 
 C -1.48049321562500 -6.81717552500000 -1.71030256250000 
 C -2.35484921562500 -2.74919152500000 -2.49034856250000 
 C -1.16486321562500 -3.05009952500000 -1.77413556250000 
 N -0.448813215625004 -7.13742152500000 -2.52627756250000 
 N -2.53433821562500 -6.25513852500000 -3.69100356250000 
 N -3.16478621562500 -6.25191652500000 0.207805437500000 
 N -7.398121562500304E-002 -3.24476052500000 -2.47082956250000 
 N -2.19671821562500 -2.68969452500000 -3.80586356250000 
 N -3.02212621562500 -2.85088752500000 5.602243749999958E-002
 S -1.04221321562500 -6.78730852500000 -4.06158756250000 
 S -3.96382821562500 -5.98319452500000 -1.26176256250000 
 S -1.71622421562500 -6.96699752500000 3.315943749999950E-002
 S -0.609832215625003 -3.03291052500000 -4.13945156250000 
 S -3.70016021562500 -2.39802952500000 -1.42168656250000 
 S -1.42876421562500 -3.22996352500000 -6.832056250000029E-002
