16

 C -2.48228912500000 -6.44385306562500 -2.38437675625000 
 C -1.22445912500000 -6.81878806562500 -1.82151675625000 
 C -2.32384712500000 -2.92231706562500 -2.45410375625000 
 C -1.04494612500000 -3.31285906562500 -1.79213275625000 
 N -0.234940125000000 -6.97698006562500 -2.71183375625000 
 N -2.44809312500000 -6.32055806562500 -3.70587875625000 
 N -2.92996812500000 -6.50130706562500 0.183002243749998 
 N -2.223312500000052E-002 -3.47474006562500 -2.64970475625000 
 N -2.24619012500000 -2.88986406562500 -3.80032875625000 
 N -2.81129512500000 -3.18412006562500 0.109601243749998 
 S -0.930367125000000 -6.72209706562500 -4.22248475625000 
 S -3.77958912500000 -6.28015006562500 -1.23624475625000 
 S -1.34537312500000 -6.92694406562500 -2.169575625000153E-002
 S -0.663478125000000 -3.19881306562500 -4.13933675625000 
 S -3.64052012500000 -2.70396906562500 -1.26006075625000 
 S -1.21588112500000 -3.49398906562500 -8.337575625000193E-002
