16

 C -2.59345712500000 -6.59254461875000 -2.30124025000000 
 C -1.39797012500000 -7.03341861875000 -1.65822125000000 
 C -2.76107012500000 -2.52170061875000 -2.39805525000000 
 C -1.62107212500000 -3.09113261875000 -1.63234025000000 
 N -0.364234124999999 -7.17569461875000 -2.46652425000000 
 N -2.51083112500000 -6.46199961875000 -3.61269525000000 
 N -3.10990012500000 -6.84975861875000 0.227213750000001 
 N -0.548792124999999 -3.33208861875000 -2.37956225000000 
 N -2.51089412500000 -2.28121061875000 -3.68580325000000 
 N -3.43495112500000 -2.61564761875000 5.935175000000137E-002
 S -0.886250124999999 -6.79768561875000 -3.97767725000000 
 S -3.91099112500000 -6.47474361875000 -1.17788025000000 
 S -1.48313512500000 -7.39958361875000 5.157275000000139E-002
 S -0.987156124999999 -2.82731461875000 -3.91903725000000 
 S -4.00191412500000 -2.02169461875000 -1.33812425000000 
 S -1.96501012500000 -3.41298461875000 4.506750000001336E-003
