16

 C -2.43979309687500 -6.46515257812500 -2.30745547812500 
 C -1.15777309687500 -6.81916457812500 -1.76029547812500 
 C -2.55761109687500 -2.81770557812500 -2.40016947812500 
 C -1.34522309687500 -3.20301057812500 -1.73509247812500 
 N -0.155900096874998 -6.91877857812500 -2.63895847812500 
 N -2.37572609687500 -6.22128757812500 -3.61957147812500 
 N -2.79143109687500 -6.87443857812500 0.215721521875001 
 N -0.283065096874998 -3.41639857812500 -2.55076647812500 
 N -2.42816009687500 -2.69317057812500 -3.72677347812500 
 N -3.17119709687500 -2.92957757812500 0.106463521875001 
 S -0.810009096874998 -6.62055257812500 -4.10771047812500 
 S -3.73742609687500 -6.47074157812500 -1.13558447812500 
 S -1.20868509687500 -7.17772957812500 -8.452147812499877E-002
 S -0.803237096874998 -3.06185357812500 -4.00890547812500 
 S -3.85964909687500 -2.42557957812500 -1.32211547812500 
 S -1.61105909687500 -3.46367357812500 1.795852187500135E-002
