16

 C -2.57107912187500 -6.46672960312500 -2.32188715625000 
 C -1.32482112187500 -6.89533460312500 -1.71973315625000 
 C -2.58589512187500 -3.06363660312500 -2.46031815625000 
 C -1.33208512187500 -3.39773860312500 -1.84204315625000 
 N -0.360337121874998 -7.02942860312500 -2.60472915625000 
 N -2.47912412187500 -6.19377360312500 -3.59002915625000 
 N -3.07563012187500 -6.77368560312500 0.185538843750001 
 N -0.258742121874998 -3.37737160312500 -2.69797015625000 
 N -2.49255412187500 -2.85264260312500 -3.77758315625000 
 N -2.96214712187500 -3.27587860312500 0.102662843750001 
 S -0.912400121874998 -6.57387160312500 -4.09601615625000 
 S -3.81010512187500 -6.25086360312500 -1.20224215625000 
 S -1.42684412187500 -7.08559360312500 1.340284375000067E-002
 S -0.839495121874998 -3.01776060312500 -4.12036715625000 
 S -3.87351412187500 -3.02227160312500 -1.27705915625000 
 S -1.40656312187500 -3.76868060312500 -0.132201156249999 
