16

 C -2.52888830312500 -6.32403684062500 -2.28963665000000 
 C -1.33810430312500 -6.91225184062500 -1.66601265000000 
 C -2.29573230312500 -2.31726684062500 -2.51637665000000 
 C -1.10916630312500 -2.76675084062500 -1.86171465000000 
 N -0.275588303124997 -7.08362184062500 -2.48705465000000 
 N -2.33785730312500 -6.00040884062500 -3.56934265000000 
 N -3.15845930312500 -6.67489484062500 0.139165350000000 
 N -0.121774303124997 -3.00849084062500 -2.71030265000000 
 N -2.20973030312500 -2.23681684062500 -3.81570965000000 
 N -2.86117230312500 -2.46779384062500 -8.979649999999673E-003
 S -0.842185303124997 -6.57580084062500 -4.01046265000000 
 S -3.79667930312500 -5.99133484062500 -1.22051965000000 
 S -1.58254230312500 -7.22251684062500 3.966835000000035E-002
 S -0.665205303124997 -2.71186284062500 -4.23905265000000 
 S -3.60923630312500 -1.84482684062500 -1.37239165000000 
 S -1.37525430312500 -3.14521584062500 -0.194303650000000 
