16

 C -2.28006732500000 -6.42500428750000 -2.28280950312500 
 C -0.987637325000003 -6.90710628750000 -1.81664150312500 
 C -2.66795332500000 -2.55875628750000 -2.48328650312500 
 C -1.52361832500000 -3.17200428750000 -1.81377950312500 
 N -9.890325000003308E-003 -6.90309628750000 -2.72131650312500 
 N -2.25606732500000 -6.11167528750000 -3.57795350312500 
 N -2.59023032500000 -6.68454228750000 0.225668496875000 
 N -0.488183325000003 -3.44222528750000 -2.54360550312500 
 N -2.40432132500000 -2.35901128750000 -3.75576150312500 
 N -3.32426932500000 -2.98398728750000 -2.271350312499987E-002
 S -0.754641325000003 -6.41619528750000 -4.14639050312500 
 S -3.49889032500000 -6.29288628750000 -1.08842650312500 
 S -1.01019832500000 -7.19483728750000 -9.733550312499961E-002
 S -0.892310325000003 -2.85993028750000 -4.15119850312500 
 S -4.03008632500000 -2.38662028750000 -1.40624850312500 
 S -1.72557532500000 -3.35072428750000 -9.092650312499950E-002
