16

 C -2.66907603437501 -6.66804854062499 -2.19776538437500 
 C -1.42910103437501 -7.03758054062499 -1.54184338437500 
 C -2.25742703437500 -2.50897654062499 -2.43643738437500 
 C -1.09118403437501 -3.24412754062499 -1.82343138437500 
 N -0.325204034375005 -7.04943254062499 -2.30314638437500 
 N -2.40992303437501 -6.30137254062499 -3.45532538437500 
 N -3.25310903437501 -6.95199654062499 0.298607615625000 
 N -0.110665034375005 -3.46341854062499 -2.69840538437500 
 N -2.09521503437501 -2.26066154062499 -3.74194438437500 
 N -2.87936303437501 -2.89885954062499 3.979161562499978E-002
 S -0.830653034375005 -6.44726054062499 -3.73322638437500 
 S -4.04324103437501 -6.63610854062499 -1.13968338437500 
 S -1.64565303437501 -7.30464754062499 0.165644615625000 
 S -0.655254034375005 -2.84384354062499 -4.14049538437500 
 S -3.59522003437501 -2.33293054062499 -1.33289538437500 
 S -1.38260303437501 -3.56240154062499 -0.181098384375000 
