16

 C -2.55069096250001 -6.25271072187500 -2.45907318750000 
 C -1.28386296250001 -6.58636772187500 -1.86616018750000 
 C -2.41041496250001 -2.92778672187500 -2.52383318750000 
 C -1.16122596250001 -3.14896972187500 -1.79766918750000 
 N -0.247044962500007 -6.65753572187500 -2.72460218750000 
 N -2.49709096250001 -6.13054072187500 -3.78759218750000 
 N -3.05473096250001 -6.52631972187500 2.939081250000020E-002
 N -9.204096250000671E-002 -3.39997072187500 -2.55650818750000 
 N -2.30760596250001 -2.96059272187500 -3.86358518750000 
 N -3.02697596250001 -2.76771372187500 -8.464118749999971E-002
 S -0.913641962500006 -6.47252572187500 -4.24041618750000 
 S -3.76022996250001 -6.02898172187500 -1.33235618750000 
 S -1.43001096250001 -6.80030672187500 -0.142717187500000 
 S -0.735503962500006 -3.41725972187500 -4.13184318750000 
 S -3.78161296250001 -2.69260672187500 -1.51872018750000 
 S -1.44045096250001 -3.14664472187500 -0.162609187500000 
