16

 C -2.36766469375000 -6.34369835937500 -2.47431691562500 
 C -1.21351369375000 -6.85166435937500 -1.73945791562500 
 C -2.60595669375000 -2.74244935937500 -2.57500491562500 
 C -1.39101069375000 -3.04051435937500 -1.88810991562500 
 N -0.131963693749999 -7.20097835937500 -2.49496991562500 
 N -2.11466769375000 -6.41243135937500 -3.79175991562500 
 N -2.98813869375000 -6.38178635937500 6.490708437500126E-002
 N -0.364822693749999 -3.10657035937500 -2.69978191562500 
 N -2.46088769375000 -2.48958035937500 -3.85653891562500 
 N -3.12549669375000 -2.88518435937500 -4.045891562499859E-002
 S -0.544709693749999 -6.93172635937500 -4.07529691562500 
 S -3.70868269375000 -6.03614035937500 -1.38749691562500 
 S -1.32847269375000 -6.79683335937500 -9.995915624998686E-003
 S -0.840872693749999 -2.77316935937500 -4.26776891562500 
 S -3.90916769375000 -2.69108435937500 -1.47372291562500 
 S -1.49991869375000 -3.06497235937500 -0.153172915624999 
