16

 C -2.32095773125000 -6.30475765625000 -2.55270449062500 
 C -1.05599973125000 -6.55874565625000 -1.83441549062500 
 C -2.52754073125000 -2.46062365625000 -2.72191749062500 
 C -1.51241373125000 -3.17027365625000 -1.98193749062500 
 N -2.243731249999215E-003 -6.85206565625000 -2.62367949062500 
 N -2.20910873125000 -6.27777665625000 -3.87175549062500 
 N -2.93512673125000 -6.65916765625000 -3.299649062500198E-002
 N -0.349296731249999 -3.20988865625000 -2.57801849062500 
 N -2.16652173125000 -2.01363865625000 -3.89851249062500 
 N -3.41610273125000 -2.64884565625000 -0.339609490625002 
 S -0.645563731249999 -6.64132765625000 -4.14364149062500 
 S -3.71289673125000 -6.39220165625000 -1.53813449062500 
 S -1.33026673125000 -6.74330165625000 -9.495949062500197E-002
 S -0.582747731249999 -2.57513865625000 -4.13770049062500 
 S -3.99430273125000 -2.01582865625000 -1.77032649062500 
 S -1.95846573125000 -3.41952165625000 -0.315330490625002 
