16

 C -2.34996600312500 -6.52136943437500 -2.19649680000000 
 C -1.15181200312500 -6.98201643437500 -1.53550580000000 
 C -2.43803200312500 -2.70585143437500 -2.50693080000000 
 C -1.14493800312500 -3.05940943437500 -1.88503180000000 
 N -0.121219003125003 -7.02721543437500 -2.37185480000000 
 N -2.18950500312500 -6.21270043437500 -3.49718180000000 
 N -2.96470900312500 -7.11029543437500 0.274103200000001 
 N -0.120331003125004 -3.12226243437500 -2.73890480000000 
 N -2.32775900312500 -2.50182643437500 -3.82479780000000 
 N -2.87132600312500 -3.02373843437500 3.407720000000114E-002
 S -0.625709003125003 -6.50059443437500 -3.82925480000000 
 S -3.76461600312500 -6.65534043437500 -1.11972080000000 
 S -1.33864100312500 -7.35125743437500 0.143566200000001 
 S -0.806918003125003 -2.85374843437500 -4.23862180000000 
 S -3.67563000312500 -2.36858643437500 -1.31627380000000 
 S -1.22559100312500 -3.25289243437500 -0.100203799999999 
