16

 C -2.36449201562500 -6.52156992812500 -2.47062909375000 
 C -1.14553301562500 -6.82227792812500 -1.80248909375000 
 C -2.55490501562500 -2.76005892812499 -2.42010309375000 
 C -1.44597201562500 -3.29271692812500 -1.67963409375000 
 N -9.964401562500402E-002 -6.91872992812499 -2.61079809375000 
 N -2.25152801562500 -6.17255292812500 -3.76824009375000 
 N -2.93238001562500 -6.60131592812500 2.402890624999898E-002
 N -0.409955015625004 -3.51847392812499 -2.47661509375000 
 N -2.39232101562500 -2.54365192812499 -3.69723409375000 
 N -3.38382101562500 -3.00526592812499 -2.881093750001007E-003
 S -0.647522015625004 -6.51092192812500 -4.11620209375000 
 S -3.81493501562500 -6.39725892812499 -1.36533909375000 
 S -1.30897601562500 -6.92225192812499 -8.498009375000093E-002
 S -0.779594015625004 -2.95099392812500 -3.99110909375000 
 S -3.97162501562500 -2.58187892812499 -1.46960409375000 
 S -1.76203401562500 -3.48181092812499 8.599906249999067E-003
