16

 C -2.38957773125000 -6.63662305312500 -2.26261357812500 
 C -1.16553373125000 -6.96046105312500 -1.62009857812500 
 C -2.40448673125000 -2.63400405312500 -2.50359457812500 
 C -1.11656473125000 -3.10166305312500 -2.03573357812500 
 N -0.130581731249999 -6.99369805312500 -2.43203157812500 
 N -2.33464873125000 -6.36272705312500 -3.57356957812500 
 N -2.87585973125000 -6.70244205312500 0.236253421875000 
 N -0.224645731249998 -3.39591505312500 -2.93419757812500 
 N -2.36596373125000 -2.42466405312500 -3.80959857812500 
 N -2.63131273125000 -2.99334705312500 -3.019578125000200E-003
 S -0.686789731249998 -6.60412605312500 -3.96105557812500 
 S -3.77966973125000 -6.59231705312500 -1.13754957812500 
 S -1.24782473125000 -7.10826305312500 8.785142187499995E-002
 S -0.898362731249999 -2.88871405312500 -4.37875457812500 
 S -3.55451573125000 -2.41144805312500 -1.21675757812500 
 S -1.05903373125000 -3.50364505312500 -0.358806578125000 
