16

 C -2.44661810312500 -6.31555569687500 -2.45483446250000 
 C -1.26940310312500 -6.82832069687500 -1.82113846250000 
 C -2.53725810312500 -2.60022369687500 -2.17182446250000 
 C -1.32791310312500 -3.28309369687500 -1.62587546250000 
 N -0.286648103124997 -7.11343869687500 -2.65188046250000 
 N -2.36511210312500 -6.20458269687500 -3.77240246250000 
 N -3.10815710312500 -6.74177069687500 -4.795846249999913E-002
 N -0.322594103124997 -3.43317469687500 -2.49652046250000 
 N -2.39182510312500 -2.34558069687500 -3.48115146250000 
 N -2.95449610312500 -2.85666769687500 0.350018537500001 
 S -0.834561103124997 -6.68734669687500 -4.19237146250000 
 S -3.78769910312500 -5.91368469687500 -1.35349646250000 
 S -1.49173010312500 -7.19349669687500 -0.178968462499999 
 S -0.906706103124997 -2.86952869687500 -3.96566046250000 
 S -3.73659810312500 -2.29023169687500 -0.985211462499999 
 S -1.38375610312500 -3.41801969687500 0.120036537500001 
