16

 C -2.26951038437500 -6.08054672812499 -2.28681490000000 
 C -1.10330338437500 -6.73353572812499 -1.75688790000000 
 C -2.74201438437500 -2.46452272812499 -2.71849790000000 
 C -1.47879438437500 -2.81474572812500 -2.09358990000000 
 N -0.188580384375005 -7.04189472812500 -2.64520290000000 
 N -2.23503438437500 -5.84260972812499 -3.59703590000000 
 N -2.66106838437500 -6.40381172812499 0.296065099999999 
 N -0.470781384375004 -3.08973072812499 -2.94772090000000 
 N -2.64806838437500 -2.27412672812499 -4.06194090000000 
 N -3.19717738437500 -2.39454572812499 -0.159775900000001 
 S -0.805407384375004 -6.54194672812499 -4.13443090000000 
 S -3.48165038437500 -5.74696272812499 -1.02766290000000 
 S -1.19238238437500 -7.03351672812499 -3.200590000000147E-002
 S -1.12868738437500 -2.75458372812500 -4.40540290000000 
 S -3.99402038437500 -2.17517672812499 -1.62510890000000 
 S -1.62581238437500 -2.82639972812499 -0.350501900000002 
