16

 C -2.44663735937501 -6.82819844062500 -2.38322892812500 
 C -1.16955335937501 -7.02660144062500 -1.75591092812500 
 C -2.15626835937501 -2.80900744062500 -2.44857692812500 
 C -1.02729035937501 -3.29133644062500 -1.73660092812500 
 N -0.163129359375012 -6.89601844062500 -2.57871792812500 
 N -2.45260635937501 -6.48909244062500 -3.67707992812500 
 N -3.06427035937501 -7.09869344062500 0.130660071875002 
 N 8.106564062498833E-002 -3.50763744062500 -2.43173592812500 
 N -1.96691935937501 -2.84715544062500 -3.76098792812500 
 N -2.84448935937501 -3.05459944062500 4.470407187500181E-002
 S -0.820881359375012 -6.51415644062500 -4.10076392812500 
 S -3.83453135937501 -6.84981744062500 -1.31028792812500 
 S -1.37353935937501 -7.21085444062500 -7.549928124998218E-003
 S -0.348239359375013 -3.16712244062500 -3.97214792812500 
 S -3.54718735937501 -2.62307144062500 -1.40807592812500 
 S -1.29147035937501 -3.57032044062500 -3.837492812499832E-002
