16

 C -2.45977193125000 -6.34194105312500 -2.54810679062500 
 C -1.29119093125000 -6.81672705312500 -1.83297779062500 
 C -2.37758193125000 -2.59779005312500 -2.49172679062500 
 C -1.29533193125000 -3.28433505312500 -1.77603379062500 
 N -0.180428931250001 -7.00460805312500 -2.56988279062500 
 N -2.21392193125000 -6.20736705312500 -3.83309779062500 
 N -3.24249493125000 -6.73755705312500 -0.168343790624999 
 N -0.308429931250000 -3.62635605312500 -2.55902079062500 
 N -2.11981893125000 -2.27865505312500 -3.76227079062500 
 N -3.01853393125000 -2.79738105312500 4.732420937500104E-002
 S -0.643280931250001 -6.60941305312500 -4.12150379062500 
 S -3.84914193125000 -6.13654105312500 -1.58511479062500 
 S -1.58447093125000 -6.97705105312500 -9.024879062499891E-002
 S -0.689425931250001 -3.06628405312500 -4.12909879062500 
 S -3.64390093125000 -2.24910705312500 -1.35499379062500 
 S -1.40676693125000 -3.35202405312500 -0.111565790624999 
