16

 C -2.50048879375000 -6.60475627812500 -2.45740547812500 
 C -1.17455179375000 -6.79617727812500 -1.78945647812500 
 C -2.46046579375000 -2.19434427812500 -2.80894647812500 
 C -1.47649779375000 -2.89423827812500 -2.09622147812500 
 N -0.124726793749996 -6.65289027812500 -2.60345747812500 
 N -2.40063579375000 -6.44551027812500 -3.79615647812500 
 N -2.97344679375000 -6.48767927812500 6.705352187500013E-002
 N -0.346012793749996 -3.13667427812500 -2.77307047812500 
 N -2.17131679375000 -1.83536427812500 -4.07663547812500 
 N -3.45711779375000 -2.73092627812500 -0.488826478125000 
 S -0.800368793749996 -6.37743427812500 -4.09723647812500 
 S -3.86162179375000 -6.41733227812500 -1.40572247812500 
 S -1.38199179375000 -6.81331927812500 2.517752187500011E-002
 S -0.635870793749996 -2.49044627812500 -4.30965647812500 
 S -3.82662679375000 -1.97146227812500 -1.89334447812500 
 S -1.87812279375000 -3.23804327812500 -0.427879478125000 
