16

 C -2.22515766875001 -6.90684300312499 -2.53685597187500 
 C -1.04304066875001 -7.34240300312499 -1.81745397187500 
 C -2.56832266875001 -2.69812300312499 -2.56509297187500 
 C -1.35541166875001 -3.14689400312499 -1.95870097187500 
 N -3.146266875000681E-002 -7.61834600312499 -2.64566797187500 
 N -2.17905266875001 -6.93250100312499 -3.82672497187500 
 N -2.76770866875001 -6.61673500312499 -0.118465971875000 
 N -0.361412668750006 -3.50593100312499 -2.76930797187500 
 N -2.45023866875001 -2.55190100312499 -3.90951697187500 
 N -3.02230366875001 -2.66224100312499 -1.640297187500028E-002
 S -0.633403668750007 -7.43843200312499 -4.19131297187500 
 S -3.46506366875001 -6.26753800312499 -1.56032997187500 
 S -1.15963466875001 -7.21213300312499 -0.174814971875000 
 S -0.929214668750006 -2.97510500312499 -4.28434197187500 
 S -3.82234266875001 -2.33776100312499 -1.38227597187500 
 S -1.46052766875001 -3.21629200312499 -0.204284971875000 
