16

 C -2.37108982187501 -6.59662451250001 -2.35511436875000 
 C -1.09401682187501 -6.96452851250000 -1.77408836875000 
 C -2.21784482187501 -3.38594251250001 -2.23696536875000 
 C -1.01043682187501 -3.62518851250000 -1.54085036875000 
 N -0.135398821875008 -7.19107251250001 -2.65714736875000 
 N -2.32019682187501 -6.59478951250000 -3.66834736875000 
 N -2.82000682187501 -6.54198851250001 0.118606631250000 
 N 4.793217812499151E-002 -3.71232451250000 -2.35516636875000 
 N -2.11993382187501 -3.37933451250001 -3.60558436875000 
 N -2.81723482187501 -3.22377951250000 0.291168631250000 
 S -0.779342821875009 -6.91312951250000 -4.16596336875000 
 S -3.66982182187501 -6.36406151250000 -1.31237936875000 
 S -1.22561182187501 -6.90635851250001 -2.475236875000020E-002
 S -0.468876821875009 -3.63796051250000 -3.87967636875000 
 S -3.57310182187501 -3.17279851250000 -1.17146136875000 
 S -1.19012182187501 -3.58914651250000 0.178093631250000 
