16

 C -2.33898275312500 -6.08290869374999 -2.21951690625000 
 C -1.16422375312500 -6.65550869374999 -1.62626890625000 
 C -2.63336975312500 -2.47023669374999 -2.61164290625000 
 C -1.38034075312500 -2.84719869374999 -1.96081990625000 
 N -0.182605753125002 -6.92338769374999 -2.49289290625000 
 N -2.24793675312500 -5.81711469374999 -3.53646690625000 
 N -2.72458375312500 -6.23397569374999 0.393025093750003 
 N -0.370176753125002 -3.02825669374999 -2.81124690625000 
 N -2.57300975312500 -2.40741769374999 -3.92712890625000 
 N -3.16728375312500 -2.42016369374999 -2.794690624999752E-002
 S -0.734296753125002 -6.44463769374999 -3.99986790625000 
 S -3.59627875312500 -5.83242769374999 -0.976361906249997 
 S -1.18349275312500 -6.88438669374999 0.108684093750002 
 S -1.00400775312500 -2.79983269374999 -4.32157990625000 
 S -3.96960875312500 -2.01666169374999 -1.46259490625000 
 S -1.54889775312500 -2.91161569374999 -0.173462906249997 
