16

 C -2.66817125312500 -6.18687396250000 -2.46673755000000 
 C -1.55245125312500 -6.79201896250000 -1.77525755000000 
 C -2.24709625312500 -3.06682996250000 -2.30291455000000 
 C -0.944091253125004 -3.41547896250000 -1.71960855000000 
 N -0.520117253125004 -7.01446396250000 -2.56416655000000 
 N -2.49993925312500 -6.03940296250000 -3.77358355000000 
 N -3.36993825312500 -6.48051196250000 -3.983855000000203E-002
 N 0.123379746874997 -3.37374096250000 -2.53420555000000 
 N -2.16012925312500 -2.63262396250000 -3.56451155000000 
 N -2.67604925312500 -3.38334496250000 0.263613449999998 
 S -0.936073253125003 -6.60211596250000 -4.12027855000000 
 S -4.09551925312500 -5.97934396250000 -1.46314055000000 
 S -1.80313525312500 -7.02521996250000 -0.110301550000002 
 S -0.554386253125004 -2.87893596250000 -4.02756455000000 
 S -3.54523625312500 -2.96927296250000 -1.10820755000000 
 S -1.00207625312500 -3.67437696250000 3.929344999999818E-002
