16

 C -2.50566469687500 -6.78679069687500 -2.42728639375000 
 C -1.19723969687500 -7.10217569687500 -1.96544839375000 
 C -2.56716069687500 -2.91271769687500 -2.46017239375000 
 C -1.39616969687500 -3.36972069687500 -1.78450339375000 
 N -0.261195696874997 -7.15845969687500 -2.90605239375000 
 N -2.56811369687500 -6.61730969687500 -3.76882839375000 
 N -2.63543669687500 -7.00517969687500 0.225838606249998 
 N -0.306897696874996 -3.54374669687500 -2.53375739375000 
 N -2.38083669687500 -2.73879169687500 -3.78959839375000 
 N -3.24965569687500 -3.16729769687500 5.523060624999832E-002
 S -1.02078769687500 -6.83054669687500 -4.31363439375000 
 S -3.62077569687500 -6.78386269687500 -1.06695839375000 
 S -1.03527369687500 -7.37149569687500 -0.216406393750002 
 S -0.805362696874997 -3.10503069687500 -4.14623739375000 
 S -3.91819969687500 -2.57072569687500 -1.34908539375000 
 S -1.66066869687500 -3.72774869687500 -9.497039375000194E-002
