16

 C -2.42174743125001 -6.51361368750000 -2.32483645000000 
 C -1.23225543125001 -7.00645768750000 -1.63041345000000 
 C -2.54488043125001 -2.72044168750000 -2.52247745000000 
 C -1.28147143125001 -3.13276768750000 -1.81431045000000 
 N -0.213693431250007 -7.18499268750000 -2.45549445000000 
 N -2.33725243125001 -6.28208268750000 -3.62103145000000 
 N -3.15973443125001 -6.62468268750000 0.143164550000002 
 N -0.190302431250007 -3.26718468750000 -2.58543745000000 
 N -2.32617143125001 -2.47104468750000 -3.82852945000000 
 N -3.15400543125001 -3.16838068750000 -3.467944999999850E-002
 S -0.760201431250007 -6.75712168750000 -4.00993445000000 
 S -3.87048043125001 -6.37283668750000 -1.34670245000000 
 S -1.58707043125001 -7.22915868750000 0.110136550000002 
 S -0.718849431250007 -2.77483968750000 -4.10364945000000 
 S -3.87409043125001 -2.73767068750000 -1.45562745000000 
 S -1.51978743125001 -3.39534268750000 -9.614444999999838E-002
