16

 C -2.44032824999999 -6.42449948750000 -2.56197374375000 
 C -1.24482724999999 -6.78545548750001 -1.88350074375000 
 C -2.36744124999999 -2.63959748750001 -2.47500574375000 
 C -1.15456224999999 -3.02222748750000 -1.75306074375000 
 N -0.126278249999993 -6.86823548750001 -2.62822874375000 
 N -2.28281924999999 -6.24387348750001 -3.86196474375000 
 N -3.10634624999999 -6.60547348750000 -5.823774374999968E-002
 N -0.133389249999993 -3.28620048750000 -2.57696474375000 
 N -2.24978124999999 -2.47766948750001 -3.80839474375000 
 N -3.05015024999999 -2.80584948750001 5.921625625000027E-002
 S -0.635495249999993 -6.52111048750000 -4.16674974375000 
 S -3.81473124999999 -6.32421048750001 -1.46975574375000 
 S -1.46780124999999 -7.03919848750000 -0.113482743749999 
 S -0.726881249999993 -3.01150848750000 -4.10484074375000 
 S -3.69806124999999 -2.31878048750001 -1.31881074375000 
 S -1.42291824999999 -3.14452348750001 -1.862974374999959E-002
