16

 C -2.48308119062500 -6.36491298125000 -2.58784027187500 
 C -1.25160919062500 -6.74384198125000 -1.85918227187500 
 C -2.39063619062500 -2.91818798125000 -2.53472827187500 
 C -1.13450319062500 -3.16341398125000 -1.86932727187500 
 N -0.166239190624995 -6.78234198125000 -2.59854127187500 
 N -2.30970219062500 -6.18309798125000 -3.90293427187500 
 N -3.08965519062500 -6.44031398125000 -6.541527187499874E-002
 N -0.102096190624995 -3.26069898125000 -2.71371627187500 
 N -2.31907719062499 -2.82529098125000 -3.84852327187500 
 N -2.93294419062499 -2.78182598125000 -3.555727187499858E-002
 S -0.708993190624995 -6.53792498125000 -4.13494727187500 
 S -3.79914819062500 -6.20913798125000 -1.54346527187500 
 S -1.46996919062500 -6.77115798125000 -0.151265271874999 
 S -0.765870190624995 -3.05339398125000 -4.21081827187500 
 S -3.71751419062500 -2.53413498125000 -1.48419427187500 
 S -1.35408619062500 -3.14686898125000 -0.162017271874999 
