16

 C -2.31487299062501 -6.33387508125000 -2.40831689375000 
 C -1.14628099062501 -6.84957508125000 -1.78135889375000 
 C -2.55083699062500 -2.58201208125000 -2.20634589375000 
 C -1.29268199062501 -3.06378008125000 -1.65727189375000 
 N -0.109774990625005 -7.05222808125000 -2.59000489375000 
 N -2.18557099062501 -6.13729008125000 -3.71448289375000 
 N -2.85170699062501 -6.50050908125000 7.303010624999984E-002
 N -0.296288990625005 -3.18305308125000 -2.52306189375000 
 N -2.49218499062501 -2.36870008125000 -3.51578789375000 
 N -2.93986099062500 -2.88475808125000 0.288111106250000 
 S -0.648244990625005 -6.57692108125000 -4.08713389375000 
 S -3.65230999062500 -6.28009808125000 -1.35061189375000 
 S -1.25552999062501 -7.02455508125000 -8.615689375000013E-002
 S -0.963451990625005 -2.73141608125000 -3.97042489375000 
 S -3.82103199062500 -2.51406208125000 -1.01469689375000 
 S -1.34969499062500 -3.30038008125000 7.417810624999976E-002
