16

 C -2.54556526562500 -6.24282963749999 -2.39270753750000 
 C -1.27800926562500 -6.62267463749999 -1.76482053750000 
 C -2.49035626562500 -2.45777163749999 -2.87489553750000 
 C -1.32835826562500 -2.92071163749999 -2.14993853750000 
 N -0.213006265625003 -6.74302163749999 -2.54820653750000 
 N -2.43303926562500 -6.09982063749999 -3.73522453750000 
 N -3.02519126562500 -6.65679563749999 0.162387462500001 
 N -0.200736265625003 -2.94766563749999 -2.85696253750000 
 N -2.27367326562500 -2.14409263749999 -4.16536853750000 
 N -3.25629126562500 -2.72627263749999 -0.420992537500000 
 S -0.834661265625003 -6.43972063749999 -4.04629353750000 
 S -3.90499426562500 -6.55039463749999 -1.25957053750000 
 S -1.40272826562500 -6.90481363749999 -1.121153749999948E-002
 S -0.658491265625003 -2.54511263749999 -4.44653753750000 
 S -3.91950226562500 -2.26717663749999 -1.87369053750000 
 S -1.61105926562500 -3.13050763749999 -0.518368537499999 
