16

 C -2.52800969687499 -6.42003655625000 -2.37829241250000 
 C -1.38161569687499 -7.08428355625000 -1.80284141250000 
 C -2.60725469687499 -2.76998355625000 -2.41596641250000 
 C -1.51463869687499 -3.35981155625000 -1.71004741250000 
 N -0.378782696874994 -7.36967255625000 -2.64887041250000 
 N -2.38507969687499 -6.29483755625000 -3.66198241250000 
 N -3.04329669687499 -6.59681655625000 0.112795587500002 
 N -0.548591696874994 -3.69037955625000 -2.54405441250000 
 N -2.42594469687499 -2.57478155625000 -3.72206941250000 
 N -3.19216569687499 -2.69339155625000 5.748558750000177E-002
 S -0.930803696874994 -6.96912655625000 -4.19134241250000 
 S -3.80560169687499 -6.12179755625000 -1.28839741250000 
 S -1.56007169687499 -7.27235655625000 -1.725741249999824E-002
 S -0.864312696874994 -3.10156555625000 -4.05790041250000 
 S -3.93128269687499 -2.39755755625000 -1.36936941250000 
 S -1.63459969687499 -3.34614655625000 3.528058750000174E-002
