16

 C -2.46415294375000 -6.14939477187500 -2.71656078437500 
 C -1.30573194375000 -6.60981777187500 -2.00530778437500 
 C -2.48802094375000 -2.73831577187500 -2.52534678437500 
 C -1.22457494375000 -3.05123277187500 -1.83645778437500 
 N -0.260918943750002 -6.77894277187500 -2.77538178437500 
 N -2.31969094375000 -6.00712277187500 -4.04749178437500 
 N -3.15311194375000 -6.54956577187500 -0.210273784375000 
 N -0.174896943750002 -3.11509977187500 -2.64760978437500 
 N -2.32813694375000 -2.63863677187500 -3.82064178437500 
 N -3.04757294375000 -2.79996077187500 -2.484678437500021E-002
 S -0.715157943750002 -6.39808177187500 -4.37296778437500 
 S -3.87284194375000 -6.12142777187500 -1.61199378437500 
 S -1.56480194375000 -6.90844177187500 -0.318884784375000 
 S -0.756503943750002 -2.93717477187500 -4.23299878437500 
 S -3.84750694375000 -2.70788777187500 -1.52822278437500 
 S -1.43651694375000 -3.18162177187500 -0.128602784375000 
