16

 C -2.31337289375000 -6.32867302187500 -2.35776600000000 
 C -1.11554889375000 -6.80679602187500 -1.76655300000000 
 C -2.55873689375000 -2.74642402187500 -2.47748500000000 
 C -1.46134089375000 -3.40532602187500 -1.73509000000000 
 N -0.143416893749997 -6.93863702187500 -2.66037300000000 
 N -2.31726589375000 -6.15965902187500 -3.69126100000000 
 N -2.94309589375000 -6.64575002187500 0.168545000000001 
 N -0.367152893749997 -3.63680902187500 -2.47911400000000 
 N -2.24906389375000 -2.38145102187500 -3.71130000000000 
 N -3.31356989375000 -2.92725702187500 3.237100000000104E-002
 S -0.758061893749997 -6.46647202187500 -4.18114200000000 
 S -3.69662789375000 -6.48508502187500 -1.30531800000000 
 S -1.32367089375000 -7.09194802187500 2.662000000001052E-003
 S -0.786041893749997 -3.07851402187500 -4.01791100000000 
 S -4.01577189375000 -2.62439302187500 -1.45211100000000 
 S -1.79578689375000 -3.55198502187500 4.011000000001097E-003
