16

 C -2.65712148750000 -6.31529095000000 -2.31428960937500 
 C -1.45530548750000 -6.89841195000000 -1.75171760937500 
 C -2.39661548750000 -2.70440895000000 -2.45604760937500 
 C -1.19942548750000 -3.24129795000000 -1.83590760937500 
 N -0.444107487500003 -7.01985895000000 -2.61161360937500 
 N -2.60391148750000 -6.06953095000000 -3.62969860937500 
 N -3.07485948750000 -6.76374895000000 0.230849390625002 
 N -0.153081487500003 -3.40388895000000 -2.64917160937500 
 N -2.27745948750000 -2.47302195000000 -3.73034360937500 
 N -2.97299048750000 -3.12641895000000 5.436939062500179E-002
 S -1.06279448750000 -6.54300595000000 -4.05558960937500 
 S -3.89171148750000 -6.13151495000000 -1.06336560937500 
 S -1.48253848750000 -7.25346495000000 -4.038260937499816E-002
 S -0.767026487500003 -2.85356895000000 -4.19240460937500 
 S -3.71104848750000 -2.64182595000000 -1.37109960937500 
 S -1.35471648750000 -3.54676795000000 -0.115583609374998 
