16

 C -2.56449707500000 -6.67337222187500 -2.50404372812500 
 C -1.23103607500000 -7.08848122187500 -1.97104072812500 
 C -2.54172207500000 -2.66495422187500 -2.24589072812500 
 C -1.34208207500000 -3.13268022187500 -1.60081772812500 
 N -0.235981074999998 -7.15323522187500 -2.86415672812500 
 N -2.54766507500000 -6.51048722187500 -3.82217372812500 
 N -2.90437307500000 -6.76383222187500 -1.186272812499967E-002
 N -0.370999074999999 -3.39993622187500 -2.43556772812500 
 N -2.58580407500000 -2.64807322187500 -3.56043172812500 
 N -3.10782407500000 -2.98717122187500 0.260633271875000 
 S -1.03533707500000 -6.83305122187500 -4.30392872812500 
 S -3.78608907500000 -6.40384622187500 -1.33021072812500 
 S -1.20029907500000 -7.05910422187500 -0.154001728125000 
 S -1.01248607500000 -3.04714322187500 -3.95290472812500 
 S -3.84999207500000 -2.53892522187500 -1.11808372812500 
 S -1.57267407500000 -3.63449222187500 5.706527187500021E-002
