16

 C -2.48172043124999 -6.74268553437501 -2.39246093750000 
 C -1.21636843124999 -6.98381053437501 -1.71883993750000 
 C -2.16443643124999 -2.81966153437501 -2.42586793750000 
 C -0.985457431249993 -3.25572053437501 -1.65668193750000 
 N -0.167762431249994 -6.92065653437501 -2.57070593750000 
 N -2.42077243124999 -6.54232653437501 -3.70196993750000 
 N -2.95256743124999 -7.06178153437501 0.106426062500003 
 N 9.862756875000755E-002 -3.45192153437501 -2.40061393750000 
 N -1.95841843124999 -2.81968453437501 -3.74741693750000 
 N -2.86501243124999 -3.09081553437501 3.602006250000311E-002
 S -0.819399431249994 -6.53745953437501 -4.06433093750000 
 S -3.80890543124999 -6.81053253437501 -1.34995493750000 
 S -1.33635543124999 -7.24625253437501 -5.181493749999677E-002
 S -0.299284431249993 -3.11672653437501 -3.95815393750000 
 S -3.51921543124999 -2.55340053437501 -1.42747393750000 
 S -1.31885843124999 -3.63361853437501 2.018306250000323E-002
