16

 C -2.18497431250001 -6.58341348750000 -2.46521362812500 
 C -1.01586331250001 -7.12708348750000 -1.83427162812500 
 C -2.56308831250001 -2.33645048750000 -2.37276862812500 
 C -1.42922531250001 -2.91216148750000 -1.79480162812500 
 N 2.854568749999231E-002 -7.31377748750000 -2.61646762812500 
 N -1.99306631250001 -6.38967848750000 -3.76648862812500 
 N -2.69444531250001 -6.59723948750000 9.341637187499763E-002
 N -0.451840312500008 -3.24765748750000 -2.65814562812500 
 N -2.53098131250001 -2.33777848750000 -3.71822062812500 
 N -3.21819931250001 -2.67631548750000 6.731037187499767E-002
 S -0.472991312500008 -6.86425248750000 -4.12911162812500 
 S -3.47170531250001 -6.13163648750001 -1.30345462812500 
 S -1.16205431250001 -7.26257348750000 -9.885562812500259E-002
 S -1.04028631250001 -2.82886548750000 -4.14823762812500 
 S -3.89552331250001 -2.01134748750000 -1.28549862812500 
 S -1.64361631250001 -3.12802548750000 -8.297962812500259E-002
