16

 C -2.32357498437500 -6.64038929062500 -2.35152921250000 
 C -1.08011698437500 -7.08121629062500 -1.69900121250000 
 C -2.87216798437500 -3.18095629062500 -2.16820221250000 
 C -1.65536298437500 -3.51320529062500 -1.49987121250000 
 N -4.897898437500103E-002 -7.34026429062500 -2.53950921250000 
 N -2.29242198437500 -6.60544429062500 -3.67643621250000 
 N -2.91287798437500 -6.94997729062500 0.172287787500004 
 N -0.615520984375001 -3.75335329062500 -2.28892721250000 
 N -2.78824798437500 -3.10554129062500 -3.49842321250000 
 N -3.50521298437500 -3.31372529062500 0.286758787500003 
 S -0.721089984375001 -7.01447529062500 -4.04421321250000 
 S -3.70979898437500 -6.48930729062500 -1.28250121250000 
 S -1.32026798437500 -7.20241029062500 2.054478750000355E-002
 S -1.17102098437500 -3.32978929062500 -3.81209221250000 
 S -4.23228398437500 -3.13213729062500 -1.16785621250000 
 S -1.89320998437500 -3.73292229062500 0.183015787500003 
