16

 C -2.39501528125000 -6.42285227187500 -2.37256460937500 
 C -1.22531428125000 -6.87368527187500 -1.67498560937500 
 C -2.21736028125000 -2.43610127187500 -2.05595860937500 
 C -1.10845928125000 -3.27106527187500 -1.69718760937500 
 N -0.166766281249997 -7.11689727187500 -2.44153160937500 
 N -2.19361028125000 -6.26248027187500 -3.70673960937500 
 N -3.03954628125000 -6.61814927187500 0.200397390625002 
 N -0.177268281249997 -3.39048927187500 -2.66019060937500 
 N -2.15619328125000 -1.93549527187500 -3.28881160937500 
 N -2.87503728125000 -3.38176727187500 0.215322390625001 
 S -0.595157281249997 -6.70865827187500 -4.00272660937500 
 S -3.75279128125000 -6.19624327187500 -1.22233960937500 
 S -1.42568228125000 -6.99300227187500 3.206739062500152E-002
 S -0.642731281249997 -2.41451127187500 -3.86392960937500 
 S -3.58165428125000 -2.52509327187500 -1.02496160937500 
 S -1.22552928125000 -3.80084527187500 2.900339062500157E-002
