16

 C -2.36703242187500 -6.52564711562500 -2.50598527187500 
 C -1.26916642187500 -7.02423811562500 -1.70374727187500 
 C -2.38744142187500 -2.85030311562500 -2.55067427187500 
 C -1.13171742187500 -3.37223311562500 -1.89116027187500 
 N -0.129926421874999 -7.20965311562500 -2.36016627187500 
 N -2.12177842187500 -6.39783011562500 -3.82568327187500 
 N -3.16199042187500 -6.82049611562500 -2.673727187500163E-002
 N -6.086642187499969E-002 -3.47567711562500 -2.63731027187500 
 N -2.21571642187500 -2.65555111562500 -3.86034127187500 
 N -2.92557042187500 -3.09467611562500 -6.176827187500167E-002
 S -0.553191421875000 -6.92886811562500 -3.95076127187500 
 S -3.78927542187500 -6.24619911562500 -1.49530227187500 
 S -1.60331942187500 -7.30061111562500 -5.044227187500172E-002
 S -0.639966421874999 -3.08987911562500 -4.15280227187500 
 S -3.74651242187500 -2.68446411562500 -1.50455627187500 
 S -1.37293742187500 -3.64144611562500 -0.191905271875002 
