16

 C -2.38200342812500 -6.68918367187500 -2.45744301875000 
 C -1.11553842812500 -6.94775667187500 -1.77190001875000 
 C -2.26448542812500 -3.45498867187500 -2.23491301875000 
 C -1.02594242812500 -3.56211167187500 -1.52106801875000 
 N -6.061842812500107E-002 -7.06987467187500 -2.58695401875000 
 N -2.25246742812500 -6.56096267187500 -3.77966401875000 
 N -2.87016442812500 -6.56222067187500 0.108761981249999 
 N 5.489457187499891E-002 -3.64100167187500 -2.32658401875000 
 N -2.19904242812500 -3.52590267187500 -3.56963401875000 
 N -2.89456942812500 -3.34847167187500 0.244887981249999 
 S -0.662844428125001 -6.90265367187500 -4.12196601875000 
 S -3.66510042812500 -6.30155067187500 -1.36120201875000 
 S -1.25540342812500 -6.89694367187500 -4.429901875000075E-002
 S -0.591968428125002 -3.59799067187500 -3.90677701875000 
 S -3.67467642812500 -3.19697067187500 -1.19708301875000 
 S -1.21462542812500 -3.54756267187500 0.210420981249999 
