16

 C -2.47765775000001 -6.40709818750000 -2.28921712500000 
 C -1.22801775000001 -6.70279018750000 -1.66259112500000 
 C -2.44228475000001 -2.69501218750000 -2.89175312500000 
 C -1.17179575000001 -2.82841718750000 -2.24433312500000 
 N -0.228548750000007 -6.72046718750000 -2.50947712500000 
 N -2.36079275000001 -6.12709718750000 -3.58332712500000 
 N -2.96453375000001 -6.85987118750000 0.192367875000000 
 N -0.135164750000007 -2.74090018750000 -3.06433712500000 
 N -2.37892175000001 -2.51583218750000 -4.19307012500000 
 N -2.97526875000001 -3.07040418750000 -0.406987125000000 
 S -0.767969750000007 -6.27305918750000 -4.03237812500000 
 S -3.77689875000001 -6.19955018750000 -1.15662912500000 
 S -1.35714975000001 -7.04351018750000 1.180987499999997E-002
 S -0.800511750000006 -2.63564718750000 -4.54974212500000 
 S -3.81103175000001 -2.74691418750000 -1.78232112500000 
 S -1.37086475000001 -3.03130818750000 -0.548890125000000 
