16

 C -2.47667558750000 -6.36652133437499 -2.58174724375000 
 C -1.24426558750000 -6.73619733437499 -1.88301724375000 
 C -2.36912758750000 -2.92111933437499 -2.52791824375000 
 C -1.12885858750000 -3.18686933437499 -1.87162324375000 
 N -0.150905587500000 -6.79472733437499 -2.60717624375000 
 N -2.28622258750000 -6.19058233437499 -3.89125824375000 
 N -3.11617758750000 -6.41684433437499 -6.821824374999985E-002
 N -0.114394587500000 -3.24678833437499 -2.72801424375000 
 N -2.32095158750000 -2.79806833437499 -3.82426324375000 
 N -2.92882158750000 -2.80018033437499 -3.476324374999984E-002
 S -0.698408587499999 -6.54695133437499 -4.14503424375000 
 S -3.79960358750000 -6.21530233437499 -1.54380524375000 
 S -1.47448158750000 -6.77748433437499 -0.145597243750000 
 S -0.762590587499999 -3.03105933437499 -4.22018024375000 
 S -3.72808758750000 -2.52790833437499 -1.48996124375000 
 S -1.33814058750000 -3.15100833437499 -0.170260243750000 
