16

 C -2.61757845937500 -6.35444432500000 -2.47897916562500 
 C -1.39893545937500 -6.92977832500000 -2.01377416562500 
 C -2.66158345937500 -3.05904732500000 -2.34460116562500 
 C -1.51570945937500 -3.36280132500000 -1.61848416562500 
 N -0.512051459375002 -7.04917732500000 -2.99236616562500 
 N -2.68894345937500 -6.19257632500000 -3.81230416562500 
 N -2.90627845937500 -6.78268032500000 1.287083437499903E-002
 N -0.416713459375002 -3.57016232500000 -2.35390616562500 
 N -2.47076145937500 -2.97439632500000 -3.65672816562500 
 N -3.38877945937500 -2.89516032500000 0.128356834374999 
 S -1.12580645937500 -6.48333732500000 -4.43984916562500 
 S -3.75879045937500 -6.00360532500000 -1.21664316562500 
 S -1.36361945937500 -7.18011932500000 -0.292681165625001 
 S -0.909816459375001 -3.47789432500000 -3.93541916562500 
 S -4.04100445937500 -2.68677432500000 -1.35743216562500 
 S -1.83484845937500 -3.38374932500000 7.590683437499912E-002
