16

 C -2.63690870937500 -6.30666831562500 -2.27318924687500 
 C -1.41866670937500 -6.90484431562500 -1.71315724687500 
 C -2.36779470937500 -2.72612231562500 -2.45504824687500 
 C -1.17726770937500 -3.21323131562500 -1.84565124687500 
 N -0.510513709374999 -7.07563831562500 -2.64581724687500 
 N -2.60348370937500 -6.09437031562500 -3.58209924687500 
 N -3.07458670937500 -6.74731131562500 0.208318753125002 
 N -0.173402709374999 -3.40933931562500 -2.70592724687500 
 N -2.27773670937500 -2.36669931562500 -3.77040324687500 
 N -2.93987770937500 -3.09771931562500 3.506275312500251E-002
 S -1.04695970937500 -6.51779031562500 -4.07351124687500 
 S -3.89565670937500 -6.12533931562500 -1.07106124687500 
 S -1.50521070937500 -7.25626931562500 -3.920224687499774E-002
 S -0.718771709374999 -2.84436031562500 -4.14794424687500 
 S -3.68542170937500 -2.56573131562500 -1.36074324687500 
 S -1.34897670937500 -3.47474731562500 -0.124797246874997 
