16

 C -2.52165515000000 -6.83453459062500 -2.38227495625000 
 C -1.22012015000000 -7.03806259062500 -1.77910595625000 
 C -2.18555715000000 -2.90555159062500 -2.45326695625000 
 C -1.00808615000000 -3.33189959062500 -1.71154295625000 
 N -0.142562150000003 -6.86576159062500 -2.63737795625000 
 N -2.40844215000000 -6.45738059062500 -3.65341295625000 
 N -3.10223415000000 -7.13254559062500 0.137982043749999 
 N 6.343684999999599E-002 -3.54043059062500 -2.46092195625000 
 N -1.97424115000000 -2.78944459062500 -3.77682495625000 
 N -2.87309415000000 -3.01020459062500 4.664004374999853E-002
 S -0.833089150000004 -6.51208659062500 -4.10874795625000 
 S -3.85650915000000 -6.88513659062500 -1.28061795625000 
 S -1.40775215000000 -7.18053659062500 3.239204374999871E-002
 S -0.408216150000003 -3.21648359062500 -4.04387795625000 
 S -3.58727515000000 -2.67857359062500 -1.39107195625000 
 S -1.24675915000000 -3.51552459062500 -8.567095625000132E-002
