16

 C -2.65532843750000 -6.61869253125000 -2.34794311875000 
 C -1.34461643750000 -6.82418453125000 -1.73437911875000 
 C -2.22544443750000 -2.96985953125000 -2.48015011875000 
 C -1.03229043750000 -3.44919353125000 -1.80150511875000 
 N -0.292457437499999 -6.89904453125000 -2.49355011875000 
 N -2.54025943750000 -6.45705953125000 -3.66289811875000 
 N -3.10473543750000 -7.12945653125000 0.119583881250001 
 N -5.988543749999842E-002 -3.61293953125000 -2.67883911875000 
 N -2.16693843750000 -2.83714853125000 -3.80275611875000 
 N -2.80098143750000 -2.98369653125000 3.131488125000104E-002
 S -0.887516437499999 -6.57349553125000 -3.98971311875000 
 S -3.92037043750000 -6.92002753125000 -1.27771811875000 
 S -1.37464243750000 -7.13761153125000 -2.538111874999904E-002
 S -0.620109437499998 -3.23989753125000 -4.21053411875000 
 S -3.59205843750000 -2.83409553125000 -1.39957911875000 
 S -1.15832943750000 -3.37207553125000 -3.557211874999888E-002
