16

 C -2.15043045625000 -6.31669029375000 -2.29446229687500 
 C -0.948982456250002 -6.82132929375000 -1.75773929687500 
 C -2.81817345625000 -2.50913029375000 -2.49501029687500 
 C -1.58294645625000 -2.98811929375000 -1.91748129687500 
 N 2.390754374999826E-002 -6.95585629375000 -2.65621529687500 
 N -2.12149045625000 -6.07225729375000 -3.59907429687500 
 N -2.62850845625000 -6.69256529375000 0.221443703125002 
 N -0.523332456250002 -2.99653229375000 -2.80779629687500 
 N -2.74212645625000 -2.36441229375000 -3.83839329687500 
 N -3.41355345625000 -2.89202529375000 -2.663296874998444E-003
 S -0.585145456250002 -6.48947829375000 -4.11499229687500 
 S -3.47219445625000 -6.19491929375000 -1.16504629687500 
 S -1.06572445625000 -7.17615529375000 -5.638929687499861E-002
 S -1.12014345625000 -2.60720429375000 -4.22558229687500 
 S -4.15575245625000 -2.35145229375000 -1.39937829687500 
 S -1.78744645625000 -3.32900029375000 -0.180105296874999 
