16

 C -2.35752136562501 -6.28464761562500 -2.66848568125000 
 C -1.21595936562501 -6.80263961562500 -1.96911468125000 
 C -2.53511536562501 -2.82947561562500 -2.59987068125000 
 C -1.26568136562501 -3.03344661562500 -1.87842368125000 
 N -0.151305365625008 -6.90571161562500 -2.77667168125000 
 N -2.17277736562501 -6.01126561562500 -3.96841768125000 
 N -3.10991236562501 -6.43142661562500 -0.216113681250000 
 N -0.186579365625009 -3.12251761562500 -2.65687068125000 
 N -2.33172536562501 -2.71844961562500 -3.90403768125000 
 N -3.09408936562501 -2.90079861562500 -9.001368124999964E-002
 S -0.592450365625008 -6.34988861562500 -4.24728568125000 
 S -3.78083836562501 -5.91186361562500 -1.68293068125000 
 S -1.48724736562501 -6.83621961562500 -0.263712681250000 
 S -0.682989365625009 -2.87938561562500 -4.19742868125000 
 S -3.84835836562501 -2.66484361562500 -1.50539968125000 
 S -1.47904836562501 -3.20843261562500 -0.153297681250000 
