16

 C -2.20415836874999 -6.34040897812501 -2.37571359687500 
 C -0.973006368749990 -6.84604797812501 -1.76119759687500 
 C -2.60456836874999 -2.72838697812501 -2.27525859687500 
 C -1.36633136874999 -3.14774397812501 -1.71810759687500 
 N 1.908663125000931E-002 -6.95458097812501 -2.63579559687500 
 N -2.14148236874999 -6.16136897812501 -3.69198059687500 
 N -2.79972336874999 -6.74566497812501 0.115469403125000 
 N -0.333193368749991 -3.25914397812501 -2.56025159687500 
 N -2.46230736874999 -2.37894697812501 -3.54940959687500 
 N -3.04976936874999 -3.00196497812501 0.224878403125000 
 S -0.592621368749991 -6.52735797812501 -4.16959659687500 
 S -3.61018636874999 -6.29964297812501 -1.25829359687500 
 S -1.13751436874999 -6.96880097812501 -2.789459687500040E-002
 S -0.910845368749991 -2.72733097812501 -4.02149259687500 
 S -3.87621136874999 -2.54799397812501 -1.11695959687500 
 S -1.39328536874999 -3.22149797812501 3.936240312499950E-002
