16

 C -2.58818162812501 -6.30167258125000 -2.51555966875000 
 C -1.33495462812501 -6.67784358125000 -1.91428166875000 
 C -2.63136162812501 -2.95499458125000 -2.32573766875000 
 C -1.43114762812501 -3.32154458125000 -1.68704966875000 
 N -0.308100628125006 -6.83343358125000 -2.73987066875000 
 N -2.51299062812501 -6.25895858125000 -3.85017666875000 
 N -2.97934562812501 -6.43640958125000 6.151533124999808E-002
 N -0.436242628125006 -3.45286758125000 -2.55551166875000 
 N -2.54752762812501 -2.72663358125000 -3.63233266875000 
 N -3.14486962812501 -3.03615558125000 0.232514331249998 
 S -0.954110628125006 -6.53137858125000 -4.22354666875000 
 S -3.84063162812501 -6.17610058125000 -1.34778166875000 
 S -1.34812962812501 -6.69278458125000 -0.134572668750002 
 S -1.02389762812501 -3.18184458125000 -4.05989166875000 
 S -3.89087462812501 -2.64175858125000 -1.21583066875000 
 S -1.55983362812501 -3.43910858125000 3.190633124999809E-002
