16

 C -2.60834814687500 -6.50267668125000 -2.44098145937500 
 C -1.37209514687500 -6.95527468125000 -1.82758745937500 
 C -2.50658214687500 -2.70898268125000 -2.57376045937500 
 C -1.36340914687500 -3.18009168125000 -1.84660345937500 
 N -0.337381146875004 -7.17852568125000 -2.64373245937500 
 N -2.45681914687500 -6.25350068125000 -3.74815745937500 
 N -3.05749414687500 -6.91531168125000 8.111654062499740E-002
 N -0.239224146875004 -3.33868768125000 -2.55801345937500 
 N -2.34185914687500 -2.56128868125000 -3.87814045937500 
 N -3.21259814687500 -2.88607768125000 -5.814645937500273E-002
 S -0.837265146875004 -6.70136568125000 -4.12827245937500 
 S -3.92281714687500 -6.44964068125000 -1.29192045937500 
 S -1.40485214687500 -7.19381668125000 -9.531145937500263E-002
 S -0.775576146875004 -2.97948568125000 -4.14224945937500 
 S -3.98101814687500 -2.58552768125000 -1.51128145937500 
 S -1.58423914687500 -3.29949268125000 -8.727145937500280E-002
