16

 C -2.34393938437500 -6.37926649687500 -2.51696074062500 
 C -1.17686338437500 -6.70492049687500 -1.75869974062500 
 C -2.59506938437500 -2.72986549687500 -2.56319074062500 
 C -1.35262038437500 -3.03988349687500 -1.88263474062500 
 N -0.165082384374998 -7.15215649687500 -2.42858174062500 
 N -2.14810838437500 -6.44439149687500 -3.82689874062500 
 N -2.95983238437500 -6.41770949687500 2.613925937499806E-002
 N -0.271095384374998 -3.05598149687500 -2.66044974062500 
 N -2.45736438437500 -2.44253649687500 -3.87949374062500 
 N -3.15620338437500 -2.84822249687500 -3.983674062500198E-002
 S -0.559505384374999 -6.93560949687500 -4.02924074062500 
 S -3.71557638437500 -6.06501549687500 -1.44480774062500 
 S -1.36179138437500 -6.81686649687500 -4.165574062500199E-002
 S -0.864677384374999 -2.77592649687500 -4.19298074062500 
 S -3.93323638437500 -2.72055749687500 -1.47320374062500 
 S -1.50936238437500 -3.08839349687500 -0.134385740625002 
