16

 C -2.27101221562500 -6.41908019687500 -2.49802566250000 
 C -1.06563721562500 -6.80991919687500 -1.78201166250000 
 C -2.52621821562500 -2.50977019687500 -2.64674666250000 
 C -1.44813921562500 -3.09977519687500 -1.91300966250000 
 N -7.150221562499670E-002 -6.88816019687500 -2.63734066250000 
 N -2.16636021562500 -6.23494719687500 -3.78085766250000 
 N -2.98706721562500 -6.57370619687500 -6.365866249999885E-002
 N -0.335438215624997 -3.34239219687500 -2.62199766250000 
 N -2.20605221562500 -2.24969619687500 -3.90683566250000 
 N -3.48236621562500 -2.76749719687500 -0.294252662499999 
 S -0.588546215624997 -6.59153519687500 -4.21363166250000 
 S -3.68902621562500 -6.34610819687500 -1.52658966250000 
 S -1.28806221562500 -6.75726019687500 -0.112283662499999 
 S -0.617912215624997 -2.63560519687500 -4.08978366250000 
 S -4.00778821562500 -2.15288819687500 -1.74668666250000 
 S -1.87286221562500 -3.33637619687500 -0.204863662499999 
