16

 C -2.31989764687500 -6.35940177187499 -2.51377727187500 
 C -1.18764864687500 -6.79027477187499 -1.74824827187500 
 C -2.66341664687500 -2.52606977187499 -2.45505927187500 
 C -1.42837864687500 -2.76830577187499 -1.75776527187500 
 N -8.022364687499817E-002 -7.03667077187499 -2.45824927187500 
 N -2.09580164687500 -6.21436277187499 -3.80777427187500 
 N -3.10522364687500 -6.47961277187499 -6.077827187499851E-002
 N -0.377083646874998 -2.87258177187499 -2.53088227187500 
 N -2.54148764687500 -2.34487077187499 -3.72948427187500 
 N -3.25387964687500 -2.79889777187499 2.246472812500167E-002
 S -0.528147646874998 -6.63825177187499 -4.03231527187500 
 S -3.75795764687500 -6.16663577187499 -1.59221727187500 
 S -1.54434264687500 -7.05315377187499 -8.359271874998520E-003
 S -0.984848646874998 -2.60670777187499 -4.13048327187500 
 S -4.01953564687500 -2.41576077187499 -1.38746027187500 
 S -1.59243564687500 -2.97296577187499 -0.114850271874998 
