16

 C -2.18971188437500 -6.50820183437499 -2.52909964375000 
 C -1.03974088437500 -7.02119883437499 -1.83876864375000 
 C -2.63125788437500 -2.36133683437499 -2.40603164375000 
 C -1.56264288437500 -2.99462083437499 -1.78040864375000 
 N -4.711884375004693E-003 -7.31405983437499 -2.63323264375000 
 N -2.04794488437500 -6.35380083437499 -3.84762364375000 
 N -2.71961888437500 -6.53755583437499 2.098356249998989E-003
 N -0.542596884375004 -3.21796983437499 -2.58330264375000 
 N -2.49555088437500 -2.17913183437499 -3.69979864375000 
 N -3.22411488437500 -2.62311783437499 4.809135624999894E-002
 S -0.493923884375004 -6.83945583437499 -4.15080664375000 
 S -3.46230388437500 -6.11362883437499 -1.41367464375000 
 S -1.28145788437500 -7.34588583437499 -0.123622643750001 
 S -0.997255884375004 -2.87156083437499 -4.12096964375000 
 S -3.87193888437500 -1.85554983437499 -1.31811564375000 
 S -1.69894788437500 -3.18868983437499 -3.857164375000099E-002
