16

 C -2.61367062812499 -6.50662364375000 -2.36852864375000 
 C -1.42923062812499 -6.96619664375000 -1.65594864375000 
 C -2.56394762812499 -2.70610764375000 -2.41023464375000 
 C -1.35174662812499 -3.13324164375000 -1.88500764375000 
 N -0.415528628124993 -7.23470664375000 -2.45937964375000 
 N -2.51411162812499 -6.43530964375000 -3.70912064375000 
 N -3.19912662812499 -6.49262064375000 0.177936356249999 
 N -0.386535628124993 -3.36057964375000 -2.77583964375000 
 N -2.51611762812499 -2.60655564375000 -3.74028564375000 
 N -2.94464362812499 -2.90272164375000 7.059035624999854E-002
 S -0.927256628124994 -6.88696364375000 -4.01792864375000 
 S -3.95800262812499 -6.18982664375000 -1.28187864375000 
 S -1.59536362812499 -6.85202764375000 7.884135624999855E-002
 S -1.03043162812499 -3.13049464375000 -4.26809664375000 
 S -3.86912462812499 -2.58476964375000 -1.29082364375000 
 S -1.36534762812499 -3.37155664375000 -0.129070643750002 
