16

 C -2.58808544375000 -6.70435045000001 -2.39570555625000 
 C -1.33456244375000 -7.12775745000001 -1.71168155625000 
 C -2.49267544375000 -2.82601145000001 -2.33880155625000 
 C -1.27230244375000 -3.36229845000001 -1.78416255625000 
 N -0.254674443750002 -7.16916545000001 -2.50007055625000 
 N -2.44193444375000 -6.47620745000001 -3.72432155625000 
 N -3.07215644375000 -6.92273345000001 0.173446443750001 
 N -0.288467443750002 -3.59095345000001 -2.62717955625000 
 N -2.46704544375000 -2.67421445000001 -3.67021855625000 
 N -2.97824844375000 -3.13127845000001 0.171181443750001 
 S -0.838466443750002 -6.76074145000001 -4.03670955625000 
 S -3.92803944375000 -6.51199045000001 -1.23847155625000 
 S -1.47501744375000 -7.25238145000001 -2.091955624999908E-002
 S -0.957413443750002 -3.11982445000001 -4.15722755625000 
 S -3.75315644375000 -2.63698645000001 -1.19158855625000 
 S -1.35753444375000 -3.51752745000001 -6.277155624999908E-002
