16

 C -2.45338621875000 -6.68590434062500 -2.28911995312500 
 C -1.26688021875000 -7.24202734062500 -1.65654095312500 
 C -2.26514121875000 -2.43564634062500 -2.52896295312500 
 C -1.08531521875000 -2.94249534062500 -1.84714895312500 
 N -0.231158218750003 -7.32732234062500 -2.47576495312500 
 N -2.38627821875000 -6.49405734062500 -3.63168895312500 
 N -2.95113921875000 -6.83309334062500 0.283566046875000 
 N -1.098821875000233E-002 -3.19487134062500 -2.62055995312500 
 N -2.08475421875000 -2.18360934062500 -3.81200995312500 
 N -3.01034321875000 -2.71820034062500 -8.422195312499992E-002
 S -0.837614218750002 -6.93590134062500 -3.99362595312500 
 S -3.70546121875000 -6.22573234062500 -1.08481895312500 
 S -1.41888321875000 -7.20418434062500 0.107139046875000 
 S -0.526707218750002 -2.64215634062500 -4.09995495312500 
 S -3.72888721875000 -2.42382534062500 -1.53901195312500 
 S -1.40698421875000 -3.22707234062500 -0.166532953125000 
