16

 C -2.40050836875000 -6.33193485625001 -2.49775920312500 
 C -1.16197536875000 -6.53270685625001 -1.82077320312500 
 C -2.49232136875000 -2.21754585625001 -2.78022220312500 
 C -1.53166336875000 -2.93986585625001 -2.01452720312500 
 N -8.712036874999907E-002 -6.65685785625001 -2.60239620312500 
 N -2.21416336875000 -6.35368085625001 -3.79246320312500 
 N -3.03282436875000 -6.65686585625001 -4.654220312499913E-002
 N -0.430579368749999 -3.21702185625001 -2.65961220312500 
 N -2.11357536875000 -1.91208285625001 -4.00994820312500 
 N -3.43959636875000 -2.59436785625001 -0.314085203124999 
 S -0.586517368749999 -6.66454985625001 -4.19678620312500 
 S -3.78205836875000 -6.39337685625001 -1.46291920312500 
 S -1.29373036875000 -6.76380985625001 -9.676520312499903E-002
 S -0.587084368749999 -2.52666485625001 -4.10176620312500 
 S -3.88393936875000 -1.96826985625001 -1.77939820312500 
 S -2.02701536875000 -3.44536685625001 -0.427324203124999 
