16

 C -2.32021967812500 -6.27303639375000 -2.34131753125000 
 C -1.06756767812500 -6.75369939375000 -1.77784053125000 
 C -2.59223067812500 -2.54448839375000 -2.54232653125000 
 C -1.53167867812500 -3.16619139375000 -1.82211153125000 
 N -0.145518678125003 -6.96502339375000 -2.68963053125000 
 N -2.28732567812500 -6.09879539375000 -3.63567553125000 
 N -2.89274267812500 -6.75736139375000 3.230446875000292E-002
 N -0.547460678125003 -3.52344439375000 -2.63144353125000 
 N -2.35728767812500 -2.36261639375000 -3.82307853125000 
 N -3.19307067812500 -2.60527639375000 -2.367353124999716E-002
 S -0.790050678125003 -6.47847839375000 -4.14072053125000 
 S -3.56235267812500 -5.94089339375000 -1.24998353125000 
 S -1.21523167812500 -7.08973539375000 -1.741353124999723E-002
 S -0.909739678125003 -3.12166439375000 -4.21012653125000 
 S -3.87412067812500 -2.13105039375000 -1.49308153125000 
 S -1.63365767812500 -3.12062739375000 -9.155853124999713E-002
