16

 C -2.42430948437500 -6.36536332500000 -2.46458732812500 
 C -1.27522548437500 -6.95639232500000 -1.79898232812500 
 C -2.33201048437500 -2.87681232500000 -2.33984132812500 
 C -1.03642548437500 -3.27970132500000 -1.75375032812500 
 N -0.233067484374999 -7.13232132500000 -2.59892332812500 
 N -2.28901848437500 -6.15800032500000 -3.76958832812500 
 N -3.03480348437500 -6.75051232500000 7.096867187500089E-002
 N -5.691348437499943E-002 -3.43182632500000 -2.66714532812500 
 N -2.18260448437500 -2.69023232500000 -3.64705232812500 
 N -2.74061748437500 -2.90124232500000 0.166087671875001 
 S -0.716208484374999 -6.59128732500000 -4.08647632812500 
 S -3.74308748437500 -6.08536332500000 -1.29395932812500 
 S -1.45498748437500 -7.20654932500000 -0.118522328124999 
 S -0.701857484374999 -3.20762432500000 -4.16231232812500 
 S -3.60390748437500 -2.59381532500000 -1.25018232812500 
 S -1.16710448437500 -3.57698932500000 -5.388232812499893E-002
