16

 C -2.45868113125000 -6.36165756562500 -2.58649147187500 
 C -1.26993013125000 -6.78377356562500 -1.88842347187500 
 C -2.73463713125000 -2.87357756562500 -2.45421947187500 
 C -1.56517813125000 -3.48540756562500 -1.85721947187500 
 N -0.164803131249998 -6.96411856562500 -2.65935547187500 
 N -2.24791513125000 -6.28237456562500 -3.88761547187500 
 N -3.15288813125000 -6.63423356562500 -0.119946471874999 
 N -0.574598131249998 -3.73552056562500 -2.68824047187500 
 N -2.62025213125000 -2.68208256562500 -3.76218147187500 
 N -3.35958613125000 -3.24581856562500 -4.502247187499875E-002
 S -0.669424131249999 -6.69541456562500 -4.20017347187500 
 S -3.89126513125000 -6.27204456562500 -1.55061147187500 
 S -1.54724413125000 -7.15152656562500 -0.109132471874999 
 S -1.00869713125000 -3.10136056562500 -4.13053147187500 
 S -4.06124113125000 -2.56049156562500 -1.39985547187500 
 S -1.79298813125000 -3.85652356562500 -0.234734471874999 
