16

 C -2.59610997187500 -6.33508610312499 -2.57262885937500 
 C -1.42255997187500 -6.89876010312499 -1.88772785937500 
 C -2.70094397187500 -2.57782010312499 -2.48554785937500 
 C -1.61902497187500 -3.17080410312499 -1.80158185937500 
 N -0.372895971875001 -6.89286810312499 -2.68186385937500 
 N -2.44925297187500 -6.03557810312499 -3.84617785937500 
 N -3.22381597187500 -6.59087510312499 -5.580685937500096E-002
 N -0.493855971875001 -3.36830610312499 -2.57821485937500 
 N -2.45514897187500 -2.34264610312499 -3.77279485937500 
 N -3.41448397187500 -2.79874810312499 6.173140624999185E-003
 S -0.880246971875001 -6.48055210312499 -4.23581585937500 
 S -3.90869597187500 -6.03245410312499 -1.47069285937500 
 S -1.63709697187500 -7.19081410312499 -0.213945859375001 
 S -0.848500971875001 -2.84524110312499 -4.04259185937500 
 S -4.12303697187500 -2.49958110312499 -1.46336185937500 
 S -1.89228397187500 -3.44322310312499 -0.106854859375001 
