16

 C -2.31268130000000 -6.48745625000000 -2.49754834062500 
 C -1.07854730000000 -6.70258825000000 -1.76962934062500 
 C -2.60096830000000 -2.73215725000000 -2.51589734062500 
 C -1.36745430000000 -3.00594825000000 -1.76675534062500 
 N -3.040429999999894E-002 -6.90847325000000 -2.54482634062500 
 N -2.18032830000000 -6.44041825000000 -3.80224234062500 
 N -3.07329430000000 -6.44663125000000 -1.865534062500007E-002
 N -0.262172300000000 -3.01602125000000 -2.52276834062500 
 N -2.44758830000000 -2.61360725000000 -3.87080034062500 
 N -3.25684530000000 -2.97827625000000 2.315865937499995E-002
 S -0.581730299999999 -6.78708925000000 -4.16237934062500 
 S -3.75761630000000 -6.18635425000000 -1.53706534062500 
 S -1.46034130000000 -6.82357225000000 1.667165937500004E-002
 S -0.820404300000000 -2.79844225000000 -4.07553234062500 
 S -3.96300030000000 -2.57501525000000 -1.42550234062500 
 S -1.65033230000000 -3.26294325000000 -2.787334062500002E-002
