16

 C -2.58475316562501 -6.54536462812500 -2.36866595937500 
 C -1.31317616562501 -6.89430362812500 -1.76161295937500 
 C -2.33169316562501 -2.95777362812500 -2.38404695937500 
 C -1.14160616562501 -3.39009862812500 -1.77077695937500 
 N -0.348303165625007 -7.03748162812500 -2.66465995937500 
 N -2.57045716562501 -6.30146062812500 -3.69073495937500 
 N -2.95476516562501 -6.65029462812500 0.169876040625001 
 N -0.109873165625006 -3.58500062812500 -2.57603395937500 
 N -2.21392716562501 -2.82023462812500 -3.68735095937500 
 N -2.91606416562501 -3.20687062812500 0.104015040625001 
 S -1.01096816562501 -6.67779562812500 -4.13843995937500 
 S -3.79276516562501 -6.25362662812500 -1.19075995937500 
 S -1.34101316562501 -6.96838862812500 -6.738395937499964E-002
 S -0.623236165625006 -3.19410962812500 -4.15293095937500 
 S -3.64185916562501 -2.73727062812500 -1.32426795937500 
 S -1.26333716562501 -3.53023662812500 -4.515295937499952E-002
