16

 C -2.35267287812500 -6.38865546875001 -2.45069297812500 
 C -1.14415487812500 -6.84430546875001 -1.77868397812500 
 C -2.51803687812500 -2.55876446875001 -2.15645697812500 
 C -1.25331487812500 -2.94708446875001 -1.63365697812500 
 N -0.128307878124997 -7.06030046875001 -2.62452797812500 
 N -2.22052387812500 -6.18467946875001 -3.76769897812500 
 N -2.90002487812500 -6.50883746875001 6.939502187500013E-002
 N -0.251145878124997 -3.09374446875001 -2.49890197812500 
 N -2.50102787812500 -2.36499146875001 -3.46600697812500 
 N -2.92885387812500 -2.90500446875001 0.402508021875000 
 S -0.642611878124997 -6.61112246875001 -4.12786497812500 
 S -3.76426587812500 -6.17315946875001 -1.34573597812500 
 S -1.34906987812500 -7.06654646875001 -9.142497812500006E-002
 S -0.958781878124997 -2.81649146875001 -3.98484497812500 
 S -3.79622687812500 -2.42090646875001 -1.00277997812500 
 S -1.34457487812500 -3.37058646875001 9.400202187500017E-002
