16

 C -2.79779800000000 -6.40949669375000 -2.47689923750000 
 C -1.60728500000000 -6.86415669375000 -1.79906723750000 
 C -2.26712100000000 -2.87859669375000 -2.22403923750000 
 C -1.06828700000000 -3.25418469375000 -1.63386823750000 
 N -0.523008999999998 -6.92892369375000 -2.58513223750000 
 N -2.62545000000000 -6.18809269375000 -3.79230323750000 
 N -3.39159000000000 -6.58429969375000 3.797976250000001E-002
 N -4.419499999999843E-002 -3.36795069375000 -2.47642523750000 
 N -2.17883400000000 -2.71800169375000 -3.53135923750000 
 N -2.84620200000000 -3.12884369375000 0.253925762500000 
 S -1.04174100000000 -6.45825869375000 -4.08515123750000 
 S -4.15802200000000 -6.07582669375000 -1.35107523750000 
 S -1.78322400000000 -6.99982369375000 -7.496623749999998E-002
 S -0.668888999999998 -3.13298069375000 -4.00003123750000 
 S -3.67494100000000 -2.87658169375000 -1.19257323750000 
 S -1.21619600000000 -3.50178069375000 0.121384762500000 
