16

 C -2.36952436875000 -6.62664669062500 -2.39771626875000 
 C -1.18173536875000 -7.13218669062500 -1.71585626875000 
 C -2.39984736875000 -2.50295669062500 -2.32434626875000 
 C -1.32429436875000 -3.35149269062500 -1.74054526875000 
 N -0.155481368750000 -7.25345869062500 -2.54855626875000 
 N -2.24488736875000 -6.34396869062500 -3.70588726875000 
 N -3.00947836875000 -6.91177969062500 0.174271731249999 
 N -0.315961368750000 -3.62216969062500 -2.57587826875000 
 N -2.20275736875000 -2.21838769062500 -3.60755426875000 
 N -2.98566636875000 -2.87388469062500 0.177530731249999 
 S -0.626175368750000 -6.72925869062500 -4.03757726875000 
 S -3.69839036875000 -6.43473469062500 -1.20896226875000 
 S -1.34471236875000 -7.31086569062500 2.990273124999931E-002
 S -0.780902368750001 -2.95985269062500 -4.08678226875000 
 S -3.68200636875000 -2.09441569062500 -1.21436826875000 
 S -1.49068336875000 -3.67367269062500 -2.570426875000065E-002
