16

 C -2.23423820625000 -6.44461499375000 -2.34656132500000 
 C -1.07879920625000 -7.08009399375000 -1.78759032500000 
 C -2.24844420625000 -2.67500199375000 -2.46197532500000 
 C -1.08758320625000 -3.19316899375000 -1.73991032500000 
 N -0.122648206250004 -7.36136299375000 -2.67791232500000 
 N -2.17295720625000 -6.18792599375000 -3.65502932500000 
 N -2.64286820625000 -6.60251199375000 0.176530675000001 
 N -5.329206250003438E-003 -3.38078099375000 -2.51296432500000 
 N -2.04652820625000 -2.44264499375000 -3.77159432500000 
 N -3.00536920625000 -2.90953199375000 3.040467500000132E-002
 S -0.661656206250004 -6.75602899375000 -4.11432732500000 
 S -3.47466220625000 -6.11919099375000 -1.12084732500000 
 S -1.18413620625000 -7.29742299375000 -6.536232499999861E-002
 S -0.483123206250004 -2.87156499375000 -4.01775232500000 
 S -3.64091220625000 -2.39375099375000 -1.44057832500000 
 S -1.38530520625000 -3.39996299375000 -2.043632499999859E-002
