16

 C -2.39655508750000 -6.41705875312499 -2.62885269062500 
 C -1.16395308750000 -6.87834575312499 -1.96185069062500 
 C -2.27027008750000 -2.52490875312499 -2.54535769062500 
 C -1.02035208750000 -3.05178475312499 -2.03695669062500 
 N -0.144018087499997 -7.15933175312499 -2.78675369062500 
 N -2.23021508750000 -6.40722775312499 -3.93697769062500 
 N -2.97897608750000 -6.62570275312499 -6.697769062499725E-002
 N -9.257908749999721E-002 -3.01722575312499 -2.95232769062500 
 N -2.31742908750000 -2.20280575312499 -3.82659169062500 
 N -2.76146408750000 -3.27397575312499 -0.121845690624997 
 S -0.662830087499997 -6.79056375312499 -4.34840169062500 
 S -3.69124808750000 -6.09418075312499 -1.52855769062500 
 S -1.37098308750000 -6.94104075312499 -0.196593690624997 
 S -0.744935087499996 -2.43429375312499 -4.40483269062500 
 S -3.53075908750000 -2.62943775312499 -1.42962569062500 
 S -1.16003108750000 -3.60521775312499 -0.389819690624997 
