16

 C -2.54770062500000 -6.11686887187500 -2.72145237812500 
 C -1.36455562500000 -6.57756887187500 -2.03351537812500 
 C -2.43693762500000 -2.73071987187500 -2.48183137812500 
 C -1.20209862500000 -2.97504287187500 -1.84824537812500 
 N -0.293319624999999 -6.68606987187500 -2.83189337812500 
 N -2.37675062500000 -5.99290387187500 -4.03632237812500 
 N -3.18044062500000 -6.63780987187500 -0.229677378125001 
 N -0.181597624999998 -3.18347187187500 -2.67912037812500 
 N -2.34571562500000 -2.64664887187500 -3.80459437812500 
 N -3.02117562500000 -2.80000387187500 -6.337437812500046E-002
 S -0.800526624999999 -6.42128687187500 -4.35719337812500 
 S -3.92172062500000 -6.17123487187500 -1.64783337812500 
 S -1.54120562500000 -6.93772787187500 -0.311405378125001 
 S -0.770233624999999 -2.95355087187500 -4.21097037812500 
 S -3.84482362500000 -2.71800587187500 -1.46172937812500 
 S -1.40804562500000 -3.17243187187500 -0.138729378125001 
