16

 C -2.36394279375000 -6.58233900000001 -2.24578963125000 
 C -1.21588279375000 -7.04163000000001 -1.48947663125000 
 C -2.41072179375000 -2.70861800000001 -2.36794663125000 
 C -1.23926979375000 -3.18057700000001 -1.78853263125000 
 N -0.136449793749995 -7.19570600000001 -2.25849463125000 
 N -2.09591379374999 -6.37526200000001 -3.55460163125000 
 N -3.07350579375000 -6.73260400000001 0.216554368749999 
 N -0.163405793749996 -3.14301700000001 -2.54780863125000 
 N -2.30065179375000 -2.46324800000001 -3.66407263125000 
 N -3.02890279375000 -3.24497800000001 7.952836874999902E-002
 S -0.529426793749995 -6.75681200000001 -3.81135963125000 
 S -3.74521879375000 -6.19938500000001 -1.21291063125000 
 S -1.47608579374999 -7.21769600000001 0.191080368749999 
 S -0.655745793749995 -2.66932700000001 -4.03178463125000 
 S -3.76151679374999 -2.70601900000001 -1.30211663125000 
 S -1.40336079375000 -3.63996700000001 -8.555363125000071E-002
