16

 C -2.45001260624999 -6.45136406562500 -2.32374801250000 
 C -1.17455860624999 -6.83406706562500 -1.70812701250000 
 C -2.52306460624999 -2.78772506562500 -2.37360701250000 
 C -1.36809460624999 -3.26623106562500 -1.68136201250000 
 N -0.216519606249990 -6.97931206562500 -2.60530301250000 
 N -2.40228560624999 -6.33519506562500 -3.62987401250000 
 N -2.93854260624999 -6.90114506562500 0.184522987500001 
 N -0.279274606249989 -3.36579306562500 -2.46783601250000 
 N -2.39905160624999 -2.76221806562500 -3.70351401250000 
 N -3.11171360624999 -2.91677906562500 0.196606987500000 
 S -0.842771606249989 -6.64310106562500 -4.10679001250000 
 S -3.74631960624999 -6.49428206562500 -1.18489501250000 
 S -1.26404460624999 -7.20225206562500 -1.213301249999921E-002
 S -0.821704606249989 -3.08354106562500 -4.07792601250000 
 S -3.83221460624999 -2.46900006562500 -1.25528901250000 
 S -1.57192760624999 -3.48605506562500 -3.916401249999923E-002
