16

 C -2.68391430937499 -6.30156175937501 -2.36268984375000 
 C -1.54013830937499 -6.99288475937501 -1.85817784375000 
 C -2.46889930937499 -2.84375275937501 -2.25375884375000 
 C -1.33481230937499 -3.51463475937501 -1.64702384375000 
 N -0.566453309374992 -7.13173375937501 -2.76135084375000 
 N -2.62745230937499 -5.93593875937501 -3.65587184375000 
 N -3.12449730937499 -6.80553675937501 0.184131156250002 
 N -0.320488309374992 -3.74489675937501 -2.45760984375000 
 N -2.30738630937499 -2.69692175937501 -3.55243184375000 
 N -3.14705630937499 -3.21399375937501 0.115416156250002 
 S -1.13023430937499 -6.51274775937501 -4.18816284375000 
 S -3.83707830937499 -6.02001975937501 -1.08458584375000 
 S -1.58561130937499 -7.30064775937501 -0.145902843749998 
 S -0.745065309374993 -3.17041575937501 -3.98283684375000 
 S -3.73547730937499 -2.46249275937501 -1.22094284375000 
 S -1.62878430937499 -3.80595175937501 3.199415625000190E-002
