16

 C -2.30062470000000 -6.53059112812499 -2.23540652500000 
 C -1.16222170000000 -7.04488212812499 -1.50843352500000 
 C -2.43420670000000 -2.70757712812499 -2.35365452500000 
 C -1.20903170000000 -3.15792912812499 -1.71285152500000 
 N -8.990770000000037E-002 -7.21124212812499 -2.25644152500000 
 N -2.13305870000000 -6.32982012812499 -3.52020352500000 
 N -3.06798370000000 -6.74414512812499 0.220073475000001 
 N -0.188377700000000 -3.18727312812499 -2.56881652500000 
 N -2.30090470000000 -2.43779612812499 -3.64615452500000 
 N -2.99798170000000 -3.20544312812499 0.119125475000001 
 S -0.527389700000001 -6.76030812812499 -3.84214952500000 
 S -3.72650470000000 -6.22172012812499 -1.21429052500000 
 S -1.44431970000000 -7.22687312812499 0.257993475000001 
 S -0.635759700000000 -2.67170712812499 -4.05003552500000 
 S -3.77130370000000 -2.68768712812499 -1.27937652500000 
 S -1.38552970000000 -3.67369312812499 -7.469152499999887E-002
