16

 C -2.23710805000000 -6.34447147812500 -2.62418227500000 
 C -1.11793705000000 -6.98204647812500 -1.93882227500000 
 C -2.70726605000000 -2.43810247812500 -2.41773327500000 
 C -1.57513705000000 -3.10459147812500 -1.67494527500000 
 N -0.118996050000003 -7.33525847812500 -2.71534527500000 
 N -2.05101305000000 -6.21734347812500 -3.91721127500000 
 N -2.80595205000000 -6.51732647812500 -6.129127499999809E-002
 N -0.494177050000003 -3.34264547812500 -2.44406727500000 
 N -2.43566205000000 -2.16655447812500 -3.71903227500000 
 N -3.35018405000000 -2.48140747812500 0.105181725000002 
 S -0.493677050000003 -6.84039147812500 -4.25037827500000 
 S -3.55502105000000 -6.15820847812500 -1.51340327500000 
 S -1.28676205000000 -7.18775647812500 -0.225474274999998 
 S -0.955730050000003 -2.84203647812500 -3.99497327500000 
 S -4.04460805000000 -2.11547847812500 -1.37110427500000 
 S -1.79408605000000 -3.10657247812500 5.932072500000185E-002
