16

 C -2.28490074062499 -6.40349710937500 -2.23847223125000 
 C -1.04197774062499 -6.98819010937500 -1.68497523125000 
 C -2.29746374062499 -2.49869710937500 -2.45020823125000 
 C -1.10402674062499 -3.20882910937500 -1.95400323125000 
 N -0.121056740624994 -7.29224610937500 -2.58306423125000 
 N -2.20715274062499 -6.26518910937500 -3.57398023125000 
 N -2.69871074062499 -6.77926910937500 0.285249768750001 
 N -0.114131740624995 -3.40303510937500 -2.82225323125000 
 N -2.23112174062499 -2.30224810937500 -3.76284623125000 
 N -2.82280074062499 -3.18228710937500 6.125768750001148E-003
 S -0.729148740624995 -6.86758110937500 -4.04999223125000 
 S -3.58965074062499 -6.14250310937500 -1.04342523125000 
 S -1.10465374062499 -7.25691010937500 2.338276875000100E-002
 S -0.748406740624994 -2.75924510937500 -4.22307423125000 
 S -3.63911474062499 -2.37988110937500 -1.29033623125000 
 S -1.17175274062499 -3.57502510937500 -0.228048231249999 
