16

 C -2.41700141249999 -6.44376309374999 -2.63216441562500 
 C -1.19618341249999 -6.95081409374999 -1.97096341562500 
 C -2.33205441249999 -2.67191809374999 -2.55869641562500 
 C -1.05570441249999 -3.14825909374999 -2.10111841562500 
 N -0.175981412499993 -7.15328809374999 -2.80651041562500 
 N -2.28476341249999 -6.29531309374999 -3.95700041562500 
 N -2.91714641249999 -6.57618909374999 -0.167129415624998 
 N -9.769741249999342E-002 -3.08139909374999 -3.02223741562500 
 N -2.26825541249999 -2.16707909374999 -3.80244041562500 
 N -2.67804741249999 -3.23032109374999 -7.293241562499819E-002
 S -0.794224412499993 -6.86211709374999 -4.29562841562500 
 S -3.65538741249999 -6.19289909374999 -1.55535341562500 
 S -1.31690741249999 -7.09614609374999 -0.261118415624998 
 S -0.667457412499994 -2.34309209374999 -4.33200841562500 
 S -3.59187241249999 -2.56552109374999 -1.27211741562500 
 S -1.11992441249999 -3.62141009374999 -0.456649415624998 
