16

 C -2.38575312187500 -6.51315689687500 -2.45950143437500 
 C -1.17620912187500 -6.86476789687500 -1.74585343437500 
 C -2.54743112187500 -3.23002089687500 -2.33687643437500 
 C -1.28772512187500 -3.45323989687500 -1.67580943437500 
 N -8.121212187500060E-002 -7.03642389687500 -2.53089043437500 
 N -2.26942112187500 -6.42221089687500 -3.79423343437500 
 N -3.03037212187500 -6.73067389687500 3.728356562500057E-002
 N -0.234386121875001 -3.67124789687500 -2.46620743437500 
 N -2.42626712187500 -3.06499489687500 -3.62974843437500 
 N -2.99148912187500 -3.31898589687500 0.179377565625001 
 S -0.696385121875000 -6.76790189687500 -4.09111343437500 
 S -3.74589512187500 -6.34892189687500 -1.41033743437500 
 S -1.40986112187500 -6.95909489687500 3.380656562500040E-002
 S -0.871669121875001 -3.34825689687500 -4.06523643437500 
 S -3.85482112187500 -3.33748489687500 -1.20665543437500 
 S -1.30704612187500 -3.59288789687500 4.645156562500041E-002
