16

 C -2.51657697812500 -6.62368664687499 -2.48665859375000 
 C -1.28700097812500 -7.07960264687499 -1.90402459375000 
 C -2.36796197812500 -2.58874064687499 -2.29491059375000 
 C -1.15510197812500 -3.15755764687500 -1.76508959375000 
 N -0.279413978125001 -7.21757864687499 -2.74719559375000 
 N -2.43004797812500 -6.44329464687499 -3.79483359375000 
 N -2.98849397812500 -6.77928464687499 1.058640624999962E-002
 N -0.223987978125001 -3.31437464687499 -2.65302859375000 
 N -2.31562897812500 -2.22056964687499 -3.56851559375000 
 N -2.79161297812500 -3.19320664687499 0.165981406250000 
 S -0.887793978125001 -6.72968364687499 -4.20864759375000 
 S -3.88438497812500 -6.33121264687500 -1.38237659375000 
 S -1.43024897812500 -7.28145464687499 -0.166446593750000 
 S -0.812004978125001 -2.89459764687499 -4.10226659375000 
 S -3.57236497812500 -2.41055564687499 -1.09332259375000 
 S -1.19688297812500 -3.57652164687499 -9.724759375000036E-002
