16

 C -2.37428491250000 -6.61959692187500 -2.46445809375000 
 C -1.11687591250000 -6.89590092187500 -1.82701109375000 
 C -2.45240891250000 -2.67621792187500 -2.43591709375000 
 C -1.27011791250000 -3.09282092187500 -1.64025709375000 
 N -7.620491249999883E-002 -6.81968992187500 -2.64998809375000 
 N -2.30467091250000 -6.38846292187500 -3.78174309375000 
 N -2.97883691250000 -7.01665192187500 -1.840093750000937E-003
 N -0.183545912499999 -3.26472792187500 -2.37711909375000 
 N -2.18920491250000 -2.68762292187500 -3.75114309375000 
 N -3.21968991250000 -2.67462392187500 4.256090624999898E-002
 S -0.669638912499999 -6.51545592187500 -4.16305409375000 
 S -3.73994991250000 -6.56378892187500 -1.35566709375000 
 S -1.34172891250000 -7.29600992187500 -0.147274093750001 
 S -0.622497912499999 -3.04630592187500 -4.00602709375000 
 S -3.82710391250000 -2.34904192187500 -1.42687909375000 
 S -1.64632691250000 -3.19654392187500 9.024990624999907E-002
