16

 C -2.41840290000001 -6.23506148125000 -2.41193289375000 
 C -1.22077490000001 -6.75204248125000 -1.80664989375000 
 C -2.51315090000001 -2.44194848125000 -2.39176989375000 
 C -1.42779290000001 -3.11420548125000 -1.75979989375000 
 N -0.234698900000007 -6.96198448125000 -2.67436789375000 
 N -2.23394890000001 -5.91040048125000 -3.71427089375000 
 N -2.90299990000001 -6.59950948125000 0.148569106250000 
 N -0.478317900000007 -3.53328748125000 -2.56371489375000 
 N -2.34922590000001 -2.35579048125000 -3.71020889375000 
 N -3.06745890000001 -2.38464448125000 7.818310624999958E-002
 S -0.731765900000007 -6.43503248125000 -4.17073289375000 
 S -3.67957590000001 -6.07093248125000 -1.16616289375000 
 S -1.31290090000001 -7.05874348125000 -0.149158893750000 
 S -0.896629900000007 -3.03677848125000 -4.11525289375000 
 S -3.86068490000001 -2.07179448125000 -1.38715789375000 
 S -1.64881890000001 -3.21160748125000 -8.799989375000039E-002
