16

 C -2.34679712187499 -6.44117384687500 -2.32727746875000 
 C -1.11726012187499 -6.86815184687500 -1.77431046875000 
 C -2.55579512187499 -2.72484584687500 -2.39939046875000 
 C -1.43573612187499 -3.29012684687500 -1.70586246875000 
 N -0.136201121874994 -6.91824684687500 -2.66771646875000 
 N -2.35386512187499 -6.19174184687500 -3.64843746875000 
 N -2.72289012187499 -6.80014784687500 0.219338531250000 
 N -0.341730121874994 -3.44913184687500 -2.45446746875000 
 N -2.35618612187499 -2.57159584687500 -3.68711646875000 
 N -3.23972312187499 -2.97283284687500 1.617853125000046E-002
 S -0.795258121874994 -6.49417984687500 -4.13608646875000 
 S -3.62397012187499 -6.41463084687500 -1.09045446875000 
 S -1.09280012187499 -7.16578284687500 -9.546346874999934E-002
 S -0.843888121874994 -3.00703484687500 -4.06857746875000 
 S -3.90778012187499 -2.39786484687500 -1.42802346875000 
 S -1.62558312187499 -3.40384284687500 8.199531250000724E-003
