16

 C -2.47447321562500 -6.37178696250000 -2.56856448750000 
 C -1.31307121562500 -6.69870496250000 -1.83774848750000 
 C -2.44495021562500 -2.87222696250000 -2.56025948750000 
 C -1.18808721562500 -3.07937996250000 -1.87735648750000 
 N -0.222850215624999 -6.77074596250000 -2.59174548750000 
 N -2.36946321562500 -6.19173396250000 -3.88178648750000 
 N -3.03218621562500 -6.51438896250000 -6.620148750000121E-002
 N -0.102947215624998 -3.30109996250000 -2.63531348750000 
 N -2.34981721562500 -2.91790496250000 -3.90447548750000 
 N -2.97507321562500 -2.72182296250000 -4.315448750000117E-002
 S -0.729543215624998 -6.49382696250000 -4.14296848750000 
 S -3.82758921562500 -6.17707496250000 -1.52179548750000 
 S -1.43624221562500 -6.76166596250000 -0.150277487500001 
 S -0.733699215624998 -3.14408096250000 -4.21108248750000 
 S -3.70391921562500 -2.56155996250000 -1.46547548750000 
 S -1.37287621562500 -3.14693496250000 -0.121084487500001 
