16

 C -2.63940410312499 -6.67543718750000 -2.23976514687500 
 C -1.46380710312499 -7.07031418750000 -1.53832414687500 
 C -2.24416510312499 -2.59314818750000 -2.38730814687500 
 C -1.12097210312499 -3.16344518750000 -1.82620514687500 
 N -0.347937103124993 -6.99373118750000 -2.24985614687500 
 N -2.50118310312499 -6.33222718750000 -3.52433614687500 
 N -3.25818410312499 -6.93276818750000 0.263849853125000 
 N -0.139105103124994 -3.48243318750000 -2.66618514687500 
 N -2.14259310312499 -2.33320718750000 -3.66627714687500 
 N -2.94565710312499 -2.90947518750000 2.429585312500016E-002
 S -0.828160103124993 -6.48334918750000 -3.75741314687500 
 S -4.03573510312499 -6.63220918750000 -1.13320414687500 
 S -1.62307610312499 -7.25588318750000 0.135770853125000 
 S -0.593996103124994 -2.83506618750000 -4.13981214687500 
 S -3.58107110312499 -2.29883918750000 -1.36620014687500 
 S -1.42541610312499 -3.59882118750000 -0.161147146875000 
