16

 C -2.41709427187500 -6.62516231562500 -2.44810622187500 
 C -1.21140527187500 -6.74744731562500 -1.74565722187500 
 C -2.45366027187500 -2.17045331562500 -2.80622822187500 
 C -1.42674627187500 -2.93163931562500 -2.07202622187500 
 N -0.184214271874999 -6.65050431562500 -2.59066222187500 
 N -2.37008127187500 -6.52416231562500 -3.76205422187500 
 N -3.02705727187500 -6.49707331562500 4.541377812499992E-002
 N -0.327253271874999 -3.11542631562500 -2.77749422187500 
 N -2.06302727187500 -1.76843131562500 -3.99675622187500 
 N -3.47910327187500 -2.72362531562500 -0.457633221875000 
 S -0.747661271874999 -6.38929831562500 -4.14340322187500 
 S -3.80831827187500 -6.38828131562500 -1.43287622187500 
 S -1.36184827187500 -6.79588731562500 -2.833622187500007E-002
 S -0.654024271875000 -2.51300531562500 -4.26848922187500 
 S -3.88020327187500 -1.89037131562500 -1.86668722187500 
 S -1.95308527187500 -3.28839631562500 -0.437656221875000 
