16

 C -2.22199359687500 -6.61391518750000 -2.20476838750000 
 C -0.958766596875004 -7.08911718750000 -1.63834838750000 
 C -2.49041859687500 -2.65204418750000 -2.26084138750000 
 C -1.27208659687500 -3.33029718750000 -1.73635538750000 
 N 1.831240312499549E-002 -7.20303218750000 -2.53996838750000 
 N -2.24297959687500 -6.33656018750000 -3.51616738750000 
 N -2.62535259687500 -6.97250818750000 0.344043612499999 
 N -0.315127596875004 -3.53376518750000 -2.62523838750000 
 N -2.35703959687500 -2.38765518750000 -3.54009838750000 
 N -2.97424259687500 -3.19768118750000 0.215676612499999 
 S -0.644498596875004 -6.65342818750000 -4.01243438750000 
 S -3.45647859687500 -6.42151318750000 -0.985335387500001 
 S -1.04074059687500 -7.23035718750000 6.078761249999909E-002
 S -0.842300596875004 -2.95652818750000 -4.08993038750000 
 S -3.73559459687500 -2.49224018750000 -1.12521038750000 
 S -1.37340159687500 -3.53172418750000 -3.207538750000105E-002
