16

 C -2.49625178437500 -6.36175496562499 -2.56182119375000 
 C -1.32772978437500 -6.70231296562499 -1.79841519375000 
 C -2.27021478437500 -2.60383996562499 -2.37678519375000 
 C -1.14707278437500 -3.30109496562499 -1.72748619375000 
 N -0.168820784374999 -6.94339396562499 -2.43050319375000 
 N -2.20707378437500 -6.29062196562499 -3.85340019375000 
 N -3.24786178437500 -6.57346396562499 -0.116392193750000 
 N -0.214520784374998 -3.62651596562499 -2.64386019375000 
 N -2.20996278437500 -2.50472196562499 -3.70678019375000 
 N -3.01220978437500 -2.86111596562499 4.867580625000034E-002
 S -0.584592784374999 -6.77569596562499 -4.06740019375000 
 S -3.87039578437500 -6.12821296562499 -1.63200819375000 
 S -1.63973978437500 -6.80598896562499 -9.519019374999971E-002
 S -0.676884784374998 -3.04963796562499 -4.12533419375000 
 S -3.70503378437500 -2.31879096562499 -1.36605419375000 
 S -1.43447578437500 -3.39206096562499 -9.944193749999775E-003
