16

 C -2.74669159062500 -6.75525658125000 -2.33352535000000 
 C -1.46990859062500 -7.01147358125000 -1.66412335000000 
 C -2.44221659062500 -3.10072558125000 -2.43743935000000 
 C -1.10642259062500 -3.12263058125000 -1.91511535000000 
 N -0.442127590624996 -7.02137058125000 -2.51340435000000 
 N -2.73695459062500 -6.62827558125000 -3.64819035000000 
 N -3.15941159062500 -6.69829158125000 0.165968650000000 
 N -0.152162590624997 -3.23132858125000 -2.83274135000000 
 N -2.52497059062500 -3.26630858125000 -3.75605335000000 
 N -2.75367859062500 -3.11011958125000 0.116079650000000 
 S -1.07217559062500 -6.68991858125000 -4.00538035000000 
 S -4.02346459062500 -6.37924158125000 -1.19311235000000 
 S -1.49939259062500 -7.04785858125000 5.926499999999724E-004
 S -0.941568590624996 -3.23115458125000 -4.28598835000000 
 S -3.63802359062500 -2.98488858125000 -1.23962135000000 
 S -1.11494159062500 -3.33540458125000 -0.160602350000000 
