16

 C -2.20656090312500 -6.54445227500000 -2.25162078750000 
 C -1.02305790312500 -7.16851827499999 -1.70918378750000 
 C -2.25589690312500 -2.60693327499999 -2.42547578750000 
 C -1.09514290312500 -3.19638527500000 -1.77320978750000 
 N -9.620690312500013E-002 -7.34267527500000 -2.66280278750000 
 N -2.24053590312500 -6.28196527500000 -3.54457978750000 
 N -2.60025090312500 -6.52628227500000 0.249286212499999 
 N -1.906890312499954E-002 -3.32656927500000 -2.55782478750000 
 N -2.08037390312500 -2.43123827500000 -3.71737278750000 
 N -2.94167790312500 -2.91896127500000 -8.227787500001416E-003
 S -0.735591903125000 -6.77930827500000 -4.11919878750000 
 S -3.41890490312500 -6.02560727500000 -1.12311978750000 
 S -1.10069790312500 -7.41473027500000 4.166212499998601E-003
 S -0.544667903125000 -2.80300227500000 -4.07930778750000 
 S -3.64185390312500 -2.39434727500000 -1.41239778750000 
 S -1.35694090312500 -3.56382327500000 -0.105611787500001 
