16

 C -2.51604915625000 -6.36309109375001 -2.54415937812500 
 C -1.30201115625000 -6.66102109375001 -1.87128137812500 
 C -2.42550615625000 -2.84806809375001 -2.58951737812500 
 C -1.20494915625000 -3.06086209375001 -1.86545037812500 
 N -0.239917156249996 -6.77761409375001 -2.61098537812500 
 N -2.36691215625000 -6.21334109375001 -3.85220937812500 
 N -3.05786315625000 -6.53519209375001 -6.693637812500031E-002
 N -0.146842156249996 -3.30207109375001 -2.60798437812500 
 N -2.36401115625000 -2.95076809375001 -3.89979437812500 
 N -2.98480515625000 -2.70478809375001 -2.865637812500021E-002
 S -0.736956156249996 -6.46992209375001 -4.16016637812500 
 S -3.84424815625000 -6.15969509375001 -1.49636037812500 
 S -1.41402815625000 -6.76378409375001 -0.139090378125000 
 S -0.706845156249996 -3.19140809375001 -4.21835537812500 
 S -3.72642215625000 -2.57143709375001 -1.46620837812500 
 S -1.36979115625000 -3.15112109375001 -0.107587378125000 
