16

 C -2.31140310000001 -6.23007929999999 -2.43290621875000 
 C -1.17019610000001 -6.72469929999999 -1.66709721875000 
 C -2.43594010000001 -2.31412829999999 -2.36871321875000 
 C -1.25159110000001 -2.93683129999999 -1.86881021875000 
 N -0.186286100000006 -7.00386029999999 -2.49127821875000 
 N -2.16833510000001 -6.14889829999999 -3.73557521875000 
 N -3.05723110000001 -6.29268629999999 9.293278124999915E-002
 N -0.306611100000005 -3.09513029999999 -2.77449621875000 
 N -2.33659110000001 -2.00880129999999 -3.65303621875000 
 N -2.95638310000001 -2.81002029999999 7.246578124999914E-002
 S -0.670184100000006 -6.75853929999999 -4.10107121875000 
 S -3.74790610000001 -5.95132829999999 -1.44180521875000 
 S -1.53587810000001 -6.89829029999999 3.830078124999914E-002
 S -0.821894100000005 -2.47486929999999 -4.21080921875000 
 S -3.73626610000001 -2.31503929999999 -1.28150721875000 
 S -1.36664110000001 -3.28868129999999 -0.195973218750001 
