16

 C -2.61409796875000 -6.32995871875000 -2.58089378750000 
 C -1.43882896875000 -6.89663371875000 -1.89949378750000 
 C -2.68958696875000 -2.59120871875000 -2.49036778750000 
 C -1.60491996875000 -3.17427171875000 -1.79808578750000 
 N -0.360084968750003 -6.89849571875000 -2.67887178750000 
 N -2.44761896875000 -6.04527071875000 -3.87945278750000 
 N -3.20897396875000 -6.60992171875000 -4.972178750000156E-002
 N -0.523862968750003 -3.38639571875000 -2.56079978750000 
 N -2.45306096875000 -2.33583271875000 -3.78169478750000 
 N -3.41779896875000 -2.79578071875000 -5.660787500001874E-003
 S -0.882728968750003 -6.47104971875000 -4.22357378750000 
 S -3.92520496875000 -6.04316971875000 -1.46559578750000 
 S -1.62640096875000 -7.16431471875000 -0.218897787500002 
 S -0.871455968750003 -2.82729671875000 -4.06826178750000 
 S -4.12105896875000 -2.51594371875000 -1.46700878750000 
 S -1.88245596875000 -3.44452071875000 -0.109521787500002 
