16

 C -2.37144720625001 -6.48032690625001 -2.55103713750000 
 C -1.13806320625001 -6.85321690625001 -1.85744213750000 
 C -2.51568520625001 -2.55991790625001 -2.38022413750000 
 C -1.32297720625001 -3.09343790625001 -1.63161813750000 
 N -0.108224206250006 -6.89969790625001 -2.71103913750000 
 N -2.27646020625001 -6.27704290625001 -3.87572513750000 
 N -2.99351220625001 -6.89072390625001 -5.096113749999986E-002
 N -0.259196206250007 -3.40573390625001 -2.38210213750000 
 N -2.33675220625001 -2.49875090625001 -3.68919713750000 
 N -3.29475720625001 -2.79390690625001 3.639586250000026E-002
 S -0.704487206250007 -6.53403790625001 -4.19880013750000 
 S -3.76050020625001 -6.56388590625001 -1.50733513750000 
 S -1.31221320625001 -7.28453690625001 -0.198144137499999 
 S -0.796112206250006 -3.04402690625001 -3.91410413750000 
 S -3.89761020625001 -2.27069990625001 -1.41738613750000 
 S -1.64344120625001 -3.20727890625001 5.108086250000032E-002
