16

 C -2.17520484999999 -6.37185587187500 -2.33535041250000 
 C -0.924945849999989 -6.88387987187500 -1.72949641250000 
 C -2.86713484999999 -2.58493787187500 -2.57343641250000 
 C -1.61553384999999 -2.89699487187500 -1.89009241250000 
 N 0.116766150000012 -6.99531687187500 -2.59638941250000 
 N -2.08082784999999 -6.04436487187500 -3.62853141250000 
 N -2.73448084999999 -6.69032987187500 0.140181587500000 
 N -0.570177849999989 -2.93846287187500 -2.69482941250000 
 N -2.74481084999999 -2.33103287187500 -3.84627941250000 
 N -3.34989584999999 -2.84483387187500 -2.934341250000028E-002
 S -0.581500849999989 -6.49881387187500 -4.06505141250000 
 S -3.48173684999999 -6.17319587187500 -1.21859941250000 
 S -1.10739984999999 -7.13393787187500 -3.231241250000050E-002
 S -1.17461084999999 -2.54307787187500 -4.26681841250000 
 S -4.18595984999999 -2.38963587187500 -1.40229841250000 
 S -1.75443684999999 -3.26969687187500 -0.195984412500001 
