16

 C -2.16804063437500 -6.59809733750000 -2.45401532187500 
 C -0.983711634374997 -7.10243633750000 -1.76731532187500 
 C -2.63297263437500 -2.34294633749999 -2.38765832187500 
 C -1.42452263437500 -2.94503433749999 -1.78408032187500 
 N 3.577836562500369E-002 -7.32116133749999 -2.60525132187500 
 N -2.00832763437500 -6.35652933749999 -3.77341932187500 
 N -2.67289363437500 -6.63872333749999 9.525667812499772E-002
 N -0.469512634374996 -3.20571333749999 -2.66365532187500 
 N -2.54756663437500 -2.33340133749999 -3.68424332187500 
 N -3.17350563437500 -2.68548333749999 8.023167812499787E-002
 S -0.490286634374996 -6.87284833749999 -4.11936432187500 
 S -3.45090163437500 -6.15515333749999 -1.29489932187500 
 S -1.13707263437500 -7.23348733749999 -7.509832187500232E-002
 S -1.01754363437500 -2.83152033749999 -4.15590232187500 
 S -3.88028963437500 -2.07953033749999 -1.30403632187500 
 S -1.62559263437500 -3.09785933749999 -9.093332187500236E-002
