16

 C -2.44658861250001 -6.47551158750000 -2.33421685312500 
 C -1.19365961250001 -6.88466858750000 -1.71475485312500 
 C -2.37657661250001 -2.99505958750000 -2.21976285312500 
 C -1.05475161250001 -3.37676158750000 -1.73002585312500 
 N -0.193154612500006 -7.04095958750000 -2.58255585312500 
 N -2.42664761250001 -6.35424658750000 -3.66495185312500 
 N -2.90825661250001 -6.73365958750000 0.100147146875000 
 N -5.402161250000592E-002 -3.44685558750000 -2.61718585312500 
 N -2.36205361250001 -2.72482458750000 -3.54769485312500 
 N -2.66882961250001 -3.37155558750000 0.340714146875000 
 S -0.854127612500006 -6.63015758750000 -4.06430785312500 
 S -3.74055361250001 -6.34618758750000 -1.27297985312500 
 S -1.23622661250001 -7.01993458750000 1.237914687499986E-002
 S -0.845401612500006 -3.11096758750000 -4.05981985312500 
 S -3.61452361250001 -3.10579958750000 -0.994355853125000 
 S -1.01681561250001 -3.58090358750000 -3.500853125000258E-003
