16

 C -2.34571033124999 -6.31934928125001 -2.49883443750000 
 C -1.13298133124999 -6.50062128125001 -1.80361843750000 
 C -2.55594233124999 -2.28193128125001 -2.76536343750000 
 C -1.55374533124999 -3.00840228125001 -2.00836543750000 
 N -8.315933124999209E-002 -6.71684828125001 -2.58976643750000 
 N -2.21406333124999 -6.32388328125001 -3.83972743750000 
 N -3.01811133124999 -6.66615828125001 -4.147343750000076E-002
 N -0.398517331249993 -3.20547328125001 -2.62518843750000 
 N -2.13013733124999 -1.92109428125001 -3.97936443750000 
 N -3.44154633124999 -2.58785528125001 -0.326932437500001 
 S -0.596618331249992 -6.66904428125001 -4.19635643750000 
 S -3.76996033124999 -6.39696728125001 -1.48429743750000 
 S -1.29176433124999 -6.75886928125001 -9.904843750000092E-002
 S -0.583351331249992 -2.54206928125001 -4.10660843750000 
 S -3.87720733124999 -1.99697628125001 -1.77315343750000 
 S -2.01619333124999 -3.44145328125001 -0.408850437500001 
