16

 C -2.52688183125000 -6.28109245937500 -2.39890272812500 
 C -1.32020683125000 -6.87982445937500 -1.85693172812500 
 C -2.63362383125000 -2.95373245937500 -2.38589472812500 
 C -1.47885783125000 -3.41445145937500 -1.67867472812500 
 N -0.419566831249998 -7.28472245937500 -2.75646472812500 
 N -2.48073083125000 -6.18517845937500 -3.70537172812500 
 N -3.04819883125000 -6.61479245937500 7.455227187499980E-002
 N -0.369846831249999 -3.61304745937500 -2.43009572812500 
 N -2.47611983125000 -2.76892845937500 -3.70868372812500 
 N -3.25756883125000 -2.70226845937500 0.106147271875000 
 S -1.04822183125000 -6.80941745937500 -4.21953872812500 
 S -3.79985583125000 -6.07971245937500 -1.28840572812500 
 S -1.47386183125000 -7.30513445937500 -0.147189728125000 
 S -0.920010831249998 -3.28760945937500 -3.98153572812500 
 S -3.97757683125000 -2.42143345937500 -1.36252872812500 
 S -1.74002983125000 -3.38723345937500 1.500827187499976E-002
