16

 C -2.45260132500000 -6.54539207187500 -2.32115826875000 
 C -1.15128232500000 -6.71952407187500 -1.71353926875000 
 C -2.59218932500000 -2.85913007187500 -2.58481226875000 
 C -1.32225032500000 -3.22117407187500 -2.06472626875000 
 N -0.148108324999999 -6.76329207187500 -2.57153526875000 
 N -2.44067432500000 -6.37545307187500 -3.62339426875000 
 N -2.96738832500000 -6.78569007187500 0.149299731249999 
 N -0.342575324999999 -3.19880507187500 -2.98202526875000 
 N -2.54325632500000 -2.44977407187500 -3.89975626875000 
 N -2.93670332500000 -3.18296907187500 -5.377826875000125E-002
 S -0.849972324999999 -6.34230507187500 -4.06878826875000 
 S -3.79684732500000 -6.48595907187500 -1.29293826875000 
 S -1.34737532500000 -7.02649307187500 1.975373124999891E-002
 S -0.946920324999999 -2.71789207187500 -4.33113726875000 
 S -3.87294032500000 -2.85038407187500 -1.39016226875000 
 S -1.32021232500000 -3.40287707187500 -0.371917268750001 
