16

 C -2.32190717500000 -6.57808820937500 -2.45422655312500 
 C -1.17519517500000 -7.02008320937500 -1.73655855312500 
 C -2.36703117500000 -2.94439120937500 -2.52696055312500 
 C -1.15642317500000 -3.35312420937500 -1.85012055312500 
 N -0.105018175000004 -7.18543620937500 -2.49573855312500 
 N -2.10961117500000 -6.40792220937500 -3.74937355312500 
 N -3.13134617500000 -6.82581820937500 -2.613755312499855E-002
 N -0.145231175000004 -3.47659320937500 -2.66092055312500 
 N -2.22232417500000 -2.79843520937500 -3.83845355312500 
 N -3.01594517500000 -3.16004820937500 -3.937355312499857E-002
 S -0.491851175000004 -6.78357620937500 -4.05183855312500 
 S -3.74629717500000 -6.37393820937500 -1.47337455312500 
 S -1.53513417500000 -7.35537420937500 -9.877955312499864E-002
 S -0.642218175000004 -3.12751320937500 -4.18448755312500 
 S -3.65796717500000 -2.65512920937500 -1.46784855312500 
 S -1.44977617500000 -3.70555120937500 -0.182917553124998 
