16

 C -2.31613202812500 -6.35617088125000 -2.47142306250000 
 C -1.15276502812500 -6.82682788125000 -1.80107306250000 
 C -2.31971502812500 -2.56889288125000 -2.40361806250000 
 C -1.18338802812500 -3.08186088125000 -1.72150206250000 
 N -0.131954028124999 -7.00685988125000 -2.64617906250000 
 N -2.21988802812500 -6.16009388125000 -3.77404006250000 
 N -3.00954202812500 -6.67395488125000 1.874893750000273E-002
 N -0.164376028124998 -3.34323688125000 -2.49648006250000 
 N -2.18493002812500 -2.49226888125000 -3.70255606250000 
 N -3.00839102812500 -2.89647988125000 2.595493750000277E-002
 S -0.699721028124999 -6.59262388125000 -4.17942506250000 
 S -3.70904102812500 -6.29167988125000 -1.50170206250000 
 S -1.42307402812500 -7.06371488125000 -0.125207062499997 
 S -0.618968028124999 -3.02516088125000 -4.06917506250000 
 S -3.67956702812500 -2.37270988125000 -1.44105106250000 
 S -1.38733402812500 -3.13257788125000 -7.335062499997269E-003
