16

 C -2.72882483437500 -6.63512210000000 -2.35221748750000 
 C -1.51800683437500 -7.03156010000000 -1.67954748750000 
 C -2.46948083437500 -3.22403110000000 -2.36359648750000 
 C -1.11766483437500 -3.22919610000000 -1.88012448750000 
 N -0.516090834375002 -7.18644810000000 -2.54622648750000 
 N -2.65939783437500 -6.42938810000000 -3.69146948750000 
 N -3.21586583437500 -6.59363610000000 0.206605512499999 
 N -0.147993834375002 -3.17937610000000 -2.80337548750000 
 N -2.53434483437500 -3.13451610000000 -3.69464948750000 
 N -2.78291183437500 -3.09836910000000 0.148222512499999 
 S -1.07044783437500 -6.84274510000000 -4.09639248750000 
 S -3.98812283437500 -6.19884010000000 -1.16148448750000 
 S -1.57173483437500 -6.91484310000000 1.914851249999860E-002
 S -0.952862834375003 -3.21668710000000 -4.24970748750000 
 S -3.76372383437500 -3.07888210000000 -1.24067848750000 
 S -1.13662483437500 -3.27717710000000 -8.097848750000147E-002
