16

 C -2.33291099375000 -6.22880866562500 -2.21039263437500 
 C -1.17719599375000 -6.77546766562500 -1.55251963437500 
 C -2.35134299375000 -2.50116666562499 -2.13747663437500 
 C -1.13256299375000 -3.05401866562500 -1.53777963437500 
 N -8.376599374999572E-002 -6.93455666562499 -2.30975663437500 
 N -2.13265699375000 -6.01499166562500 -3.52115663437500 
 N -2.98491399375000 -6.46111566562499 0.324290365625000 
 N -0.125106993749996 -3.15075866562499 -2.41630463437500 
 N -2.18709799375000 -2.18221166562499 -3.41176763437500 
 N -2.91798299375000 -3.18959466562499 0.232397365625000 
 S -0.539266993749996 -6.48188266562499 -3.90087963437500 
 S -3.72595199375000 -6.11925566562500 -1.14843763437500 
 S -1.52805999375000 -7.12004666562500 0.146409365625000 
 S -0.648909993749996 -2.45026666562500 -3.86638863437500 
 S -3.69118999375000 -2.45025166562499 -1.07412063437500 
 S -1.36235899375000 -3.74195866562500 6.451336562499987E-002
