16

 C -2.64822807187500 -6.47705661250000 -2.40333140937500 
 C -1.46883507187500 -6.76529561250000 -1.71527540937500 
 C -2.64520307187500 -2.36587661250000 -2.38635540937500 
 C -1.48457107187500 -2.98754461250000 -1.76367240937500 
 N -0.365590071875003 -6.91062561250000 -2.42686740937500 
 N -2.45069407187500 -6.25497961250000 -3.71029540937500 
 N -3.24031707187500 -6.65393761250000 7.547459062500117E-002
 N -0.517344071875002 -3.26405361250000 -2.61605140937500 
 N -2.52659207187500 -2.16926761250000 -3.69297740937500 
 N -3.24179507187500 -2.82835661250000 7.026559062500115E-002
 S -0.822000071875003 -6.57383961250000 -3.96530440937500 
 S -4.01462107187500 -6.61590761250000 -1.33874740937500 
 S -1.64128407187500 -6.99521861250000 -4.276640937499887E-002
 S -1.00316007187500 -2.72257861250000 -4.11159640937500 
 S -3.93294407187500 -2.19814861250000 -1.29796040937500 
 S -1.62933507187500 -3.18284261250000 -9.615240937499880E-002
