16

 C -2.25514629375000 -6.52163876875000 -2.26102354062500 
 C -1.01192929375000 -7.14069376875000 -1.73052154062500 
 C -2.22999329375000 -2.59345876875000 -2.46613054062500 
 C -1.09689829375000 -3.22118876875000 -1.82393954062500 
 N -9.060429375000023E-002 -7.32955576875000 -2.65976854062500 
 N -2.24472829375000 -6.29066176875000 -3.57111454062500 
 N -2.59647729375000 -6.55380276875000 0.260392459375000 
 N -3.967293749999712E-003 -3.29175176875000 -2.58876454062500 
 N -2.10612629375000 -2.35872576875000 -3.78744354062500 
 N -2.95073329375000 -2.96328476875000 5.957845937499973E-002
 S -0.747501293750000 -6.80596876875000 -4.09510754062500 
 S -3.36598629375000 -6.03795976875000 -1.09191354062500 
 S -1.12618229375000 -7.39942376875000 2.448345937499963E-002
 S -0.580650293750000 -2.80454876875000 -4.09147954062500 
 S -3.60905029375000 -2.41167576875000 -1.36692554062500 
 S -1.36663429375000 -3.58117976875000 -0.146291540625000 
