16

 C -2.31844617187500 -6.53365102500000 -2.33910830312500 
 C -1.15268917187500 -7.10374802500000 -1.77510830312500 
 C -2.47511017187500 -2.79121902500000 -2.28346630312500 
 C -1.14685117187500 -3.17743002500000 -1.68801230312500 
 N -0.126520171875005 -7.34943202500000 -2.59833630312500 
 N -2.21134117187500 -6.37778402500000 -3.65233330312500 
 N -2.78745417187501 -6.63507702500000 0.169340696874999 
 N -0.214645171875005 -3.40399202500000 -2.58584530312500 
 N -2.43564817187500 -2.68844702500000 -3.58726630312500 
 N -2.85149617187500 -2.89478002500000 0.264492696874999 
 S -0.678687171875005 -6.77612802500000 -4.11469430312500 
 S -3.60683117187500 -6.36092602500000 -1.26494030312500 
 S -1.35186217187500 -7.30318202500000 -1.690930312500094E-002
 S -0.982251171875005 -3.30368102500000 -4.12146930312500 
 S -3.83749017187500 -2.75982902500000 -1.11169630312500 
 S -1.20355917187501 -3.15585602500000 7.681569687499890E-002
