16

 C -2.49515736250000 -6.51649440937500 -2.44499588437500 
 C -1.29854036250000 -6.81432340937500 -1.70315988437500 
 C -2.68303236250000 -2.86541040937500 -2.55626088437500 
 C -1.43176636250000 -3.26171640937500 -1.89643188437500 
 N -0.229870362499997 -6.91962440937500 -2.49881388437500 
 N -2.38603336250000 -6.57108840937500 -3.77342188437500 
 N -3.05327636250000 -6.43137440937500 8.827611562499960E-002
 N -0.416249362499998 -3.48355540937500 -2.71838188437500 
 N -2.59702436250000 -2.67777440937500 -3.87058688437500 
 N -3.14827336250000 -2.89023340937500 6.133511562499949E-002
 S -0.731562362499997 -6.83842940937500 -4.05982288437500 
 S -3.83761736250000 -6.21947340937500 -1.36143388437500 
 S -1.45096236250000 -6.89315040937500 1.337911562499960E-002
 S -0.971111362499998 -3.01048940937500 -4.23372788437500 
 S -3.91856536250000 -2.44187840937500 -1.38712988437500 
 S -1.54152136250000 -3.40592740937500 -0.117707884375000 
