16

 C -2.56322290937499 -6.65030296250000 -2.32855876250000 
 C -1.31775790937499 -7.13252096250000 -1.73306076250000 
 C -2.47260390937499 -2.89958696250000 -2.35919776250000 
 C -1.24337790937499 -3.48410196250000 -1.86220976250000 
 N -0.273141909374991 -7.31223096250000 -2.56256076250000 
 N -2.45304490937499 -6.44485596250000 -3.64568776250000 
 N -3.11318590937499 -6.77009096250000 0.152393237500001 
 N -0.299516909374991 -3.69667096250000 -2.74655876250000 
 N -2.45705890937499 -2.66347296250000 -3.69623176250000 
 N -2.83440890937499 -3.35000596250000 0.154627237500000 
 S -0.944664909374991 -6.95263496250000 -4.08096076250000 
 S -3.94182890937499 -6.60568096250000 -1.28523676250000 
 S -1.54827890937499 -7.30693896250000 2.093923750000037E-002
 S -0.950477909374991 -3.16702696250000 -4.19300876250000 
 S -3.69493290937499 -2.71940296250000 -1.14903776250000 
 S -1.21620290937499 -3.66044796250000 -0.134334762500000 
