16

 C -2.65104154062500 -6.32496671250000 -2.58733696250000 
 C -1.46659654062500 -6.82138771250000 -1.96972096250000 
 C -2.70903154062500 -2.62359171250000 -2.52167896250000 
 C -1.56898854062500 -3.18232171250000 -1.78390996250000 
 N -0.354916540625001 -6.93797871250000 -2.70031896250000 
 N -2.45094054062500 -6.08954471250000 -3.89602596250000 
 N -3.17994154062500 -6.66092071250000 -5.507796250000085E-002
 N -0.529430540625000 -3.43266471250000 -2.54159596250000 
 N -2.46090354062500 -2.32104971250000 -3.78482696250000 
 N -3.41178254062500 -2.80806771250000 -3.745796250000089E-002
 S -0.869024540625000 -6.44483971250000 -4.18763896250000 
 S -3.95844654062500 -6.07960671250000 -1.44787296250000 
 S -1.61133754062500 -7.09155671250000 -0.227143962500001 
 S -0.946205540625001 -2.78489171250000 -4.12511596250000 
 S -4.11880254062500 -2.53426771250000 -1.48997696250000 
 S -1.84611254062500 -3.44647371250000 -0.107810962500001 
