16

 C -2.51208028750000 -6.29231214687500 -2.47710324687500 
 C -1.33374528750000 -6.82591614687500 -1.83610224687500 
 C -2.42650928750000 -2.50925514687500 -2.49814124687500 
 C -1.23459528750000 -2.97691214687500 -1.77261624687500 
 N -0.348343287500000 -7.08592714687500 -2.69388924687500 
 N -2.36677428750000 -6.15307414687500 -3.78006624687500 
 N -3.18453428750000 -6.40331814687500 -2.305024687499890E-002
 N -0.293118287500000 -3.33513914687500 -2.61244024687500 
 N -2.25668228750000 -2.33845414687500 -3.78895624687500 
 N -3.06934428750000 -2.60576114687500 2.175075312500119E-002
 S -0.851715287499999 -6.73115714687500 -4.21704624687500 
 S -3.83726328750000 -5.95406214687500 -1.45408024687500 
 S -1.62655328750000 -7.02774214687500 -0.134794246874999 
 S -0.708922287499999 -2.90755214687500 -4.14772924687500 
 S -3.75318328750000 -2.11465914687500 -1.44025624687500 
 S -1.44449728750000 -2.97497014687500 -5.088824687499893E-002
