16

 C -2.55728185312500 -6.44550793125000 -2.46308794687500 
 C -1.31905985312500 -6.72113493125000 -1.74490194687500 
 C -2.56732085312500 -2.52149493125000 -2.39221794687500 
 C -1.40286885312500 -3.10982593125000 -1.82455394687500 
 N -0.259792853124999 -6.77043693125000 -2.56932194687500 
 N -2.36656285312500 -6.26263493125000 -3.75242394687500 
 N -3.30693985312500 -6.66896593125000 -2.735794687500026E-002
 N -0.422293853125000 -3.19276993125000 -2.71191394687500 
 N -2.51761485312500 -2.28838993125000 -3.69627294687500 
 N -3.07558485312500 -2.62693893125000 0.126112053125000 
 S -0.803127853124999 -6.48310293125000 -4.12227694687500 
 S -3.98524485312500 -6.51129593125000 -1.49835294687500 
 S -1.61462685312500 -6.93036693125000 1.936905312499970E-002
 S -0.935456853124999 -2.77774693125000 -4.21519194687500 
 S -3.86710685312500 -2.23980293125000 -1.29070694687500 
 S -1.50550685312500 -3.18533693125000 -0.102985946875001 
