16

 C -2.57106600000000 -6.49795611562501 -2.51689222500000 
 C -1.42206600000000 -6.89777011562501 -1.76395522500000 
 C -2.45951800000000 -2.87152311562501 -2.37493522500000 
 C -1.21927200000000 -3.17561211562501 -1.68187922500000 
 N -0.322775999999997 -7.10463211562501 -2.48054122500000 
 N -2.34110400000000 -6.45169811562501 -3.82721022500000 
 N -3.26562100000000 -6.18200511562501 -0.110957225000001 
 N -0.136715999999996 -3.33842611562501 -2.41727722500000 
 N -2.30881700000000 -2.97563511562501 -3.68929922500000 
 N -3.00614200000000 -3.01957811562501 0.147282774999999 
 S -0.803385999999996 -6.89586811562501 -4.03287422500000 
 S -3.86305700000000 -5.89140011562501 -1.58545522500000 
 S -1.66922300000000 -6.69442911562501 -3.427022500000065E-002
 S -0.691309999999996 -3.16569311562501 -4.05661822500000 
 S -3.84768200000000 -2.63205511562501 -1.27323222500000 
 S -1.41155200000000 -3.50103311562501 -2.526622500000064E-002
