16

 C -2.44616365937500 -6.45720997812500 -2.35689055000000 
 C -1.17323465937500 -6.83615197812500 -1.72743455000000 
 C -2.54921665937500 -2.88338297812500 -2.55601055000000 
 C -1.29384865937500 -3.30934097812500 -2.02545855000000 
 N -0.161844659374999 -6.73310197812500 -2.58118555000000 
 N -2.37474365937500 -6.17632697812500 -3.66039155000000 
 N -2.94790465937500 -6.84406497812500 0.182163449999999 
 N -0.224137659375000 -3.31844197812500 -2.81087555000000 
 N -2.46943865937500 -2.54588197812500 -3.84882855000000 
 N -2.91159965937500 -3.20437597812500 -6.774855000000146E-002
 S -0.780111659375000 -6.45692197812500 -4.07535355000000 
 S -3.78756865937500 -6.50757997812500 -1.18907055000000 
 S -1.28154065937500 -7.08186697812500 -3.557550000001353E-003
 S -0.897793659374999 -2.73463697812500 -4.32367655000000 
 S -3.82081565937500 -2.92400197812500 -1.42375555000000 
 S -1.29915865937500 -3.47969797812500 -0.322795550000001 
