16

 C -2.29833970625000 -6.37519591562500 -2.47500919062500 
 C -1.12544870625000 -6.75334591562500 -1.76071619062500 
 C -2.57770470625000 -2.66954791562500 -2.43731319062500 
 C -1.33041970625000 -2.91572491562500 -1.78801219062500 
 N -2.444470624999973E-002 -6.92321391562500 -2.50595819062500 
 N -2.15966870625000 -6.45330891562500 -3.76502819062500 
 N -3.07176170625000 -6.41273791562500 -4.133719062500263E-002
 N -0.301947706250000 -3.05204791562500 -2.58586919062500 
 N -2.43434370625000 -2.59291291562500 -3.74745819062500 
 N -3.20250670625000 -2.84535191562500 -2.527819062500258E-002
 S -0.614048706250000 -6.89912891562500 -4.08680319062500 
 S -3.71174670625000 -6.14956791562500 -1.53962019062500 
 S -1.43965970625000 -6.83151391562500 -2.811719062500262E-002
 S -0.821484706250000 -2.75815191562500 -4.15251619062500 
 S -3.99131770625000 -2.67322191562500 -1.48237419062500 
 S -1.56726170625000 -3.19424891562500 -0.115726190625003 
