16

 C -2.40123915937499 -6.78080010625000 -2.19747505312500 
 C -1.13170115937499 -7.16582110625000 -1.58088405312500 
 C -2.53040415937499 -2.80471310625000 -2.44159105312500 
 C -1.22710815937499 -3.12807910625000 -1.77477405312500 
 N -0.127856159374994 -7.24579910625000 -2.45748105312500 
 N -2.31192115937499 -6.55433510625000 -3.50642205312500 
 N -2.80433415937499 -6.93735610625000 0.325067946875000 
 N -0.204115159374994 -3.33026710625000 -2.62706505312500 
 N -2.38524915937499 -2.67410010625000 -3.76588205312500 
 N -2.94358815937499 -2.97131110625000 0.108489946875000 
 S -0.750360159374994 -6.83771710625000 -3.93664505312500 
 S -3.77040415937499 -6.66719610625000 -1.03206005312500 
 S -1.22674815937499 -7.36098610625000 0.129285946875000 
 S -0.841126159374994 -3.00604910625000 -4.17561205312500 
 S -3.79032615937499 -2.59617510625000 -1.28326205312500 
 S -1.28221015937499 -3.28684810625000 -5.531905312500029E-002
