16

 C -2.21097656249999 -6.34123316562500 -2.43285911250000 
 C -1.03842956249999 -6.84461516562500 -1.73976411250000 
 C -2.83409256249999 -2.52825216562500 -2.50486911250000 
 C -1.56642556249999 -2.90238116562500 -1.90579111250000 
 N 1.385243750000686E-002 -7.04846616562500 -2.51288511250000 
 N -2.04708456249999 -6.12994016562500 -3.74933111250000 
 N -2.87466156249999 -6.62016416562500 9.921488749999963E-002
 N -0.505108562499993 -2.87668616562500 -2.74305711250000 
 N -2.77177556249999 -2.30953116562500 -3.85725811250000 
 N -3.34729956249999 -2.85018316562500 8.983887499999677E-003
 S -0.440189562499993 -6.51752916562500 -4.02804411250000 
 S -3.58597556249999 -6.16293416562500 -1.31689511250000 
 S -1.23722556249999 -7.09256316562500 -1.246511250000015E-002
 S -1.15876456249999 -2.49223216562500 -4.20150111250000 
 S -4.17966056249999 -2.47425116562500 -1.42155711250000 
 S -1.71355356249999 -3.05639716562500 -0.215901112500001 
