16

 C -2.22513490000001 -6.49863079687500 -2.46172537812500 
 C -1.09568190000001 -7.13870079687500 -1.88029337812500 
 C -2.40895490000001 -2.96907779687500 -2.29746637812500 
 C -1.19553090000001 -3.47301079687500 -1.65011837812500 
 N -3.217090000000677E-002 -7.27358779687500 -2.66974637812500 
 N -2.06252790000001 -6.24112479687500 -3.74465737812500 
 N -2.93986390000001 -6.80923279687500 -2.816737812499981E-002
 N -0.219472900000008 -3.66574579687500 -2.53332237812500 
 N -2.28119190000001 -2.74979579687500 -3.62305037812500 
 N -2.89173990000001 -2.92812479687500 0.178603621875000 
 S -0.554137900000007 -6.85216879687500 -4.22516537812500 
 S -3.54601590000001 -6.20759679687500 -1.44294737812500 
 S -1.37396690000001 -7.36399879687500 -0.103118378125000 
 S -0.738070900000007 -3.19267879687500 -3.98889937812500 
 S -3.76769690000001 -2.74257979687500 -1.28468337812500 
 S -1.33777190000001 -3.49538979687500 8.926062187500028E-002
