16

 C -2.31663997812500 -6.62743687500000 -2.49894722812500 
 C -1.12392797812500 -7.10987487500000 -1.84352222812500 
 C -2.37956497812500 -2.93120987500000 -2.53641822812500 
 C -1.18041397812500 -3.47128987500000 -1.83478622812500 
 N -4.236797812499926E-002 -7.14861187500000 -2.62576122812500 
 N -2.14166097812500 -6.31813587500000 -3.79770022812500 
 N -3.00363397812500 -6.88481687500000 -2.735222812500049E-002
 N -0.106049978124999 -3.57215987500000 -2.59830922812500 
 N -2.22631497812500 -2.83107487500000 -3.84453922812500 
 N -3.06796297812500 -3.20980787500000 -5.226922812500034E-002
 S -0.580446978124999 -6.62698487500000 -4.13081322812500 
 S -3.70987597812500 -6.49479687500000 -1.47337022812500 
 S -1.40253097812500 -7.39134287500000 -4.969222812500029E-002
 S -0.643330978124999 -3.19091287500000 -4.22411022812500 
 S -3.74186897812500 -2.61771587500000 -1.43643422812500 
 S -1.45917197812500 -3.74712087500000 -0.102589228125000 
