16

 C -2.60340986562500 -6.51519537500000 -2.37545891250000 
 C -1.32646586562500 -6.84757737500000 -1.76327491250000 
 C -2.18471086562500 -2.98824037500000 -2.32377291250000 
 C -0.980244865624999 -3.55101037500000 -1.67226691250000 
 N -0.316138865624999 -7.07249137500000 -2.58366291250000 
 N -2.50322986562500 -6.38433537500000 -3.68875991250000 
 N -2.95824786562500 -6.56885637500000 0.254247087500002 
 N 8.835813437500040E-002 -3.54182337500000 -2.49786991250000 
 N -2.03138186562500 -2.67451937500000 -3.60950291250000 
 N -2.84754386562500 -3.37267537500000 0.130338087500002 
 S -0.907828865624999 -6.79229337500000 -4.09155691250000 
 S -3.83046286562500 -6.28402837500000 -1.19064191250000 
 S -1.37319686562500 -7.02343337500000 2.941708750000238E-002
 S -0.451671865624999 -3.02055237500000 -3.95904891250000 
 S -3.57561886562500 -2.82058037500000 -1.27415491250000 
 S -1.29626386562500 -3.92347137500000 -4.059191249999761E-002
