16

 C -2.21274293437499 -6.40298690937500 -2.18305165625000 
 C -1.05451093437499 -6.98773990937500 -1.54980465625000 
 C -2.44738593437499 -2.69186590937500 -2.30489465625000 
 C -1.19210693437500 -3.28561690937500 -1.73156165625000 
 N -3.659293437499489E-002 -7.22614590937500 -2.36316665625000 
 N -2.10481493437500 -6.17896090937500 -3.50577765625000 
 N -2.75236293437499 -6.81027190937500 0.323054343750000 
 N -0.221957934374995 -3.51727990937500 -2.61233165625000 
 N -2.28826593437500 -2.29012190937500 -3.56615465625000 
 N -2.93789793437499 -3.15972290937500 0.206059343750000 
 S -0.570802934374995 -6.78511790937500 -3.87116665625000 
 S -3.63783393437499 -6.40940990937500 -1.08063565625000 
 S -1.15819293437499 -7.27338990937500 0.148116343750000 
 S -0.800970934374995 -2.79149490937500 -4.04217765625000 
 S -3.70798693437500 -2.57829190937500 -1.17801665625000 
 S -1.33720993437499 -3.60595090937500 1.041034375000027E-002
