16

 C -2.59351733749999 -6.62294063125000 -2.38645833750000 
 C -1.34847733749999 -7.06495763125000 -1.74759233750000 
 C -2.40313233749999 -2.97615463125000 -2.34364033750000 
 C -1.17457633749999 -3.55683963125000 -1.85218633750000 
 N -0.360530337499991 -7.39501463125000 -2.57445533750000 
 N -2.54331333749999 -6.57932763125000 -3.71051433750000 
 N -3.02745333749999 -6.82532363125000 0.200323662500002 
 N -0.159148337499992 -3.66707563125000 -2.74778233750000 
 N -2.39760333749999 -2.82326763125000 -3.65488633750000 
 N -2.77530933749999 -3.29940963125000 0.200538662500002 
 S -0.979746337499991 -7.00160963125000 -4.08582133750000 
 S -3.87565733749999 -6.54385463125000 -1.20405033750000 
 S -1.44021233749999 -7.23832263125000 1.135466250000139E-002
 S -0.901567337499992 -3.20274163125000 -4.24996733750000 
 S -3.63257533749999 -2.74893063125000 -1.14966833750000 
 S -1.21251733749999 -3.87326163125000 -0.111825337499998 
