16

 C -2.49146067187500 -6.12005760000000 -2.73006403750000 
 C -1.34160367187500 -6.59695760000000 -2.02041603750000 
 C -2.48769867187500 -2.72927160000000 -2.48951103750000 
 C -1.20483167187500 -3.00950660000000 -1.83319303750000 
 N -0.292327671874999 -6.71892760000000 -2.80086403750000 
 N -2.34843267187500 -6.00120460000000 -4.04494503750000 
 N -3.16071767187500 -6.59659560000000 -0.220628037500000 
 N -0.186926671874998 -3.14948660000000 -2.66552903750000 
 N -2.32477067187500 -2.64476460000000 -3.79096003750000 
 N -3.02750467187500 -2.79613760000000 -4.798103750000005E-002
 S -0.761252671874998 -6.41300360000000 -4.36800803750000 
 S -3.90036767187500 -6.15259660000000 -1.62703803750000 
 S -1.55469867187500 -6.92519860000000 -0.313257037500000 
 S -0.761505671874998 -2.94700960000000 -4.22860003750000 
 S -3.84237667187500 -2.71507360000000 -1.49919503750000 
 S -1.42441867187500 -3.17604860000000 -0.136009037500000 
