16

 C -2.35286453125000 -6.08024566875000 -2.20479766875000 
 C -1.17211953125000 -6.67466066875000 -1.64582566875000 
 C -2.66128053124999 -2.42246666875000 -2.60656566875000 
 C -1.40447053124999 -2.85628566875000 -1.95144466875000 
 N -0.189571531249995 -6.90364166875001 -2.50242966875000 
 N -2.20412853124999 -5.84624066875000 -3.50037766875000 
 N -2.67490553124999 -6.26122166875000 0.399192331249999 
 N -0.420643531249995 -2.97318966875000 -2.84570066875000 
 N -2.59527853125000 -2.41527866875000 -3.93592766875000 
 N -3.14248353125000 -2.44596566875000 -6.292066875000102E-002
 S -0.697285531249995 -6.44728666875000 -4.01273366875000 
 S -3.56689853125000 -5.81107666875000 -0.984592668750001 
 S -1.17418153125000 -6.88713366875001 0.106294331249999 
 S -1.01646653125000 -2.80233966875000 -4.30842866875000 
 S -3.96340953125000 -2.01163466875000 -1.48709466875000 
 S -1.56743453125000 -2.89122266875000 -0.217641668750001 
