16

 C -2.50615870625000 -6.66255125937500 -2.30638879687500 
 C -1.23177570625000 -7.00389025937500 -1.68671379687500 
 C -2.52067370625000 -2.86187125937500 -2.35765079687500 
 C -1.28224370625000 -3.25979525937500 -1.72149979687500 
 N -0.249110706250001 -7.05000225937500 -2.59669179687500 
 N -2.42725970625000 -6.42202925937500 -3.61217879687500 
 N -3.04691170625000 -6.94966425937500 0.151179203125000 
 N -0.305194706250001 -3.43181525937500 -2.62972379687500 
 N -2.46637170625000 -2.69713625937500 -3.69805379687500 
 N -2.97449870625000 -2.99027325937500 0.153369203125000 
 S -0.851872706250001 -6.70016425937500 -4.08264279687500 
 S -3.82243070625000 -6.49477725937500 -1.24249479687500 
 S -1.42039170625000 -7.21499325937500 1.064120312500005E-002
 S -0.886561706250001 -3.12370925937500 -4.06638979687500 
 S -3.83978570625000 -2.53943525937500 -1.23930279687500 
 S -1.42337270625000 -3.53255525937500 -1.697968750002943E-004
