16

 C -2.28996477812501 -6.66985952500000 -2.37801613125000 
 C -1.15549877812501 -7.17725252500000 -1.68450013125000 
 C -2.60488477812501 -2.61398952500000 -2.29790913125000 
 C -1.55145677812501 -3.48954052500000 -1.78013413125000 
 N -0.112441778125008 -7.42581252500000 -2.45823013125000 
 N -2.09065477812501 -6.65150852500000 -3.71004113125000 
 N -3.07621277812501 -6.98023752500000 8.229486874999892E-002
 N -0.660182778125008 -3.98246952500000 -2.66426113125000 
 N -2.44593277812501 -2.41196352500000 -3.62036613125000 
 N -3.03425677812501 -2.82618252500000 0.208472868749999 
 S -0.530885778125008 -7.15261352500000 -4.04768913125000 
 S -3.71225077812501 -6.51355552500000 -1.34293213125000 
 S -1.45069277812501 -7.51257752500000 -3.217131250001115E-003
 S -1.08262277812501 -3.23378452500000 -4.08925413125000 
 S -3.73051977812501 -2.05957552500000 -1.12214813125000 
 S -1.73853677812501 -3.81116552500000 -0.103882131250001 
