16

 C -2.51614277812500 -6.49424419062500 -2.32750900312500 
 C -1.26476877812500 -6.89725919062499 -1.75950700312500 
 C -2.31181377812500 -2.94207819062500 -2.26822400312500 
 C -1.05771277812500 -3.37978019062500 -1.65286400312500 
 N -0.236287778125003 -7.01073619062500 -2.59220100312500 
 N -2.41380777812500 -6.35608819062500 -3.63012400312500 
 N -2.94909777812500 -6.69259319062500 0.222840996875002 
 N -8.684277812500252E-002 -3.53021119062500 -2.54283700312500 
 N -2.16482977812500 -2.72086019062499 -3.57417800312500 
 N -2.72975877812500 -3.42032119062500 0.211274996875002 
 S -0.870927778125003 -6.73808019062499 -4.12229400312500 
 S -3.79950877812500 -6.32626919062499 -1.13191500312500 
 S -1.34912177812500 -6.99030919062499 -2.382700312499830E-002
 S -0.596784778125002 -3.02994519062500 -4.05002800312500 
 S -3.59021477812500 -2.93522919062500 -1.14936200312500 
 S -1.15153077812500 -3.78319619062500 9.705996875001732E-003
