16

 C -2.42742082187500 -6.55726920937500 -2.29889531875000 
 C -1.28529482187500 -7.04651220937500 -1.54939431875000 
 C -2.43222982187500 -2.84529820937500 -2.42912231875000 
 C -1.21695782187500 -3.15276520937500 -1.81052531875000 
 N -0.148587821874998 -7.18735120937500 -2.23394031875000 
 N -2.23408082187500 -6.40514020937500 -3.63158331875000 
 N -3.10310682187500 -6.64563120937500 0.210534681250002 
 N -0.120885821874999 -3.14665020937500 -2.54410431875000 
 N -2.30915182187500 -2.44212220937500 -3.68240831875000 
 N -3.08242782187500 -3.31784920937500 -1.429318749998298E-003
 S -0.569209821874999 -6.76770520937500 -3.79234431875000 
 S -3.77305582187500 -6.22941420937500 -1.24233531875000 
 S -1.54725182187500 -7.22279720937500 7.983868125000182E-002
 S -0.688122821874999 -2.68311120937500 -4.06041331875000 
 S -3.81601582187500 -2.72186020937500 -1.37298531875000 
 S -1.43746282187500 -3.53941620937500 -9.947431874999846E-002
