16

 C -2.32980450625000 -6.28177512812500 -2.31770345937500 
 C -1.08719850625000 -6.72615012812500 -1.78021245937500 
 C -2.60468950625000 -2.55091312812500 -2.55102645937500 
 C -1.52818950625000 -3.17183012812500 -1.83260645937500 
 N -0.141009506249996 -6.97445712812500 -2.68260845937500 
 N -2.27904250625000 -6.11919912812500 -3.63533445937500 
 N -2.89356750625000 -6.73947012812500 2.066154062500059E-002
 N -0.543025506249996 -3.50442512812500 -2.62157145937500 
 N -2.36661750625000 -2.37603912812500 -3.82933845937500 
 N -3.19445550625000 -2.62910712812500 -2.765245937499938E-002
 S -0.787455506249996 -6.48838512812500 -4.13906345937500 
 S -3.55015650625000 -5.93892912812500 -1.25194645937500 
 S -1.20440450625000 -7.09582512812500 -1.151545937499954E-002
 S -0.916013506249996 -3.12469712812500 -4.21238445937500 
 S -3.87273750625000 -2.13551112812500 -1.50687345937500 
 S -1.63011850625000 -3.11969012812500 -0.101168459375000 
