16

 C -2.48506900000001 -6.79706761562500 -2.21705580625000 
 C -1.16980300000001 -7.12841561562500 -1.65312280625000 
 C -2.60020100000001 -2.80362961562500 -2.38947480625000 
 C -1.29260700000001 -3.27346061562500 -1.80225980625000 
 N -0.191644000000009 -7.30413961562500 -2.52633380625000 
 N -2.46900400000001 -6.73134061562500 -3.55780580625000 
 N -2.81505300000001 -7.11544061562500 0.293011193750000 
 N -0.307875000000009 -3.40737561562500 -2.68953480625000 
 N -2.58294800000001 -2.58445961562500 -3.71436280625000 
 N -2.96217700000001 -2.96949461562500 0.109496193750000 
 S -0.927836000000009 -7.02452361562500 -3.98922180625000 
 S -3.70782200000001 -6.65585561562500 -1.01641380625000 
 S -1.18368900000001 -7.33989761562500 9.334419374999969E-002
 S -1.01267200000001 -2.91324961562500 -4.14459980625000 
 S -3.84064100000001 -2.52055661562500 -1.25436280625000 
 S -1.37155700000001 -3.44329161562500 -9.738280625000040E-002
