16

 C -2.43851467187500 -6.34699118125000 -2.44698942812500 
 C -1.23396967187499 -6.81900018125000 -1.83431442812500 
 C -2.45700367187500 -2.46118718125000 -2.35546942812500 
 C -1.26114667187499 -2.99764118125000 -1.72849542812500 
 N -0.199924671874995 -6.92791018125000 -2.66569542812500 
 N -2.38612667187499 -6.03651618125000 -3.71871042812500 
 N -3.00742567187500 -6.41174818125000 9.963957187499894E-002
 N -0.242784671874995 -3.25346618125000 -2.58372642812500 
 N -2.39044967187500 -2.35598218125000 -3.67861742812500 
 N -3.11531367187500 -2.74201718125000 0.122300571874999 
 S -0.816560671874995 -6.48275618125000 -4.16895042812500 
 S -3.77332267187500 -6.02245018125000 -1.35127742812500 
 S -1.50298467187500 -6.97222818125000 -3.487642812500114E-002
 S -0.829707671874995 -2.73708118125000 -4.05076142812500 
 S -3.71138567187499 -1.96160018125000 -1.19524542812500 
 S -1.52419167187499 -3.22244418125000 -2.981942812500105E-002
