16

 C -2.39267980625000 -6.29828119687500 -2.23040894062500 
 C -1.13461080625000 -6.71271019687500 -1.65169894062500 
 C -2.46157380625000 -2.76743519687500 -2.80649394062500 
 C -1.13937180625000 -2.89657419687500 -2.23273794062500 
 N -0.143849806250001 -6.75365719687500 -2.50616094062500 
 N -2.26320980625000 -5.94518119687500 -3.50352794062500 
 N -2.78857680625000 -6.51704719687500 0.240305059374999 
 N -0.126249806250001 -2.89785319687500 -3.08647194062500 
 N -2.40673380625000 -2.65860519687500 -4.10434994062500 
 N -2.92231380625000 -3.09106519687500 -0.332972940625001 
 S -0.733593806250001 -6.26168719687500 -3.98047294062500 
 S -3.71279380625000 -6.18710419687500 -1.17578294062500 
 S -1.34818580625000 -7.21196119687500 -1.561594062500071E-002
 S -0.834433806250002 -2.56261719687500 -4.55624194062500 
 S -3.83047880625000 -2.98172719687500 -1.68723394062500 
 S -1.24250180625000 -3.14569219687500 -0.436878940625001 
