16

 C -2.23236796250000 -6.21100556875000 -2.50395681250000 
 C -1.12068196250000 -6.83656756875000 -1.84101781250000 
 C -2.26427496250000 -2.91733656875000 -2.37259981250000 
 C -1.07252396250000 -3.54643756875000 -1.88848681250000 
 N -0.147624962499998 -7.10882056875000 -2.68858081250000 
 N -2.08697096250000 -5.97298956875000 -3.80037381250000 
 N -2.95050396250000 -6.75501156875000 -0.125748812499999 
 N -1.716496249999810E-002 -3.61761456875000 -2.71648381250000 
 N -2.19631096250000 -2.48506856875000 -3.62826681250000 
 N -2.61239296250000 -3.20054356875000 0.170340187500001 
 S -0.563144962499998 -6.59103656875000 -4.20769481250000 
 S -3.63965096250000 -6.07930056875000 -1.49008881250000 
 S -1.35298196250000 -7.14551056875000 -0.193090812499999 
 S -0.683030962499998 -2.98839256875000 -4.17583981250000 
 S -3.54069596250000 -2.73049756875000 -1.16061181250000 
 S -1.05617396250000 -3.74109856875000 -7.962781249999962E-002
