16

 C -2.45144021562500 -6.53848759062500 -2.31991655625000 
 C -1.15453221562500 -6.72435459062500 -1.72570255625000 
 C -2.59149021562500 -2.85945359062500 -2.57823155625000 
 C -1.31881721562500 -3.24058259062500 -2.05966255625000 
 N -0.135772215624999 -6.76547459062500 -2.57258755625000 
 N -2.43333321562500 -6.35804359062500 -3.62788755625000 
 N -2.96668721562500 -6.79289659062500 0.151277443749999 
 N -0.333723215625000 -3.20928659062500 -2.96270955625000 
 N -2.52806421562500 -2.45838459062500 -3.89664655625000 
 N -2.92628721562500 -3.18465859062500 -5.183955625000092E-002
 S -0.848153215625000 -6.35164659062500 -4.06743655625000 
 S -3.79461421562500 -6.48909659062500 -1.28251855625000 
 S -1.34069521562500 -7.03218959062500 2.306944374999920E-002
 S -0.942527215624999 -2.71937759062500 -4.32580955625000 
 S -3.86663821562500 -2.86076259062500 -1.39474855625000 
 S -1.31834821562500 -3.40827759062500 -0.376865556250001 
