16

 C -2.19105159062500 -6.42687919375000 -2.38263351875000 
 C -0.913623590625001 -6.73137819375000 -1.79099951875000 
 C -2.55278659062500 -2.63910619375000 -2.43621451875000 
 C -1.30607259062500 -3.03506119375000 -1.73501051875000 
 N 9.994440937499860E-002 -6.73446519375000 -2.65778351875000 
 N -2.11774959062500 -6.28390419375000 -3.70100151875000 
 N -2.64680459062500 -6.79448919375000 0.155800481249999 
 N -0.239952590625001 -3.21687519375000 -2.51872851875000 
 N -2.44222959062500 -2.63720719375000 -3.77110051875000 
 N -3.15366559062500 -2.94779219375000 7.418548124999913E-002
 S -0.541051590625001 -6.49893119375000 -4.16371051875000 
 S -3.51277259062500 -6.34658419375000 -1.22694351875000 
 S -1.02538759062500 -7.09123719375000 -6.794551875000088E-002
 S -0.852232590625000 -3.01843619375000 -4.06050151875000 
 S -3.92151559062500 -2.51989119375000 -1.33142451875000 
 S -1.58689859062500 -3.38941419375000 3.788481249999087E-003
