16

 C -2.36217588125001 -6.28467062500001 -2.66990357187500 
 C -1.21386088125001 -6.79003962500001 -1.97725257187500 
 C -2.53846088125001 -2.82724562500001 -2.60523157187500 
 C -1.25895888125001 -3.03699562500001 -1.87673457187500 
 N -0.152307881250008 -6.90627962500001 -2.77987457187500 
 N -2.17975488125001 -6.01211462500001 -3.96926357187500 
 N -3.11513988125001 -6.43444762500001 -0.210675571875001 
 N -0.181710881250008 -3.11957962500001 -2.66050457187500 
 N -2.33458188125001 -2.71105662500001 -3.90948157187500 
 N -3.10051388125001 -2.89443562500001 -8.948457187500125E-002
 S -0.595822881250008 -6.35051762500001 -4.25178357187500 
 S -3.78572488125001 -5.91982362500001 -1.67847157187500 
 S -1.49215288125001 -6.83886562500001 -0.267971571875001 
 S -0.686725881250008 -2.88122362500001 -4.19513357187500 
 S -3.84713788125001 -2.66635762500001 -1.50487957187500 
 S -1.47719888125001 -3.20750862500001 -0.149079571875002 
