16

 C -2.51815980937500 -6.66270315937500 -2.31127234062500 
 C -1.33304480937500 -7.09324515937500 -1.70478034062500 
 C -2.42545180937500 -2.98667515937500 -2.32569734062500 
 C -1.17913080937500 -3.46537315937500 -1.83011534062500 
 N -0.385542809374997 -7.31527715937500 -2.59383134062500 
 N -2.47239080937500 -6.47507915937500 -3.61935934062500 
 N -3.09583280937500 -6.79465115937500 0.160825659375000 
 N -0.272294809374997 -3.70375315937500 -2.77996034062500 
 N -2.43728080937500 -2.73950315937500 -3.64942934062500 
 N -2.78942880937500 -3.31841615937500 0.136520659375000 
 S -0.968995809374997 -7.01095915937500 -4.11605434062500 
 S -3.91118180937500 -6.58738315937500 -1.26161034062500 
 S -1.50292080937500 -7.27829515937500 2.314165937500023E-002
 S -0.934510809374997 -3.17725115937500 -4.20946034062500 
 S -3.64519980937500 -2.74296815937500 -1.14443834062500 
 S -1.22925880937500 -3.77387915937500 -0.155153340625000 
