16

 C -2.65536716875000 -6.46458465937500 -2.45664293125000 
 C -1.53408916875000 -7.01596865937500 -1.71605493125000 
 C -2.33630516875000 -2.73624365937500 -2.51156493125000 
 C -1.12939716875000 -3.21085165937500 -1.77241193125000 
 N -0.458646168749999 -7.33630565937500 -2.42714593125000 
 N -2.37978716875000 -6.33244665937500 -3.75280993125000 
 N -3.20701316875000 -6.38490865937500 8.894906875000297E-002
 N -6.462316874999896E-002 -3.38595265937500 -2.54742793125000 
 N -2.15747216875000 -2.57894765937500 -3.79831193125000 
 N -2.96545716875000 -2.92501065937500 -5.698993124999729E-002
 S -0.870358168749998 -6.92498265937500 -3.98283493125000 
 S -3.96592416875000 -5.98780665937500 -1.40913393125000 
 S -1.68609816875000 -7.01465565937500 4.397406875000276E-002
 S -0.614677168749998 -3.00008165937500 -4.16475493125000 
 S -3.75809116875000 -2.55334765937500 -1.51798093125000 
 S -1.33451116875000 -3.33269565937500 -7.009993124999703E-002
