16

 C -2.23679697187500 -6.28606029062500 -2.46088345000000 
 C -1.08919297187500 -6.87940329062500 -1.81472345000000 
 C -2.23016197187500 -2.75522229062500 -2.35049345000000 
 C -1.04499297187500 -3.28874829062500 -1.82488445000000 
 N -0.122646971875002 -7.14404029062500 -2.69313345000000 
 N -2.11665697187500 -5.95549629062500 -3.75576045000000 
 N -3.00153097187500 -6.84538729062500 -6.021144999999839E-002
 N -8.814497187500248E-002 -3.59367629062500 -2.67028345000000 
 N -2.22804097187500 -2.65407429062500 -3.66469245000000 
 N -2.66897997187500 -3.04047029062500 0.170617550000002 
 S -0.639217971875002 -6.59210129062500 -4.20968145000000 
 S -3.63894497187500 -6.11525729062500 -1.42919545000000 
 S -1.39137397187500 -7.18840029062500 -0.134910449999998 
 S -0.684575971875002 -3.11031729062500 -4.15445045000000 
 S -3.50666197187500 -2.67872529062500 -1.17651745000000 
 S -1.16233897187500 -3.64865929062500 -0.111709449999998 
