16

 C -2.41850319375000 -6.83438708437500 -2.18210197500000 
 C -1.12770419375000 -7.19932208437500 -1.61126397500000 
 C -2.47883619375000 -2.80635308437500 -2.42920197500000 
 C -1.26002019375000 -3.23810508437500 -1.84748897500000 
 N -9.386419374999644E-002 -7.24833208437500 -2.48270397500000 
 N -2.35587419375000 -6.62716408437500 -3.48576597500000 
 N -2.86827519375000 -6.98317508437500 0.346157025000000 
 N -0.237855193749997 -3.28119508437500 -2.69801297500000 
 N -2.51596919375000 -2.66275508437500 -3.75763997500000 
 N -2.91905519375000 -2.91356808437500 0.151581025000000 
 S -0.804009193749997 -6.89282908437500 -3.99377997500000 
 S -3.74280219375000 -6.65051808437500 -1.01438097500000 
 S -1.24333319375000 -7.36496208437500 0.161385025000000 
 S -0.877541193749996 -2.98199208437500 -4.20552097500000 
 S -3.77959419375000 -2.56690008437500 -1.22240797500000 
 S -1.35544219375000 -3.34781808437500 -4.142097499999986E-002
