16

 C -2.23389475937500 -6.12998573437499 -2.03021913125000 
 C -1.08707575937500 -6.76367773437499 -1.47186913125000 
 C -2.33970175937500 -2.55541973437499 -2.29677313125000 
 C -1.24350275937500 -3.18396073437499 -1.59227113125000 
 N -0.126932759374996 -6.93035873437499 -2.37450713125000 
 N -2.17899675937500 -5.75530173437499 -3.31055213125000 
 N -2.88553775937500 -6.87937173437499 0.419458868750002 
 N -0.182520759374996 -3.51798373437499 -2.29447613125000 
 N -2.06215875937500 -2.43318573437499 -3.59671613125000 
 N -3.08454475937500 -2.97386773437499 0.126729868750002 
 S -0.629614759374996 -6.16754673437499 -3.80449413125000 
 S -3.62988075937500 -6.15421573437499 -0.927079131249998 
 S -1.31487175937500 -7.22199273437499 0.227122868750002 
 S -0.552138759374996 -2.94414173437499 -3.85009313125000 
 S -3.75777875937500 -2.44248573437499 -1.33161913125000 
 S -1.44351175937500 -3.27759073437499 0.119077868750002 
