16

 C -2.43216862187499 -6.83600974062500 -2.16943855000000 
 C -1.13330462187499 -7.19838174062500 -1.59335255000000 
 C -2.51049662187499 -2.82240574062500 -2.39793555000000 
 C -1.26188762187500 -3.25089374062500 -1.81389955000000 
 N -0.134623621874995 -7.24917974062500 -2.48855155000000 
 N -2.40075962187499 -6.65374074062500 -3.48398755000000 
 N -2.90057662187500 -7.00411374062500 0.361841450000003 
 N -0.278152621874995 -3.28070174062500 -2.74541555000000 
 N -2.51264862187500 -2.66332174062500 -3.72067355000000 
 N -2.94937362187500 -2.89575774062500 0.153462450000003 
 S -0.817561621874995 -6.91589074062500 -4.00945155000000 
 S -3.69670362187500 -6.65429074062500 -1.02203555000000 
 S -1.24839462187500 -7.36225474062500 0.149198450000003 
 S -0.898205621874995 -2.96783874062500 -4.20890055000000 
 S -3.75794262187499 -2.55981874062500 -1.20952555000000 
 S -1.38064162187499 -3.36628974062500 -7.071154999999663E-002
