16

 C -2.57182468749999 -6.72819185625000 -2.37975383125000 
 C -1.26723168749999 -6.81518985625000 -1.78550483125000 
 C -2.34270368749999 -2.60612785625000 -2.39950083125000 
 C -1.27041568749999 -3.24319285625000 -1.69925483125000 
 N -0.228200687499993 -6.85964785625000 -2.59293383125000 
 N -2.51472868749999 -6.58634585625000 -3.69575483125000 
 N -2.95236168749999 -6.89227485625000 0.168756168749999 
 N -0.219003687499994 -3.50153385625000 -2.48212583125000 
 N -2.17887068749999 -2.48004885625000 -3.72789783125000 
 N -3.20701668749999 -3.06136485625000 -3.851183125000146E-002
 S -0.897493687499994 -6.77097385625000 -4.10193483125000 
 S -3.83197168749999 -6.78413685625000 -1.21743583125000 
 S -1.27388968749999 -7.09624685625000 -3.050283125000131E-002
 S -0.631860687499993 -3.01309385625000 -4.02008083125000 
 S -3.82111568749999 -2.40747585625000 -1.43467283125000 
 S -1.59879668749999 -3.55050285625000 -1.441283125000137E-002
