16

 C -2.34627165625000 -6.43019318125000 -2.42152129062500 
 C -1.09787065625000 -6.71868618125000 -1.74518429062500 
 C -2.60245865625000 -2.68913118125000 -2.49802229062500 
 C -1.39108865625000 -3.22454918125000 -1.83333029062500 
 N -6.332165625000385E-002 -6.87093518125000 -2.54323529062500 
 N -2.30254365625000 -6.45808718125000 -3.75213429062500 
 N -2.96589465625000 -6.52775018125000 8.569070937499967E-002
 N -0.358606656250004 -3.47868318125000 -2.64669329062500 
 N -2.44594165625000 -2.60890518125000 -3.81362329062500 
 N -3.22021965625000 -2.91794418125000 -7.819729062500014E-002
 S -0.663895656250004 -6.76937318125000 -4.10705129062500 
 S -3.76963565625000 -6.25355918125000 -1.34770129062500 
 S -1.34409865625000 -6.90350418125000 -4.745329062500026E-002
 S -0.917855656250004 -3.19645718125000 -4.19481329062500 
 S -3.94188465625000 -2.45967018125000 -1.48584829062500 
 S -1.67046265625000 -3.40465418125000 -0.155920290625000 
