16

 C -2.40169129375000 -6.37176856562500 -2.42487595000000 
 C -1.14128529375000 -6.68054256562500 -1.82192695000000 
 C -2.33570829375000 -2.93640856562500 -2.42126295000000 
 C -1.05853529375000 -3.23287556562500 -1.77222895000000 
 N -0.145606293750000 -6.98787456562500 -2.65593495000000 
 N -2.33830129375000 -6.32470556562500 -3.75165295000000 
 N -2.88947629375000 -6.38409456562500 5.061905000000033E-002
 N -9.428329375000022E-002 -3.30549456562500 -2.67010895000000 
 N -2.28269329375000 -2.87027256562500 -3.73898395000000 
 N -2.74739429375000 -3.00933456562500 0.106094050000000 
 S -0.791071293750000 -6.72164756562500 -4.17673095000000 
 S -3.73767629375000 -6.25711356562500 -1.35630895000000 
 S -1.28353229375000 -6.88606256562500 -7.682894999999945E-002
 S -0.697132293750000 -3.20225356562500 -4.22762195000000 
 S -3.56774829375000 -2.71428656562500 -1.30103995000000 
 S -1.11932429375000 -3.48457956562500 -0.106298950000000 
