16

 C -2.32083793750000 -6.30580863750000 -2.54455127500000 
 C -1.06009993750000 -6.56943863750000 -1.84000527500000 
 C -2.52832593750000 -2.46726963750000 -2.71873427500000 
 C -1.50479793750000 -3.17629563750000 -1.97847227500000 
 N -1.993750000117700E-005 -6.85691963750000 -2.62739927500000 
 N -2.20811293750000 -6.27601563750000 -3.86695727500000 
 N -2.93671893750000 -6.65618863750000 -3.813527499999836E-002
 N -0.346499937500001 -3.21310863750000 -2.58231327500000 
 N -2.16536793750000 -2.02530363750000 -3.89565527500000 
 N -3.41652393750000 -2.65502063750000 -0.338167274999998 
 S -0.645094937500001 -6.63921663750000 -4.14310527500000 
 S -3.70749193750000 -6.39125363750000 -1.53981027500000 
 S -1.33024393750000 -6.74251963750000 -9.520627499999845E-002
 S -0.584100937500001 -2.57728663750000 -4.13696827500000 
 S -4.00216493750000 -2.01800463750000 -1.77026227500000 
 S -1.95380893750000 -3.41727263750000 -0.307770274999998 
