16

 C -2.63705717187500 -6.47241700937500 -2.45897748750000 
 C -1.47572717187500 -7.05949500937500 -1.77675148750000 
 C -2.13294217187500 -2.91264200937500 -2.40843348750000 
 C -1.00860717187500 -3.47728700937500 -1.77025148750000 
 N -0.427103171875000 -7.27468600937500 -2.53236648750000 
 N -2.47184517187500 -6.35197200937500 -3.77429448750000 
 N -3.24737717187500 -6.78415100937500 5.696951249999849E-002
 N 0.102840828124999 -3.68110400937500 -2.51641448750000 
 N -1.91501617187500 -2.48452900937500 -3.64878848750000 
 N -2.91968517187500 -3.33601400937500 3.040512499998593E-003
 S -0.889941171875000 -6.81972600937500 -4.10165448750000 
 S -3.95409817187500 -6.20769700937500 -1.34321248750000 
 S -1.65379717187500 -7.18902400937500 -1.544548750000141E-002
 S -0.384861171875000 -3.03631300937500 -4.00613748750000 
 S -3.59084417187500 -2.80782400937500 -1.39567848750000 
 S -1.30885417187500 -3.75932500937500 -3.580448750000165E-002
