16

 C -2.57426939062500 -6.27897053750000 -2.48057481875000 
 C -1.39950539062500 -6.89403753750000 -1.87985881875000 
 C -2.41800039062500 -2.58726853750000 -2.20148281875000 
 C -1.36501039062500 -3.34776953750000 -1.66848281875000 
 N -0.451110390625003 -7.18295353750000 -2.74779181875000 
 N -2.40959839062500 -5.97865353750000 -3.76422581875000 
 N -3.04823539062500 -6.58845653750000 6.815618125000200E-002
 N -0.390315390625004 -3.71450653750000 -2.50846481875000 
 N -2.31379439062500 -2.33321353750000 -3.49905481875000 
 N -2.95850639062500 -2.75004453750000 0.313209181250002 
 S -0.963342390625003 -6.62858853750000 -4.24220981875000 
 S -3.79839539062500 -6.01728053750000 -1.28291281875000 
 S -1.57761739062500 -7.28453353750000 -0.209544818749998 
 S -0.899373390625003 -3.02259853750000 -3.93712681875000 
 S -3.78522839062500 -2.41736653750000 -1.09659581875000 
 S -1.49023139062500 -3.60931353750000 7.303918125000197E-002
