16

 C -2.54964593437500 -6.72448820625000 -2.36311371562500 
 C -1.31170193437500 -7.09114920625000 -1.74735271562500 
 C -2.51352493437500 -2.79259320625000 -2.33258871562500 
 C -1.32717193437500 -3.34263520625000 -1.74575371562500 
 N -0.236202934374997 -7.10678020625000 -2.52266071562500 
 N -2.41896693437500 -6.45114720625000 -3.63387771562500 
 N -3.09816293437500 -6.93685620625000 0.159063284374999 
 N -0.290714934374997 -3.52637820625000 -2.58451271562500 
 N -2.44869293437500 -2.71471920625000 -3.63652971562500 
 N -2.99760493437500 -3.06589220625000 0.179523284374999 
 S -0.846121934374997 -6.74087920625000 -4.05918971562500 
 S -3.89510693437500 -6.49983520625000 -1.23147071562500 
 S -1.45082093437500 -7.23433320625000 -1.415371562500134E-002
 S -0.948469934374997 -3.11198320625000 -4.14075871562500 
 S -3.76736993437500 -2.60615620625000 -1.23259171562500 
 S -1.37086793437500 -3.52237320625000 -5.034971562500123E-002
