16

 C -2.60498269687500 -6.16677466250000 -2.69469866875000 
 C -1.35445769687500 -6.53926566250000 -2.04178166875000 
 C -2.42908369687500 -2.71287266250000 -2.52686066875000 
 C -1.16967169687500 -2.96741866250000 -1.85558166875000 
 N -0.303579696875005 -6.66643166250000 -2.83889566875000 
 N -2.45083769687500 -5.97942466250000 -4.01952566875000 
 N -3.22341969687500 -6.71644566250000 -0.255026668750002 
 N -0.152015696875004 -3.23082266250000 -2.69370466875000 
 N -2.38535369687500 -2.65251766250000 -3.85787466875000 
 N -2.99708069687500 -2.82670066250000 -2.695566875000166E-002
 S -0.872657696875004 -6.41602666250000 -4.34906866875000 
 S -3.96306769687500 -6.19062766250000 -1.67961666875000 
 S -1.52778469687500 -6.94868766250000 -0.331559668750002 
 S -0.788755696875005 -2.96548466250000 -4.18025666875000 
 S -3.83890569687500 -2.71833566250000 -1.40631266875000 
 S -1.37044069687500 -3.16427466250000 -0.140815668750002 
