16

 C -2.51770185625000 -6.49928238125000 -2.39083844687500 
 C -1.25302185625000 -6.82427938125000 -1.83164744687500 
 C -2.31909585625000 -2.91217238125000 -2.42572044687500 
 C -1.06323885625000 -3.34932938125000 -1.77889544687500 
 N -0.269896856250000 -6.98882938125000 -2.71675044687500 
 N -2.47164285625000 -6.30488438125000 -3.69287744687500 
 N -2.94067985625000 -6.54275438125000 0.186405553125000 
 N -5.915885624999984E-002 -3.50235538125000 -2.63408244687500 
 N -2.23822585625000 -2.88869038125000 -3.76222344687500 
 N -2.86013685625000 -3.19963338125000 0.116002553125000 
 S -0.955740856249999 -6.71549938125000 -4.19508244687500 
 S -3.77350685625000 -6.27443338125000 -1.21782644687500 
 S -1.35149185625000 -6.93514638125000 -2.723444687500032E-002
 S -0.643201856249999 -3.19583338125000 -4.14687944687500 
 S -3.64142685625000 -2.71171938125000 -1.27250644687500 
 S -1.22572585625000 -3.49800338125000 -8.487544687500015E-002
