16

 C -2.37711239687500 -6.33100873125000 -2.57215854687500 
 C -1.14395039687500 -6.67951673125000 -1.84023254687500 
 C -2.39751239687500 -2.77775873125000 -2.60597854687500 
 C -1.15795939687500 -3.12806673125000 -1.94766654687500 
 N -0.115163396875000 -6.92757973125000 -2.63386654687500 
 N -2.21795239687500 -6.27797273125000 -3.88162054687500 
 N -3.04674639687500 -6.31012773125000 -8.694654687500192E-002
 N -0.124951396875001 -3.25273073125000 -2.76012054687500 
 N -2.30305639687500 -2.58723073125000 -3.91465454687500 
 N -2.88524739687500 -2.96953073125000 -6.262954687500177E-002
 S -0.604697396875000 -6.61397773125000 -4.24402954687500 
 S -3.85935139687500 -6.22380573125000 -1.57997654687500 
 S -1.50129339687500 -6.83975373125000 -0.105432546875002 
 S -0.732109396875001 -2.84510173125000 -4.29917454687500 
 S -3.72834739687500 -2.55476873125000 -1.44244554687500 
 S -1.22528939687500 -3.23415173125000 -0.174184546875002 
