16

 C -2.46327480312499 -6.52400928437500 -2.37390820625000 
 C -1.22409680312499 -6.82492928437500 -1.73362820625000 
 C -2.21259880312499 -2.91579528437500 -2.17031820625000 
 C -0.936850803124994 -3.30728728437500 -1.53435720625000 
 N -0.126074803124994 -6.83568328437500 -2.51587420625000 
 N -2.24379180312499 -6.33190528437500 -3.69438420625000 
 N -2.99911880312499 -6.72224228437500 0.140907793750000 
 N 4.408196875006709E-003 -3.42183928437500 -2.48410520625000 
 N -2.24193280312499 -2.77438528437500 -3.50853520625000 
 N -2.68608480312499 -3.24472728437500 0.332703793750000 
 S -0.640520803124994 -6.50488528437500 -4.07570420625000 
 S -3.82964880312499 -6.44489028437500 -1.35403020625000 
 S -1.37269680312499 -6.87465628437500 4.220379374999994E-002
 S -0.670586803124994 -3.05802628437500 -3.99473120625000 
 S -3.54632480312499 -2.89536028437500 -1.05490820625000 
 S -0.989695803124994 -3.58686828437500 0.188732793750000 
