16

 C -2.32339614375000 -6.32110759375000 -2.40823584375000 
 C -1.15215714375000 -6.85483259375000 -1.79644184375000 
 C -2.55138514375000 -2.58432159375000 -2.19697984375000 
 C -1.27765514375000 -3.05386559375000 -1.63016084375000 
 N -0.101823143750005 -7.05878159375000 -2.58420284375000 
 N -2.19507514375000 -6.14793759375000 -3.71041284375000 
 N -2.85564514375000 -6.49347659375000 6.687715625000035E-002
 N -0.305416143750005 -3.16889359375000 -2.51670384375000 
 N -2.48740414375000 -2.36630859375000 -3.50067684375000 
 N -2.93894514375001 -2.88204259375000 0.291182156250001 
 S -0.647875143750005 -6.57921959375000 -4.08715684375000 
 S -3.66329114375000 -6.27364159375000 -1.35247784375000 
 S -1.26208514375000 -7.02939259375000 -8.940484374999969E-002
 S -0.962268143750005 -2.74031659375000 -3.97867584375000 
 S -3.81861814375000 -2.50724459375000 -1.01198584375000 
 S -1.34909314375000 -3.30693059375000 6.776315625000051E-002
