16

 C -2.36036013437500 -6.64953757812500 -2.38521693437500 
 C -1.08934813437500 -6.98976757812500 -1.75991193437500 
 C -2.26611213437500 -3.45268657812500 -2.25736593437500 
 C -1.03501413437500 -3.56986757812500 -1.53652793437500 
 N -5.061313437499670E-002 -7.15028957812500 -2.63143693437500 
 N -2.29259413437500 -6.56742857812500 -3.71068993437500 
 N -2.86314913437500 -6.52732757812500 8.283406562500040E-002
 N 5.636286562500281E-002 -3.68848957812500 -2.27898593437500 
 N -2.11894413437500 -3.43064457812500 -3.54249093437500 
 N -2.81528113437500 -3.26266957812500 0.279190065625001 
 S -0.762463134374997 -6.90755157812500 -4.15797993437500 
 S -3.67674713437500 -6.34007257812500 -1.31910593437500 
 S -1.22680713437500 -6.89896057812500 -2.690493437499963E-002
 S -0.505981134374997 -3.62994457812500 -3.91149193437500 
 S -3.58268713437500 -3.18183857812500 -1.17151993437500 
 S -1.21837613437500 -3.57469357812500 0.177850065625000 
