16

 C -2.38180828437500 -6.39516927812500 -2.24381514687500 
 C -1.14993628437500 -6.82894327812500 -1.74037914687500 
 C -2.54272128437500 -2.71903927812500 -2.40870814687500 
 C -1.45059028437500 -3.35070427812500 -1.73468514687500 
 N -0.164920284374996 -6.92117027812500 -2.61805014687500 
 N -2.35503628437500 -6.09535127812500 -3.54341314687500 
 N -2.80820328437500 -6.85850827812500 0.172726853125001 
 N -0.459310284374996 -3.72204427812500 -2.50151914687500 
 N -2.27635728437500 -2.54446527812500 -3.68126214687500 
 N -3.27693828437500 -2.96996327812499 -1.307146874998999E-003
 S -0.869439284374996 -6.53649227812500 -4.06518914687500 
 S -3.72488328437500 -6.43306027812500 -1.16281214687500 
 S -1.23982728437500 -7.27293027812500 -5.393514687499912E-002
 S -0.758564284374996 -3.12484827812500 -4.02432214687500 
 S -3.95207328437500 -2.52560427812500 -1.47903514687500 
 S -1.72892228437500 -3.59645127812500 -9.664314687499909E-002
