16

 C -2.70833701250000 -6.69257863750000 -2.30391718750000 
 C -1.43021801250000 -6.87251563750000 -1.71041018750000 
 C -2.42011401250000 -3.13706263750000 -2.49974918750000 
 C -1.12853201250000 -3.22113063750000 -1.90600318750000 
 N -0.364659012500001 -6.89693763750000 -2.57166218750000 
 N -2.62885001250000 -6.62781363750000 -3.62823718750000 
 N -3.12829301250000 -6.76949063750000 0.229472812499998 
 N -0.153439012500001 -3.23263563750000 -2.79412818750000 
 N -2.47746301250000 -3.11456763750000 -3.85496718750000 
 N -2.68592201250000 -3.09715663750000 0.134910812499998 
 S -1.07851701250000 -6.64975663750000 -4.05430518750000 
 S -3.99574001250000 -6.58104163750000 -1.22196718750000 
 S -1.54194001250000 -7.13338063750000 6.033781249999826E-002
 S -0.857556012500001 -3.30168863750000 -4.31681518750000 
 S -3.67269701250000 -2.92646263750000 -1.23910218750000 
 S -1.07835001250000 -3.34313663750000 -0.190516187500002 
