16

 C -2.65530628125001 -6.18401840000000 -2.27417701250000 
 C -1.41075128125000 -6.68302040000000 -1.71368701250000 
 C -2.37132028125001 -2.53239640000000 -2.47811901250000 
 C -1.24068528125000 -3.03914840000000 -1.79709501250000 
 N -0.392678281250005 -6.95642640000000 -2.52015001250000 
 N -2.58649428125000 -6.09495540000000 -3.58691301250000 
 N -3.11234028125001 -6.46023540000000 0.240589987500001 
 N -0.191609281250005 -3.33986140000000 -2.58487401250000 
 N -2.29791628125001 -2.45563740000000 -3.82277301250000 
 N -3.08852428125001 -2.72654340000000 4.409998750000077E-002
 S -1.00303328125000 -6.53831440000000 -4.00858501250000 
 S -3.85738028125000 -5.84392140000000 -1.06576201250000 
 S -1.48126028125001 -6.85033240000000 4.498987500000773E-003
 S -0.728554281250005 -2.97558940000000 -4.11583201250000 
 S -3.75379128125001 -2.29509540000000 -1.36147401250000 
 S -1.46010128125001 -3.00736240000000 -3.262001249999935E-002
