16

 C -2.38076573125000 -6.34602655625000 -2.56147080312500 
 C -1.13197473125000 -6.67797955625000 -1.81509180312500 
 C -2.41816173125000 -2.80367655625000 -2.58028580312500 
 C -1.15477773125000 -3.16834855625000 -1.93633880312500 
 N -0.137059731250003 -6.91065855625000 -2.63596880312500 
 N -2.21265473125000 -6.26721655625000 -3.87926380312500 
 N -3.06339973125000 -6.31750055625000 -7.104680312499956E-002
 N -0.108281731250004 -3.24595855625000 -2.75189080312500 
 N -2.31175473125000 -2.62089355625000 -3.86649880312500 
 N -2.90788073125000 -2.93903655625000 -6.651780312499955E-002
 S -0.609328731250003 -6.59922655625000 -4.24864080312500 
 S -3.86586273125000 -6.22494755625000 -1.57368480312500 
 S -1.50538373125000 -6.82956855625000 -0.113265803125000 
 S -0.733129731250004 -2.87275955625000 -4.29863180312500 
 S -3.73877873125000 -2.54270655625000 -1.46063780312500 
 S -1.22441173125000 -3.21764155625000 -0.166287803124999 
