16

 C -2.65514552187500 -6.32441659687500 -2.59068356562500 
 C -1.46238652187500 -6.80491659687500 -1.97016556562500 
 C -2.71677652187500 -2.62899559687500 -2.52245556562500 
 C -1.57674852187500 -3.18110659687500 -1.78514456562500 
 N -0.364154521875001 -6.94510959687500 -2.70759256562500 
 N -2.45458052187500 -6.09878659687500 -3.88918056562500 
 N -3.18129652187500 -6.66877559687500 -5.957956562499955E-002
 N -0.512724521875001 -3.43889159687500 -2.55505456562500 
 N -2.46993052187500 -2.31864359687500 -3.78006056562500 
 N -3.40643852187500 -2.81456059687500 -4.214456562499969E-002
 S -0.862790521875000 -6.43978359687500 -4.18344156562500 
 S -3.96309452187500 -6.08918559687500 -1.44339656562500 
 S -1.60823252187500 -7.07652259687500 -0.230931565625000 
 S -0.958823521875001 -2.77950359687500 -4.13234356562500 
 S -4.11862452187500 -2.53450159687500 -1.49704856562500 
 S -1.83811752187500 -3.44622059687500 -0.105763565625000 
