16

 C -2.64591021875000 -6.67977572500000 -2.21838428437500 
 C -1.45654621875000 -7.05865972500000 -1.53661928437500 
 C -2.25228921875000 -2.55091072500000 -2.41439728437500 
 C -1.09188421875000 -3.19929472500000 -1.82627428437500 
 N -0.332076218749997 -7.02053772500000 -2.27493728437500 
 N -2.45973521875000 -6.31548472500000 -3.50394328437500 
 N -3.25860821875000 -6.93999672500000 0.277156715625001 
 N -0.131319218749998 -3.47781472500000 -2.68323728437500 
 N -2.11842121875000 -2.30520672500000 -3.68998428437500 
 N -2.92082421875000 -2.89824672500000 2.805771562500126E-002
 S -0.831302218749998 -6.46508072500000 -3.73943328437500 
 S -4.04310121875000 -6.63230872500000 -1.13028428437500 
 S -1.63497221875000 -7.27683872500000 0.146002715625001 
 S -0.622990218749998 -2.83687272500000 -4.13742828437500 
 S -3.58310921875000 -2.31682872500000 -1.34809828437500 
 S -1.40883221875000 -3.58090772500000 -0.176908284374999 
