16

 C -2.57755513125000 -6.50252045000001 -2.37982655312500 
 C -1.31895213125000 -6.87942545000001 -1.74636855312500 
 C -2.16525013125000 -2.97806945000001 -2.31599855312500 
 C -0.992000131250006 -3.51047145000001 -1.70276455312500 
 N -0.285037131250006 -7.04395745000001 -2.57934955312500 
 N -2.49771613125001 -6.36570945000001 -3.71658855312500 
 N -2.94869313125001 -6.59693945000001 0.255227446875001 
 N 9.131786874999559E-002 -3.55166145000001 -2.50814455312500 
 N -2.07966113125001 -2.68236445000001 -3.63758155312500 
 N -2.85950113125001 -3.38081745000001 0.150018446875001 
 S -0.895004131250006 -6.78712345000001 -4.11111255312500 
 S -3.82321813125001 -6.29525945000001 -1.15470255312500 
 S -1.37594213125000 -7.00961145000001 2.363344687500102E-002
 S -0.488506131250006 -3.01767745000001 -3.95780455312500 
 S -3.58424813125001 -2.83720045000001 -1.24464955312500 
 S -1.25827613125001 -3.90579645000001 -2.467955312499903E-002
