16

 C -2.50186181875000 -6.30135356250000 -2.51106620312500 
 C -1.32690881875000 -6.80725156250000 -1.85181420312500 
 C -2.40578481875000 -2.49214656250000 -2.42853420312500 
 C -1.29370881875000 -3.00358256250000 -1.74093920312500 
 N -0.300967818750002 -7.13495256250000 -2.65200120312500 
 N -2.34682881875000 -6.19585056250000 -3.82092120312500 
 N -3.21080581875000 -6.47209156250000 -3.286720312499924E-002
 N -0.249410818750002 -3.32909256250000 -2.52541920312500 
 N -2.24426481875000 -2.38081656250000 -3.74745920312500 
 N -3.07544981875000 -2.58475056250000 1.290079687500079E-002
 S -0.829624818750002 -6.71692056250000 -4.19431720312500 
 S -3.85714381875000 -5.96941456250000 -1.50365820312500 
 S -1.64121381875000 -7.00059356250000 -0.108946203124999 
 S -0.722798818750002 -2.85816156250000 -4.14280920312500 
 S -3.77804481875000 -2.12729956250000 -1.45797720312500 
 S -1.42175581875000 -2.99374056250000 -2.904220312499928E-002
