16

 C -2.30752863437500 -6.80709951875000 -2.39008700937500 
 C -1.14230563437500 -7.43142151875000 -1.85210300937500 
 C -2.68713363437500 -2.87351051875000 -2.61874700937500 
 C -1.49707863437500 -3.22844351875000 -1.83766500937500 
 N -0.142279634374998 -7.64492151875000 -2.76328700937500 
 N -2.18348363437500 -6.48982351875000 -3.66032400937500 
 N -2.88772463437500 -7.09924251875000 0.195993990624999 
 N -0.404074634374998 -3.27159951875000 -2.55575600937500 
 N -2.47118963437500 -2.77154851875000 -3.93251500937500 
 N -3.35313763437500 -2.70743351875000 -0.147248009375001 
 S -0.733920634374998 -7.03460751875000 -4.19326100937500 
 S -3.47573863437500 -6.39025851875000 -1.16359300937500 
 S -1.32921763437500 -7.61422451875000 -6.760800937500111E-002
 S -0.808216634374999 -3.14484851875000 -4.13105100937500 
 S -4.03659663437500 -2.41961651875000 -1.62880700937500 
 S -1.71985463437500 -3.21420951875000 -0.122239009375001 
