16

 C -2.35068894687500 -6.58107523750000 -2.38650661250000 
 C -1.12592094687500 -6.90695623750000 -1.75183561250000 
 C -2.20619394687500 -3.30197023750000 -2.29566961250000 
 C -0.977428946875004 -3.64536423750000 -1.56888461250000 
 N -0.193970946875003 -7.23974223750000 -2.66323061250000 
 N -2.38638394687500 -6.59024223750000 -3.72638761250000 
 N -2.81836494687500 -6.57874123750000 0.168118387500002 
 N 8.669905312499537E-002 -3.78838023750000 -2.35543561250000 
 N -2.09084794687500 -3.30395423750000 -3.59788661250000 
 N -2.78546194687500 -3.20296723750000 0.272740387500002 
 S -0.818525946875004 -6.93463823750000 -4.15069361250000 
 S -3.67040794687500 -6.38624023750000 -1.26270761250000 
 S -1.20623894687500 -6.92747223750000 -2.928961249999817E-002
 S -0.474793946875004 -3.62780023750000 -3.88813161250000 
 S -3.58039594687500 -3.15126023750000 -1.18986161250000 
 S -1.14775494687500 -3.61568923750000 0.194582387500002 
