16

 C -2.43382087500000 -6.26272299687500 -2.30081607500000 
 C -1.30088987500000 -6.88188199687500 -1.65479807500000 
 C -2.36841287500000 -2.30219499687500 -2.51886007500000 
 C -1.20448187500000 -2.83488099687500 -1.86418707500000 
 N -0.254650875000000 -7.09818399687500 -2.43957907500000 
 N -2.25832287500000 -6.15837499687500 -3.59963507500000 
 N -3.13179387500000 -6.63621599687500 0.124602924999998 
 N -0.231985875000000 -3.10325399687500 -2.71850607500000 
 N -2.29387987500000 -2.15923599687500 -3.84842107500000 
 N -2.93473087500000 -2.41089299687500 -1.754075000001798E-003
 S -0.671545875000001 -6.56857899687500 -3.98995707500000 
 S -3.75505487500000 -5.95050299687500 -1.28409407500000 
 S -1.60591487500000 -7.22431099687500 2.365892499999855E-002
 S -0.718214875000001 -2.73389699687500 -4.17036707500000 
 S -3.63925987500000 -1.83826199687500 -1.40162707500000 
 S -1.40587187500000 -3.01256899687500 -0.150858075000002 
