16

 C -2.42803115000001 -6.51686678125000 -2.18848168437500 
 C -1.21894415000001 -7.07135978125000 -1.62609668437500 
 C -2.18739215000001 -2.45647978125000 -2.61338268437500 
 C -1.03948315000001 -2.95454778125000 -1.84948668437500 
 N -0.213868150000006 -7.21934278125000 -2.49954968437500 
 N -2.39163315000001 -6.33059978125000 -3.49399068437500 
 N -2.87606815000001 -6.83476678125000 0.307212315625002 
 N 1.464184999999496E-002 -3.23438978125000 -2.61161268437500 
 N -1.98921815000001 -2.26172578125000 -3.95105368437500 
 N -3.00633915000001 -2.92867378125000 -0.171329684374998 
 S -0.876623150000006 -6.69782478125000 -3.95012868437500 
 S -3.72378915000001 -6.32521078125000 -1.09782668437500 
 S -1.32074615000001 -7.32831478125000 0.109798315625002 
 S -0.438488150000006 -2.85511178125000 -4.17347968437500 
 S -3.64989515000001 -2.38670678125000 -1.59590868437500 
 S -1.33625315000001 -3.09732178125000 -5.921268437499783E-002
