16

 C -2.18845830937500 -6.26644453125000 -2.43392422500000 
 C -1.02676630937500 -6.81969153125000 -1.79006122500000 
 C -2.55175530937500 -3.08305653125000 -2.44644122500000 
 C -1.27328130937500 -3.18146253125000 -1.70167622500000 
 N -4.269130937499988E-002 -7.01885653125000 -2.63504322500000 
 N -2.18289830937500 -6.18091753125000 -3.75016322500000 
 N -2.86309930937500 -6.88291453125000 8.710777499999733E-002
 N -0.194303309374999 -3.22620453125000 -2.48199222500000 
 N -2.41110230937500 -3.03310853125000 -3.77393022500000 
 N -3.09342630937500 -2.70438953125000 8.508977499999748E-002
 S -0.664056309374999 -6.64549253125000 -4.20155022500000 
 S -3.58901230937500 -6.12661953125000 -1.28142522500000 
 S -1.31449030937500 -7.24996553125000 -9.983322500000247E-002
 S -0.765723309375000 -3.11027753125000 -4.08617522500000 
 S -3.86397730937500 -2.68950453125000 -1.42495222500000 
 S -1.45341830937500 -3.03084253125000 3.445177499999752E-002
