16

 C -2.46039124375000 -6.51039256250000 -2.46312327187500 
 C -1.18124324375000 -6.83198256250000 -1.83969627187500 
 C -2.65364824375000 -2.60306756250000 -2.34324427187500 
 C -1.50346624375000 -3.21405956250000 -1.73002327187500 
 N -0.137673243749998 -6.98353756250000 -2.64365327187500 
 N -2.34971424375000 -6.50374856250000 -3.78436427187500 
 N -2.85857724375000 -6.64005456250000 0.134841728124999 
 N -0.520750243749998 -3.40205156250000 -2.58390927187500 
 N -2.56209624375000 -2.47407556250000 -3.66473627187500 
 N -3.19703224375000 -2.80044856250000 0.137726728124999 
 S -0.747695243749998 -6.85275256250000 -4.20302227187500 
 S -3.65693924375000 -6.29350856250000 -1.28689927187500 
 S -1.33266524375000 -7.13064056250000 -0.143610271875001 
 S -0.950068243749999 -2.94919356250000 -4.09267527187500 
 S -3.92529424375000 -2.28385856250000 -1.22245327187500 
 S -1.75021524375000 -3.47227356250000 -6.690127187500083E-002
