16

 C -2.38128577812499 -6.32128204062500 -2.46906913750000 
 C -1.25566377812499 -6.96004704062500 -1.81783313750000 
 C -2.26229177812499 -2.84334204062500 -2.36243713750000 
 C -1.05535777812499 -3.24464904062500 -1.76816113750000 
 N -0.222956778124992 -7.11687204062500 -2.63359613750000 
 N -2.22168677812499 -6.11934304062500 -3.78413413750000 
 N -3.03622877812499 -6.78131304062500 3.354586250000047E-002
 N -9.149377812499182E-002 -3.44205404062500 -2.65618913750000 
 N -2.18507877812499 -2.67355604062500 -3.67326713750000 
 N -2.72937877812499 -2.91540104062500 0.177547862500001 
 S -0.684337778124991 -6.59095104062500 -4.12537813750000 
 S -3.72485377812499 -6.09581604062500 -1.30950513750000 
 S -1.42947877812499 -7.21389904062500 -9.826213749999924E-002
 S -0.705237778124991 -3.20581604062500 -4.15435913750000 
 S -3.58052877812499 -2.61431104062500 -1.23950913750000 
 S -1.15943877812499 -3.60860104062500 -5.086613749999924E-002
