16

 C -2.53662280625000 -6.19062383125000 -2.49106819375000 
 C -1.42337680625000 -6.86452283125000 -1.85993519375000 
 C -2.57955180625000 -2.59930783125000 -2.42826719375000 
 C -1.48241380625000 -3.13085983125000 -1.68914519375000 
 N -0.399745806249998 -7.09049683125000 -2.63519019375000 
 N -2.30316980625000 -5.95041483125000 -3.76610019375000 
 N -3.22165580625000 -6.66808583125000 -4.210519375000166E-002
 N -0.401991806249998 -3.26435683125000 -2.46551419375000 
 N -2.46703680625000 -2.47531083125000 -3.76852319375000 
 N -3.45335180625000 -2.87610983125000 -4.716319375000166E-002
 S -0.756271806249997 -6.54644683125000 -4.14072019375000 
 S -3.84754980625000 -5.93624483125000 -1.41034219375000 
 S -1.66046180625000 -7.27765683125000 -0.224153193750002 
 S -0.848366806249998 -2.84419983125000 -3.99272219375000 
 S -3.97250480625000 -2.18055983125000 -1.48400019375000 
 S -1.86516980625000 -3.34313283125000 8.767806249998511E-003
