16

 C -2.33769505000001 -6.23941189375000 -2.28819838125000 
 C -1.13647405000001 -6.83294589375000 -1.66408638125000 
 C -2.50083805000001 -2.77069789375000 -2.65860638125000 
 C -1.21698705000001 -2.97476189375000 -2.06156238125000 
 N -0.154852050000007 -7.02061889375000 -2.54953638125000 
 N -2.22779605000001 -5.80678589375000 -3.55264138125000 
 N -2.93248205000001 -6.80791589375000 0.216198618750000 
 N -0.138876050000007 -2.97021989375000 -2.83751338125000 
 N -2.40652805000001 -2.55959189375000 -3.96593138125000 
 N -2.88491305000001 -3.05149489375000 -0.150902381250000 
 S -0.681711050000007 -6.33674889375000 -3.94057638125000 
 S -3.68621205000001 -6.16211389375000 -1.07783438125000 
 S -1.24329705000001 -7.07154289375000 3.495561875000042E-002
 S -0.755713050000007 -2.56588089375000 -4.38339938125000 
 S -3.84923605000001 -2.93453489375000 -1.52686238125000 
 S -1.25148305000001 -3.37696689375000 -0.316261381249999 
