16

 C -2.71684335000000 -6.53969821250000 -2.33367690312500 
 C -1.50458835000000 -6.98070521250000 -1.72187790312500 
 C -2.45501035000000 -3.24848621250000 -2.40105090312500 
 C -1.14227535000000 -3.23794121250000 -1.83975290312500 
 N -0.506253350000001 -7.25283221250000 -2.54842490312500 
 N -2.67030135000000 -6.39641321250001 -3.67759990312500 
 N -3.22878335000000 -6.55458721250000 0.179391096874998 
 N -0.190747350000001 -3.20227621250000 -2.78728890312500 
 N -2.54543935000000 -3.09035521250000 -3.72147790312500 
 N -2.82441835000000 -3.08362821250000 0.160226096874998 
 S -1.07152535000000 -6.87721221250001 -4.10222890312500 
 S -3.97870635000000 -6.17407121250000 -1.17640290312500 
 S -1.58417635000000 -6.89679521250000 3.511109687499836E-002
 S -0.933301350000001 -3.21364021250000 -4.22070990312500 
 S -3.76003035000000 -3.11003721250000 -1.21636190312500 
 S -1.14835135000000 -3.26317121250000 -7.079490312500170E-002
