16

 C -2.38838973437500 -6.51437169999999 -2.55830094375000 
 C -1.17034173437500 -6.97029569999999 -1.89889094375000 
 C -2.64991673437500 -2.55146069999999 -2.27153994375000 
 C -1.54627473437500 -3.21477369999999 -1.67800994375000 
 N -0.193254734375001 -7.10819569999999 -2.76406494375000 
 N -2.30935473437500 -6.30059169999999 -3.86874794375000 
 N -2.93363573437500 -6.82904369999999 -5.677194375000139E-002
 N -0.525952734375002 -3.47128369999999 -2.48459794375000 
 N -2.47585373437500 -2.41933669999999 -3.58491194375000 
 N -3.30246773437500 -2.87720269999999 0.112195056249999 
 S -0.702496734375002 -6.62935769999999 -4.28968694375000 
 S -3.73184973437500 -6.34075269999999 -1.49830494375000 
 S -1.32464073437500 -7.14284969999999 -0.206796943750001 
 S -0.980515734375001 -2.94392069999999 -3.99605894375000 
 S -3.98447173437500 -2.20846369999999 -1.24878794375000 
 S -1.76704973437500 -3.33685469999999 4.460305624999861E-002
