16

 C -2.27472307812499 -6.27580912812500 -2.08074996250000 
 C -1.11911307812499 -6.90392112812500 -1.52935696250000 
 C -2.34920407812499 -2.61568112812500 -2.27921596250000 
 C -1.22661207812499 -3.18984312812500 -1.61841796250000 
 N -8.701807812498874E-002 -6.93551712812500 -2.37971196250000 
 N -2.11609607812499 -5.73639112812500 -3.27146996250000 
 N -2.99152707812499 -6.76433312812500 0.373182037500000 
 N -0.194134078124988 -3.49395212812500 -2.38623096250000 
 N -2.08758207812499 -2.26873812812500 -3.53767596250000 
 N -3.09378507812499 -3.00021512812500 0.211937037500000 
 S -0.602907078124988 -6.17588912812500 -3.75765196250000 
 S -3.65101007812499 -6.15021012812500 -0.984470962500000 
 S -1.34911907812499 -7.17398512812500 0.216766037500000 
 S -0.463601078124989 -2.81815212812500 -3.84111896250000 
 S -3.77653907812499 -2.47329012812500 -1.24021296250000 
 S -1.42005907812499 -3.31046612812500 0.159482037500000 
