16

 C -2.41012713437499 -6.38054989687500 -2.54659291875000 
 C -1.27347313437499 -6.91382989687500 -1.83821491875000 
 C -2.40060913437499 -2.52784689687500 -2.46574691875000 
 C -1.29768013437499 -3.24877489687500 -1.83929691875000 
 N -0.236777134374994 -7.09389889687500 -2.69157791875000 
 N -2.28500713437499 -6.11145289687500 -3.84917691875000 
 N -3.23663213437499 -6.77206289687500 -7.786991875000115E-002
 N -0.290209134374994 -3.55151689687500 -2.64273791875000 
 N -2.20302413437499 -2.38209689687500 -3.77945691875000 
 N -2.93759113437499 -2.73728889687500 5.454908124999891E-002
 S -0.705631134374994 -6.48431089687500 -4.21050691875000 
 S -3.83224613437499 -6.11945989687500 -1.49986191875000 
 S -1.60854313437499 -7.16242989687500 -0.140285918750001 
 S -0.696574134374994 -3.05265589687500 -4.11739191875000 
 S -3.69584313437499 -2.18502089687500 -1.36007991875000 
 S -1.47192013437499 -3.39958489687500 -0.102381918750001 
