16

 C -2.38880412500000 -6.34880661562500 -2.42393521875000 
 C -1.14040412500000 -6.72559261562500 -1.80269621875000 
 C -2.35261612500000 -2.95960961562500 -2.43173821875000 
 C -1.06606812500000 -3.21751961562500 -1.79743821875000 
 N -0.159081124999999 -6.98405061562500 -2.65508421875000 
 N -2.38356512500000 -6.34063661562500 -3.72934221875000 
 N -2.90577512500000 -6.39196161562500 8.447478125000063E-002
 N -7.000312499999950E-002 -3.34230661562500 -2.64558021875000 
 N -2.27119212500000 -2.86684561562500 -3.74703321875000 
 N -2.75288212500000 -3.05478761562500 8.619978125000061E-002
 S -0.827568125000000 -6.72381761562500 -4.21854421875000 
 S -3.76653912500000 -6.27319261562500 -1.32222921875000 
 S -1.29411212500000 -6.90122661562500 -5.536321874999928E-002
 S -0.687550125000000 -3.20974861562500 -4.21022721875000 
 S -3.57883812500000 -2.70802361562500 -1.28409921875000 
 S -1.13833712500000 -3.49226261562500 -9.761521874999923E-002
