16

 C -2.40768268750000 -6.53595933125000 -2.37568870000000 
 C -1.16388968750000 -6.90790933125000 -1.76652570000000 
 C -2.13916968750000 -2.58164333125000 -2.25511170000000 
 C -1.07441468750000 -3.27740233125000 -1.61438870000000 
 N -0.113008687499999 -7.08435833125000 -2.59831870000000 
 N -2.35338568750000 -6.40054733125000 -3.68163770000000 
 N -2.93013168750000 -6.74919133125000 0.103939300000000 
 N -5.352068749999894E-002 -3.49440533125000 -2.42735170000000 
 N -1.90196568750000 -2.19551233125000 -3.51999070000000 
 N -2.82145368750000 -3.20171333125000 0.209865300000000 
 S -0.760237687499999 -6.66158733125000 -4.10384170000000 
 S -3.73232968750000 -6.53190933125000 -1.36239170000000 
 S -1.34309068750000 -7.17875833125000 -1.304969999999961E-002
 S -0.362442687499999 -2.72307233125000 -3.84751470000000 
 S -3.58742868750000 -2.53045233125000 -1.19136070000000 
 S -1.24082868750000 -3.74105933125000 3.067430000000027E-002
