16

 C -2.44326252187500 -6.53151180000000 -2.64696743750000 
 C -1.28159552187500 -7.02778280000000 -2.03298543750000 
 C -2.29079552187500 -2.53012980000000 -2.38488943750000 
 C -1.05175552187500 -3.14590380000000 -1.96016243750000 
 N -0.268151521874999 -7.25032680000000 -2.86303243750000 
 N -2.37054152187500 -6.36603280000000 -3.98402343750000 
 N -2.89124052187500 -6.55364680000000 -2.678943750000062E-002
 N -0.181242521874998 -3.31317980000000 -2.94274043750000 
 N -2.28201552187500 -2.10502680000000 -3.63360843750000 
 N -2.71433952187500 -3.15944380000000 4.952356249999945E-002
 S -0.809400521874998 -6.80470680000000 -4.37073743750000 
 S -3.69943652187500 -6.32910380000000 -1.40726543750000 
 S -1.43300852187500 -7.25140380000000 -0.263771437500000 
 S -0.771375521874998 -2.52181380000000 -4.24401443750000 
 S -3.48465052187500 -2.51832380000000 -1.23562643750000 
 S -1.17396352187500 -3.61291880000000 -0.280124437500000 
