16

 C -2.64188028437500 -6.36903778125000 -2.38275074687500 
 C -1.51303628437500 -6.91859978125000 -1.68367774687500 
 C -2.32329028437500 -2.72644878125000 -2.51785474687500 
 C -1.15101728437500 -3.10654078125000 -1.83162674687500 
 N -0.507761284374997 -7.26342178125000 -2.47887674687500 
 N -2.50941528437500 -6.31797178125000 -3.71422374687500 
 N -3.20948128437500 -6.24943278125000 0.102018253125001 
 N -8.997628437499650E-002 -3.29788878125000 -2.60144374687500 
 N -2.19583028437500 -2.66481178125000 -3.83797074687500 
 N -3.02540728437500 -2.87698478125000 1.088525312500077E-002
 S -0.926347284374996 -6.86937878125000 -4.01791674687500 
 S -3.98805028437500 -5.99646178125000 -1.30599974687500 
 S -1.69734828437500 -6.99460378125000 -9.760746874999171E-003
 S -0.572627284374996 -3.02529078125000 -4.10108374687500 
 S -3.68377628437500 -2.49212278125000 -1.42729774687500 
 S -1.41777328437500 -3.28436678125000 -6.770374687499947E-002
