16

 C -2.36053548125000 -6.26081730937500 -2.15890542812500 
 C -1.23005348125000 -6.84139230937500 -1.54086942812500 
 C -2.30691448125000 -2.61648930937500 -2.18274242812500 
 C -1.17347448125000 -3.25865030937500 -1.60246942812500 
 N -0.159500481249996 -6.98652130937500 -2.30615842812500 
 N -2.12067648125000 -5.88887430937500 -3.41650842812500 
 N -2.91082648125000 -6.54317430937500 0.299152571874999 
 N -5.649948124999593E-002 -3.24645830937500 -2.33309142812500 
 N -2.11391648125000 -2.18847530937500 -3.41867442812500 
 N -3.02036548125000 -3.01387430937500 0.241572571874999 
 S -0.571454481249996 -6.28923830937500 -3.70137442812500 
 S -3.74193148125000 -6.12477830937500 -1.12177942812500 
 S -1.35413848125000 -7.17764830937500 0.148102571875000 
 S -0.613034481249995 -2.61096430937500 -3.83250142812500 
 S -3.70735348125000 -2.47975330937500 -1.18588242812500 
 S -1.44151148125000 -3.49238630937500 9.354057187499953E-002
