16

 C -2.45506991562501 -6.54119778437499 -2.30819802812500 
 C -1.29819291562501 -6.99005378437499 -1.60700702812500 
 C -2.45248791562501 -2.75520078437499 -2.44403502812500 
 C -1.24152591562501 -3.19536078437499 -1.76441302812500 
 N -0.212479915625010 -7.16847278437499 -2.35569102812500 
 N -2.20246291562501 -6.38325778437499 -3.60152002812500 
 N -3.10297391562501 -6.60046478437499 0.165972971875004 
 N -0.212763915625009 -3.17404678437499 -2.60498902812500 
 N -2.30598491562501 -2.49310178437499 -3.75111102812500 
 N -3.12698291562501 -3.28908078437499 -1.696302812499639E-002
 S -0.646987915625010 -6.76725878437499 -3.90734702812500 
 S -3.84450091562501 -6.28432878437499 -1.30605002812500 
 S -1.56837191562501 -7.25534378437499 0.163280971875003 
 S -0.679286915625009 -2.69940778437499 -4.10455602812500 
 S -3.86793191562501 -2.73705678437499 -1.42211602812500 
 S -1.45244591562501 -3.47243078437499 -7.751502812499633E-002
