16

 C -2.69517205937500 -6.66734827812500 -2.37909147812500 
 C -1.44305505937500 -7.15598627812500 -1.75444747812500 
 C -2.23408805937500 -2.98263627812500 -2.27366847812500 
 C -1.02969705937500 -3.39341827812500 -1.56996847812500 
 N -0.452526059375003 -7.30591427812500 -2.63485347812500 
 N -2.60937905937500 -6.57332827812500 -3.71532347812500 
 N -3.09639005937500 -6.87730327812500 0.201286521875000 
 N 8.039406249960024E-004 -3.58118827812500 -2.40355047812500 
 N -2.14118005937500 -2.95487127812500 -3.60214747812500 
 N -2.86446805937500 -3.28758427812500 0.244001521875000 
 S -1.04520505937500 -7.02329827812500 -4.15310747812500 
 S -4.02609205937500 -6.45204927812500 -1.13997247812500 
 S -1.49343705937500 -7.23672027812500 -4.320347812499969E-002
 S -0.530332059375003 -3.25671727812500 -3.94029047812500 
 S -3.55079905937500 -2.72667027812500 -1.19882147812500 
 S -1.30609705937500 -3.79757327812500 8.996852187500037E-002
