16

 C -2.54854013437500 -6.23003076875000 -2.47561676562500 
 C -1.40443513437500 -6.80223876875000 -1.86354076562500 
 C -2.43565313437500 -2.39635576875000 -2.52079676562500 
 C -1.27217813437500 -2.91414876875000 -1.85144076562500 
 N -0.438734134374998 -7.12089976875000 -2.70907876562500 
 N -2.44908013437500 -6.07879576875000 -3.79892576562500 
 N -2.95929513437500 -6.29212376875000 7.163723437500025E-002
 N -0.280545134374998 -3.25221876875000 -2.67528176562500 
 N -2.34212013437500 -2.38305276875000 -3.84395676562500 
 N -3.06706713437500 -2.59656476875000 -4.870976562499973E-002
 S -0.931282134374999 -6.66143076875000 -4.19483476562500 
 S -3.79056313437500 -5.84931576875000 -1.30678476562500 
 S -1.48421613437500 -7.11360576875000 -0.180268765624999 
 S -0.852642134374999 -2.95983976875000 -4.28464976562500 
 S -3.77414713437500 -2.06608776875000 -1.48671876562500 
 S -1.43591913437500 -2.97669876875000 -0.165356765625000 
