16

 C -2.29085677812500 -6.36490650625001 -2.38445124375000 
 C -1.12877377812500 -6.92682550625001 -1.78820924375000 
 C -2.51524977812500 -3.10859450625001 -2.34010324375000 
 C -1.20105677812500 -3.25465250625001 -1.69464324375000 
 N -0.172510778125004 -7.19266650625001 -2.62098724375000 
 N -2.16859977812500 -6.11307550625001 -3.65032224375000 
 N -2.89144277812500 -6.96920650625001 2.523775624999747E-002
 N -0.168250778125004 -3.24778950625001 -2.55035124375000 
 N -2.38576177812500 -3.10714050625001 -3.66028324375000 
 N -2.98000177812500 -2.67617150625001 0.108456756249997 
 S -0.632803778125004 -6.68204650625001 -4.10133424375000 
 S -3.57202777812500 -6.14223450625001 -1.23942624375000 
 S -1.23674277812500 -7.23979250625001 -0.118426243750003 
 S -0.815717778125004 -3.17383750625001 -4.05146424375000 
 S -3.87254877812500 -2.71271850625001 -1.28129624375000 
 S -1.32804177812500 -3.05722150625001 1.655075624999758E-002
