16

 C -2.59754438437500 -6.41858189062500 -2.26877816875000 
 C -1.33760438437500 -6.89472189062500 -1.66329516875000 
 C -2.41102538437500 -2.91802489062500 -2.21264216875000 
 C -1.20278238437500 -3.36610689062500 -1.58330616875000 
 N -0.332143384375004 -7.10455689062500 -2.47711716875000 
 N -2.48204938437500 -6.28013889062500 -3.56301916875000 
 N -3.12656938437500 -6.74437489062500 0.188759831249999 
 N -0.196427384375005 -3.42020489062500 -2.42767916875000 
 N -2.36407238437500 -2.68105789062500 -3.53743216875000 
 N -2.84620338437500 -2.89088589062500 0.336339831249999 
 S -0.918046384375004 -6.69418589062500 -3.97560416875000 
 S -3.92899438437500 -6.37084889062500 -1.21570516875000 
 S -1.47186838437500 -7.14815189062500 7.125831249999326E-003
 S -0.861102384375005 -3.09129189062500 -3.92343716875000 
 S -3.64567638437500 -2.60175289062500 -1.06252316875000 
 S -1.26871038437500 -3.42701089062500 0.157702831249999 
