16

 C -2.24474935312501 -6.56729660625001 -2.28884160312500 
 C -0.940990353125009 -6.82858160625001 -1.84187560312500 
 C -2.55509435312501 -2.85634460625001 -2.37070260312500 
 C -1.34106135312501 -3.29189160625001 -1.75475260312500 
 N -3.227835312500904E-002 -6.93374260625001 -2.81200260312500 
 N -2.34148135312501 -6.45987460625001 -3.62035660312500 
 N -2.39062635312501 -6.91695360625001 0.284608396874999 
 N -0.326479353125008 -3.48144660625001 -2.58530860312500 
 N -2.45114435312501 -2.65613560625001 -3.66572160312500 
 N -3.10135235312501 -2.91793660625001 0.138953396874999 
 S -0.822177353125008 -6.73383260625001 -4.24694760312500 
 S -3.42424535312501 -6.72982760625001 -0.964170603125001 
 S -0.834743353125009 -7.23898160625001 -0.201428603125001 
 S -0.896416353125009 -3.09891660625001 -4.08826860312500 
 S -3.83404335312501 -2.47513960625001 -1.27207460312500 
 S -1.55965335312501 -3.47778660625001 -3.949960312500123E-002
