16

 C -2.19186376250000 -6.36732704687500 -2.53520242812500 
 C -1.02162776250000 -6.99713104687500 -1.90810942812500 
 C -2.67119876250000 -2.40732704687500 -2.38759142812500 
 C -1.51617176250000 -3.04600404687500 -1.71206642812500 
 N 1.383523750000393E-002 -7.28695004687500 -2.68580742812500 
 N -2.00692676250000 -6.22228504687500 -3.83519042812500 
 N -2.80957176250000 -6.55460804687500 -5.325342812499989E-002
 N -0.577581762499996 -3.44700104687500 -2.56113442812500 
 N -2.45422676250000 -2.19109404687500 -3.68269442812500 
 N -3.24359876250000 -2.43108704687500 0.101895571875000 
 S -0.516982762499996 -6.87346004687500 -4.23581742812500 
 S -3.55290676250000 -6.12602104687500 -1.49106842812500 
 S -1.33643676250000 -7.29414204687500 -0.204304428125000 
 S -0.909091762499996 -2.78050604687500 -4.05430242812500 
 S -3.98562776250000 -1.96433204687500 -1.33913542812500 
 S -1.79002976250000 -3.13519404687500 -4.664842812499992E-002
