16

 C -2.65495705312500 -6.46856538437500 -2.30086839062500 
 C -1.39737505312500 -6.97132638437500 -1.77723039062500 
 C -2.31673605312500 -2.98836738437500 -2.42717739062500 
 C -1.16495405312500 -3.48356638437500 -1.76503639062500 
 N -0.418351053125000 -7.09922638437500 -2.68079639062500 
 N -2.61534705312500 -6.34080938437500 -3.63205439062500 
 N -2.98234705312500 -6.75867438437500 0.198250609374999 
 N -0.101217053125000 -3.67037938437500 -2.55945139062500 
 N -2.18959605312500 -2.69576238437500 -3.73026039062500 
 N -2.93293105312500 -3.10436738437500 5.915460937499861E-002
 S -1.07092405312500 -6.61767538437500 -4.10657839062500 
 S -3.89631605312500 -6.22540538437500 -1.14086539062500 
 S -1.36242005312500 -7.05836438437500 -6.222039062500140E-002
 S -0.660995053125000 -3.20828038437500 -4.04779539062500 
 S -3.70083805312500 -2.78269338437500 -1.35599939062500 
 S -1.36410505312500 -3.62622938437500 2.832260937499864E-002
