16

 C -2.31254335937500 -6.46032586562500 -2.49387028750000 
 C -1.07403335937500 -6.73594986562500 -1.76149828750000 
 C -2.48072035937500 -3.32032986562500 -2.14774928750000 
 C -1.12294835937500 -3.35522886562500 -1.63264928750000 
 N -5.090435937500093E-002 -6.89837386562500 -2.59741728750000 
 N -2.25738935937500 -6.31336186562500 -3.81234828750000 
 N -2.94027435937500 -6.54602886562500 3.103671249999929E-002
 N -0.139812359375001 -3.27611086562500 -2.53913528750000 
 N -2.58380735937500 -3.37024586562500 -3.46658728750000 
 N -2.63110135937500 -3.52270486562500 0.453771712499999 
 S -0.670959359375001 -6.65038386562500 -4.14547428750000 
 S -3.65299735937500 -6.22231086562500 -1.43587028750000 
 S -1.27127235937500 -6.93280386562500 -8.946328750000054E-002
 S -1.01004735937500 -3.30627286562500 -3.96424628750000 
 S -3.68074835937500 -3.31098886562500 -0.834972287500001 
 S -1.00286635937500 -3.58190186562500 0.109214712499999 
