16

 C -2.64737915312500 -6.32537508125000 -2.56505993125000 
 C -1.42673915312500 -6.75464308125000 -1.89293193125000 
 C -2.72384815312500 -2.65593908125000 -2.48464493125000 
 C -1.55074315312500 -3.20982908125000 -1.86380993125000 
 N -0.415138153125003 -6.95943708125000 -2.72202493125000 
 N -2.47680315312500 -6.12155308125000 -3.87181593125000 
 N -3.21638915312500 -6.69600408125000 -8.079593124999995E-002
 N -0.488217153125003 -3.40630908125000 -2.65012293125000 
 N -2.54106715312500 -2.31060808125000 -3.76163593125000 
 N -3.37360715312500 -2.86172108125000 -5.249593125000018E-002
 S -0.834771153125003 -6.41834808125000 -4.19245493125000 
 S -3.97606415312500 -6.14481508125000 -1.42739393125000 
 S -1.58646315312500 -7.00390508125000 -0.250979931250000 
 S -0.997741153125003 -2.77151808125000 -4.14371293125000 
 S -4.11928615312500 -2.52343108125000 -1.52213593125000 
 S -1.80212015312500 -3.43527808125000 -0.105233931250000 
