16

 C -2.47182224062500 -6.60746030312500 -2.35138589375000 
 C -1.22364824062500 -6.99027330312500 -1.75262289375000 
 C -2.15002324062500 -3.20513730312500 -2.23386489375000 
 C -0.948336240624998 -3.63394830312500 -1.59944489375000 
 N -0.264945240624997 -7.15888830312500 -2.65860989375000 
 N -2.43298024062500 -6.53110230312500 -3.69184289375000 
 N -2.78999124062500 -6.72798530312500 0.207944106249999 
 N 2.936575937500230E-002 -3.91362330312500 -2.47838789375000 
 N -2.08114924062500 -3.08324030312500 -3.56160289375000 
 N -2.76756824062500 -3.27510730312500 0.235632106250000 
 S -0.904025240624997 -7.03896430312500 -4.16191389375000 
 S -3.73595924062500 -6.38791230312500 -1.15036089375000 
 S -1.20908124062500 -6.98751830312500 -6.616489375000034E-002
 S -0.538235240624998 -3.57238730312500 -3.96357389375000 
 S -3.52541924062500 -3.06868230312500 -1.21694189375000 
 S -1.14342824062500 -3.68233830312500 0.136842106249999 
