16

 C -2.14736098437500 -6.50250359999999 -2.38580158125000 
 C -0.962586984374997 -7.04333359999999 -1.78740958125000 
 C -2.63004598437500 -2.51347259999999 -2.45039658125000 
 C -1.45238898437500 -2.93702759999999 -1.80039558125000 
 N 4.037001562500375E-002 -7.31156159999999 -2.58494358125000 
 N -2.06066598437500 -6.35608059999999 -3.68897658125000 
 N -2.67692798437500 -6.70172159999999 9.834941875000047E-002
 N -0.422583984374997 -3.17567559999999 -2.61979358125000 
 N -2.56377598437500 -2.26501659999999 -3.78343758125000 
 N -3.16263198437500 -2.67719059999999 6.688841875000051E-002
 S -0.502532984374997 -6.88447959999999 -4.11111358125000 
 S -3.39867998437500 -6.21763359999999 -1.30343258125000 
 S -1.09232098437500 -7.19794459999999 -1.566658124999964E-002
 S -1.01242798437500 -2.82436759999999 -4.15333058125000 
 S -3.92216898437500 -2.17252659999999 -1.30320358125000 
 S -1.52980498437500 -3.07032359999999 -6.268458124999965E-002
