16

 C -2.38196470000000 -6.32655214375001 -2.49401547187500 
 C -1.15942070000000 -6.51916914375000 -1.81558647187500 
 C -2.51576470000000 -2.23727614375000 -2.77972647187500 
 C -1.53677270000000 -2.96094314375001 -2.01600947187500 
 N -8.743569999999679E-002 -6.67587514375001 -2.59830447187500 
 N -2.21288970000000 -6.34348214375000 -3.80375147187500 
 N -3.03255870000000 -6.66013114375000 -4.789447187499918E-002
 N -0.423130699999997 -3.21202614375000 -2.64869847187500 
 N -2.11827370000000 -1.91506314375000 -3.99962947187500 
 N -3.44137670000000 -2.59085314375000 -0.316411471874999 
 S -0.587209699999997 -6.66777114375000 -4.19951647187500 
 S -3.77756070000000 -6.39496414375000 -1.46921247187500 
 S -1.29063870000000 -6.76238114375001 -9.747847187499925E-002
 S -0.586818699999997 -2.53190814375000 -4.10034147187500 
 S -3.87768970000000 -1.97961814375001 -1.77678147187500 
 S -2.02485970000000 -3.44439314375000 -0.422133471874999 
