16

 C -2.58839476562500 -6.62375529375000 -2.25415402500000 
 C -1.30101876562500 -6.81716929375000 -1.57860302500000 
 C -2.38127076562500 -2.68780029375000 -2.46116202500000 
 C -1.21781176562500 -3.28692629375000 -1.76333402500000 
 N -0.251507765625001 -6.87602029375000 -2.42079402500000 
 N -2.50777176562500 -6.50215229375000 -3.58684402500000 
 N -3.20587476562500 -6.88256929375000 0.217513975000000 
 N -0.135836765625000 -3.36055729375000 -2.50839802500000 
 N -2.11863176562500 -2.43428729375000 -3.72721702500000 
 N -3.11276176562500 -3.04533329375000 -2.531002499999979E-002
 S -0.899922765625001 -6.66343729375000 -3.97115802500000 
 S -3.98477376562500 -6.70334029375000 -1.21403802500000 
 S -1.54434776562500 -7.18196629375000 0.117140975000000 
 S -0.545294765625001 -2.92230929375000 -4.04844002500000 
 S -3.64932176562500 -2.27401029375000 -1.37306802500000 
 S -1.53737376562500 -3.62079729375000 -8.410102499999983E-002
