16

 C -2.39076688750000 -6.62534045312500 -2.25068748437500 
 C -1.11827388750000 -6.77309845312500 -1.54955148437500 
 C -2.31745888750000 -2.68865645312500 -2.50652448437500 
 C -1.07893688750000 -3.22143045312500 -1.99314148437500 
 N -0.105753887500000 -6.73870145312500 -2.42850748437500 
 N -2.32720788750000 -6.55246445312500 -3.58902848437500 
 N -3.03720488750000 -6.93769245312500 0.276025515625000 
 N -0.121448887500000 -3.41973245312500 -2.90852048437500 
 N -2.36668188750000 -2.64945045312500 -3.85188148437500 
 N -2.70602088750000 -2.90099345312500 -1.075484375000491E-003
 S -0.755931887500000 -6.62606845312500 -3.96250748437500 
 S -3.79435488750000 -6.68648245312500 -1.19851648437500 
 S -1.33630588750000 -7.05793045312500 0.165963515624999 
 S -0.800394887500000 -3.05220545312500 -4.37861248437500 
 S -3.56656788750000 -2.41843245312500 -1.34253848437500 
 S -1.18058888750000 -3.44483745312500 -0.232965484375000 
