16

 C -2.59682088750001 -6.47511419375000 -2.52645992500000 
 C -1.43767488750001 -6.90334019375000 -1.79045092500000 
 C -2.43112988750001 -2.90708519375000 -2.37584292500000 
 C -1.20546188750001 -3.15021019375000 -1.67304792500000 
 N -0.320150887500008 -7.13219719375000 -2.49634492500000 
 N -2.35076288750001 -6.45763619375000 -3.81874192500000 
 N -3.24978688750001 -6.19200219375000 -8.871692500000083E-002
 N -0.149377887500007 -3.35680019375000 -2.42135392500000 
 N -2.31106688750001 -2.99533619375000 -3.69806992500000 
 N -3.00525888750001 -3.04342819375000 0.165882074999999 
 S -0.826608887500007 -6.90524019375000 -4.02272092500000 
 S -3.86770888750001 -5.86791519375000 -1.57265292500000 
 S -1.66721088750001 -6.69498419375000 -2.325392500000079E-002
 S -0.713090887500007 -3.16239719375000 -4.05695692500000 
 S -3.85015488750001 -2.67103919375000 -1.27763392500000 
 S -1.41482288750001 -3.48795419375000 -1.264292500000086E-002
