16

 C -2.54942098437501 -6.35127426875000 -2.52500478125000 
 C -1.29132798437501 -6.68839326875000 -1.89453178125000 
 C -2.67885398437501 -2.84963226875000 -2.30484478125000 
 C -1.42680798437501 -3.31132026875000 -1.68105778125000 
 N -0.292145984375009 -6.85195026875000 -2.75205578125000 
 N -2.50401198437501 -6.25568226875000 -3.85486778125000 
 N -2.93779998437501 -6.40896126875000 4.732421875000026E-002
 N -0.469944984375009 -3.48944326875000 -2.57866478125000 
 N -2.57171698437501 -2.72343026875000 -3.61348078125000 
 N -3.18162898437501 -3.02368126875000 0.215988218750000 
 S -0.931384984375009 -6.53199826875000 -4.22894278125000 
 S -3.80790398437501 -6.16695026875000 -1.33648678125000 
 S -1.31817398437501 -6.66306426875000 -0.172064781250000 
 S -1.04199498437501 -3.18190426875000 -4.07391378125000 
 S -3.92972598437501 -2.64146026875000 -1.21628178125000 
 S -1.56975498437501 -3.42841026875000 2.848021875000040E-002
