16

 C -2.17462742187500 -6.88116484687500 -2.51566990312500 
 C -0.996600421874998 -7.31820984687500 -1.81580390312500 
 C -2.57501042187500 -2.63925584687500 -2.55849290312500 
 C -1.34373342187500 -3.09986384687500 -1.93660990312500 
 N -3.193942187499754E-002 -7.68382784687500 -2.63895290312500 
 N -2.16918942187500 -6.91523384687500 -3.85501090312500 
 N -2.75788942187500 -6.61142584687500 -6.730090312499870E-002
 N -0.369680421874998 -3.51526884687500 -2.77123290312500 
 N -2.43838042187500 -2.56116784687500 -3.87257890312500 
 N -3.05344242187500 -2.69448584687500 5.726096875001252E-003
 S -0.624085421874998 -7.44191984687500 -4.20311590312500 
 S -3.49144342187500 -6.29715984687500 -1.55671890312500 
 S -1.17993842187500 -7.28388984687500 -0.108318903124999 
 S -0.893014421874998 -3.02476484687500 -4.28612790312500 
 S -3.84045042187500 -2.37621084687500 -1.39742490312500 
 S -1.50593242187500 -3.16903184687500 -0.214005903124999 
