16

 C -2.35604370625000 -6.25807826562500 -2.41046274062500 
 C -1.28598970625000 -6.95391026562500 -1.72185574062500 
 C -2.48128570625000 -2.33128026562500 -2.45468774062500 
 C -1.37827270625000 -2.92290126562500 -1.77739474062500 
 N -0.240665706250004 -7.17553026562500 -2.48620274062500 
 N -2.13569270625000 -5.91412626562500 -3.66598374062500 
 N -3.15808470625000 -6.55267526562500 1.903425937499970E-002
 N -0.413041706250005 -3.34509926562500 -2.58804074062500 
 N -2.26734970625000 -2.12676526562500 -3.77817574062500 
 N -3.08444570625000 -2.38179826562500 2.673725937499949E-002
 S -0.648187706250004 -6.55288626562500 -4.02224574062500 
 S -3.75561070625000 -5.98077726562500 -1.38778474062500 
 S -1.60978570625000 -7.23383726562500 -8.991740625000411E-003
 S -0.792220706250005 -2.81875126562500 -4.09785674062500 
 S -3.81412070625000 -2.06171726562500 -1.42961674062500 
 S -1.58273970625000 -3.04726026562500 -7.589474062500035E-002
