16

 C -2.50876299062499 -6.73340143750000 -2.38033707187500 
 C -1.26752099062499 -6.97039143750000 -1.71183707187500 
 C -2.25551399062499 -3.00746343750000 -2.46403707187500 
 C -1.02997599062499 -3.38524743750000 -1.81637707187500 
 N -0.259234990624995 -6.88990743750000 -2.55108607187500 
 N -2.46945299062499 -6.44284643750000 -3.69064607187500 
 N -3.03849799062499 -7.16440343750000 0.158345928125002 
 N 5.077000937500564E-002 -3.56936743750000 -2.60051607187500 
 N -2.05593299062499 -2.72827943750000 -3.73928107187500 
 N -2.79501899062499 -2.99546343750000 6.387392812500181E-002
 S -0.854036990624994 -6.52513543750000 -4.07754507187500 
 S -3.90770299062499 -6.91897343750000 -1.28169807187500 
 S -1.42212199062499 -7.14624343750000 1.376692812500191E-002
 S -0.489908990624994 -3.27049943750000 -4.14458007187500 
 S -3.62776899062499 -2.75272243750000 -1.41174807187500 
 S -1.21389199062499 -3.43701443750000 -3.394107187499817E-002
