16

 C -2.30844112500001 -6.32257361875000 -2.38916815937500 
 C -1.08281412500001 -6.83713161875000 -1.81140415937500 
 C -2.49635312500001 -3.16612261875000 -2.34124615937500 
 C -1.22898412500001 -3.27639861875000 -1.69694615937500 
 N -9.293812500000609E-002 -7.17723361875000 -2.65739115937500 
 N -2.17553512500001 -6.12450161875000 -3.70832815937500 
 N -2.95254112500001 -6.94650861875000 2.902084062499899E-002
 N -0.167574125000006 -3.21106761875000 -2.54481315937500 
 N -2.38609812500001 -3.08450061875000 -3.67933315937500 
 N -3.01408212500001 -2.67766561875000 8.670584062499898E-002
 S -0.649763125000006 -6.66978161875000 -4.10888615937500 
 S -3.54701512500001 -6.14422061875000 -1.23306115937500 
 S -1.25512812500001 -7.24541161875000 -0.116278159375001 
 S -0.787815125000006 -3.15954561875000 -4.07627415937500 
 S -3.92065912500001 -2.69188561875000 -1.32457415937500 
 S -1.33866112500001 -3.04535361875000 3.213184062499908E-002
