16

 C -2.35997630000000 -6.34930298750000 -2.50801816875000 
 C -1.22655830000000 -6.83408898750000 -1.72943816875000 
 C -2.64042430000000 -2.49473898750000 -2.40474016875000 
 C -1.37168630000000 -2.76310598750000 -1.76558916875000 
 N -0.178231300000004 -7.04149298750000 -2.50225116875000 
 N -2.12147130000000 -6.26397898750000 -3.81154016875000 
 N -3.18557330000000 -6.52796798750000 -9.888816874999984E-002
 N -0.314854300000004 -2.90205498750000 -2.60890416875000 
 N -2.49877830000000 -2.38934698750000 -3.75353616875000 
 N -3.16936030000000 -2.70176898750000 3.992583124999993E-002
 S -0.504394300000004 -6.66777498750000 -4.06822216875000 
 S -3.80949430000000 -6.14410498750000 -1.57314316875000 
 S -1.60053230000000 -7.00321298750000 -6.018816874999988E-002
 S -0.869075300000004 -2.66301098750000 -4.08663016875000 
 S -4.01815130000000 -2.37037598750000 -1.36981716875000 
 S -1.56435130000000 -3.02641898750000 -3.884216875000002E-002
