16

 C -2.40852443750000 -6.15239110000000 -2.34416880937500 
 C -1.25051243749999 -6.82670010000000 -1.85708380937500 
 C -2.65166643749999 -2.51217110000000 -2.69717680937500 
 C -1.41515243749999 -2.83699710000000 -2.06560780937500 
 N -0.366016437499995 -7.13046510000000 -2.77649280937500 
 N -2.37760743749999 -5.89451310000000 -3.63858780937500 
 N -2.74589943749999 -6.35182710000000 0.189703190624999 
 N -0.422697437499995 -3.09358610000000 -2.93546080937500 
 N -2.58527643749999 -2.37829410000000 -4.04806380937500 
 N -3.10514743750000 -2.43998610000000 -8.592880937500125E-002
 S -0.963051437499995 -6.56446910000000 -4.22233680937500 
 S -3.57410143750000 -5.75561910000000 -1.16683680937500 
 S -1.29800343749999 -7.10050510000000 -9.104880937500148E-002
 S -1.00205543749999 -2.83850110000000 -4.39644580937500 
 S -3.93472043749999 -2.06572710000000 -1.51504180937500 
 S -1.52840543749999 -2.91973510000000 -0.319739809375001 
