16

 C -2.51071350625000 -6.59144114062500 -2.43291564062500 
 C -1.24364350625000 -6.74765714062500 -1.79254964062500 
 C -2.45780550625000 -2.20504514062500 -2.85294564062500 
 C -1.40201050625000 -2.90059614062500 -2.07040564062500 
 N -0.142073506249999 -6.66915214062500 -2.57991364062500 
 N -2.42870150625000 -6.34022614062500 -3.72857164062500 
 N -3.03662350625000 -6.48421814062500 5.620535937499826E-002
 N -0.368260506250000 -3.14181114062500 -2.82515864062500 
 N -2.21995350625000 -1.95489514062500 -4.11788364062500 
 N -3.38237950625000 -2.73049014062500 -0.503092640625002 
 S -0.803798506249999 -6.38969714062500 -4.08887364062500 
 S -3.86269250625000 -6.45495514062500 -1.35344864062500 
 S -1.37596050625000 -6.84040214062500 3.538359374998246E-003
 S -0.607432506249999 -2.47663014062500 -4.33941364062500 
 S -3.89330750625000 -2.02327914062500 -1.88878564062500 
 S -1.79657350625000 -3.21250514062500 -0.424330640625002 
