16

 C -2.43802603437500 -6.61710125625000 -2.23396273125000 
 C -1.17485903437500 -6.76440025625000 -1.57762073125000 
 C -2.32871603437500 -2.72010625625000 -2.51646373125000 
 C -1.11727103437500 -3.25339725625000 -1.94367973125000 
 N -0.116587034374996 -6.75704225625000 -2.38672473125000 
 N -2.36261503437500 -6.51126125625000 -3.55203973125000 
 N -3.02427303437500 -6.89621525625000 0.242708268750000 
 N -0.198623034374997 -3.43711525625000 -2.85488973125000 
 N -2.34613103437500 -2.64384525625000 -3.81896773125000 
 N -2.77323803437500 -2.91332525625000 3.692268749999617E-003
 S -0.752665034374997 -6.66351525625000 -3.93549973125000 
 S -3.74916703437500 -6.71256125625000 -1.19609773125000 
 S -1.33296203437500 -7.04348325625000 0.131290268750000 
 S -0.775529034374996 -3.07232625625000 -4.33258573125000 
 S -3.54927803437500 -2.42636525625000 -1.37971573125000 
 S -1.18280203437500 -3.42499825625000 -0.273540731250000 
