16

 C -2.47248166249999 -6.30752704062501 -2.56593861875000 
 C -1.33550966249999 -6.84005204062501 -1.80857861875000 
 C -2.42550466249999 -2.47140704062500 -2.43793061875000 
 C -1.23251166249999 -3.05046404062501 -1.74322261875000 
 N -0.288319662499993 -7.14568404062500 -2.57313961875000 
 N -2.33564366249999 -6.22702504062500 -3.89745461875000 
 N -3.22356166249999 -6.55183204062500 -9.115761875000050E-002
 N -0.191610662499993 -3.25904904062500 -2.51781761875000 
 N -2.27101866249999 -2.39564004062500 -3.72663661875000 
 N -3.08214166249999 -2.54632804062501 7.860381249999548E-003
 S -0.770963662499994 -6.70882904062501 -4.14575361875000 
 S -3.87462466249999 -5.99049604062500 -1.54229861875000 
 S -1.62694766249999 -6.97196704062500 -9.400461875000055E-002
 S -0.746156662499994 -2.81876804062501 -4.07428461875000 
 S -3.79745966249999 -2.16201504062500 -1.43954661875000 
 S -1.44791966249999 -3.01309404062501 -5.687618750000567E-003
