16

 C -2.59109993437500 -6.26733040937500 -2.44216682187500 
 C -1.41916993437500 -6.92010940937500 -1.91305182187500 
 C -2.42981493437500 -2.58822640937500 -2.18153282187500 
 C -1.36446493437500 -3.38282240937500 -1.61451682187500 
 N -0.445173934375002 -7.21882340937500 -2.75497982187500 
 N -2.45107793437500 -5.97828040937500 -3.72105782187500 
 N -3.03040893437500 -6.58125940937500 6.976617812500185E-002
 N -0.422756934375002 -3.70139940937500 -2.48291482187500 
 N -2.29404693437500 -2.35152640937500 -3.48637482187500 
 N -2.94610093437500 -2.79045740937500 0.279157178125002 
 S -0.991985934375002 -6.59665440937500 -4.23285082187500 
 S -3.82260893437500 -6.01307140937500 -1.29156182187500 
 S -1.56756393437500 -7.29698640937500 -0.214170821874998 
 S -0.878748934375002 -3.06328340937500 -3.96759182187500 
 S -3.79504593437500 -2.42844340937500 -1.11079182187500 
 S -1.51377193437500 -3.63921140937500 4.989017812500185E-002
