16

 C -2.63042299062500 -6.59587717500000 -2.33189958750000 
 C -1.35852699062500 -6.78519517500000 -1.67404658750000 
 C -2.32415599062500 -3.02183617500000 -2.47060258750000 
 C -1.02368199062500 -3.31815817500000 -1.86558058750000 
 N -0.334041990624995 -6.80313717500000 -2.50733158750000 
 N -2.52559299062499 -6.43308617500000 -3.67168058750000 
 N -3.06283999062500 -7.02143317500000 0.183305412500000 
 N -7.507199062499570E-002 -3.64422217500000 -2.72353458750000 
 N -2.30534399062500 -2.95750217500000 -3.79614458750000 
 N -2.74922399062500 -3.01100317500000 7.592641249999943E-002
 S -0.954353990624996 -6.64380117500000 -4.01899258750000 
 S -3.98219299062500 -6.87950717500000 -1.24410658750000 
 S -1.44558699062499 -7.15265917500000 -1.804558750000052E-002
 S -0.723092990624996 -3.22373417500000 -4.22978658750000 
 S -3.59309199062500 -2.88011417500000 -1.38425858750000 
 S -1.12613699062500 -3.34220917500000 -0.136946587500000 
