16

 C -2.45138443750000 -6.21904459687501 -2.36901750937500 
 C -1.28228143750000 -6.89436459687501 -1.85159250937500 
 C -2.62382843750000 -2.43045659687501 -2.64744250937500 
 C -1.39873743750000 -2.89070959687501 -2.02350250937500 
 N -0.386219437500003 -7.12865959687501 -2.81262350937500 
 N -2.39592143750000 -5.92794959687501 -3.67248650937500 
 N -2.84516243750000 -6.31121459687501 0.173840490625000 
 N -0.384867437500003 -3.07821359687501 -2.81863650937500 
 N -2.54404443750000 -2.41955459687501 -3.95766050937500 
 N -3.09976143750000 -2.47175959687501 -8.976450937499991E-002
 S -0.985711437500003 -6.57321059687501 -4.25108550937500 
 S -3.60452443750000 -5.77402759687501 -1.17946550937500 
 S -1.36147143750000 -7.09202859687501 -0.118034509374999 
 S -0.992378437500003 -2.87492859687501 -4.40325750937500 
 S -3.82518643750000 -2.06685959687501 -1.51617250937500 
 S -1.52000143750000 -2.94165259687501 -0.300495509375000 
