16

 C -2.22888654062499 -6.69326301562500 -2.24226755625000 
 C -0.895104540624992 -6.99874601562500 -1.74130055625000 
 C -2.48530354062499 -2.69248601562500 -2.29131855625000 
 C -1.35269954062499 -3.26049801562500 -1.74282555625000 
 N -1.030540624991971E-003 -7.02206301562500 -2.69811955625000 
 N -2.33861654062499 -6.42671401562500 -3.54155855625000 
 N -2.44582854062499 -6.98613901562500 0.279776443750000 
 N -0.374498540624992 -3.46663701562500 -2.59618655625000 
 N -2.48303154062499 -2.59368401562500 -3.60752755625000 
 N -3.00550354062499 -3.04443401562500 0.169924443750000 
 S -0.781543540624992 -6.64827001562500 -4.16670455625000 
 S -3.43414154062499 -6.51429501562500 -1.01117255625000 
 S -0.819319540624992 -7.28109901562500 -1.286955625000030E-002
 S -0.892724540624992 -3.07347301562500 -4.11431355625000 
 S -3.80004654062499 -2.45014001562500 -1.20593155625000 
 S -1.44229954062499 -3.54939601562500 -3.147556250000294E-003
