16

 C -2.57184739062500 -6.57246752187501 -2.35038354062500 
 C -1.35188839062500 -7.02248452187501 -1.72825854062500 
 C -2.13110239062500 -2.88308452187501 -2.40659454062500 
 C -1.04162239062500 -3.51318752187501 -1.75025454062500 
 N -0.323876390625001 -7.19800052187501 -2.58977954062500 
 N -2.50675439062500 -6.39944352187501 -3.67689954062500 
 N -3.11292039062500 -6.58829352187501 0.155708459375001 
 N 7.816860937499825E-002 -3.68594452187501 -2.47469154062500 
 N -1.89452039062500 -2.59753352187501 -3.70268054062500 
 N -2.88959739062500 -3.30602752187501 7.105245937500104E-002
 S -0.959620390625001 -6.84302052187501 -4.09047054062500 
 S -3.89681639062500 -6.22228252187501 -1.28471354062500 
 S -1.56964239062500 -7.09047452187501 9.153459375000894E-003
 S -0.292511390625001 -3.03036252187501 -3.93071754062500 
 S -3.58282939062500 -2.80846552187501 -1.41084454062500 
 S -1.35013239062500 -3.93489852187501 -4.103154062499925E-002
