16

 C -2.13954494375000 -6.18489340937500 -2.12774096875000 
 C -1.03683994375000 -6.80536740937500 -1.50107996875000 
 C -2.39071594375000 -2.64884040937500 -2.60991396875000 
 C -1.16833894375000 -3.04849440937500 -2.02596296875000 
 N -4.367943749999270E-003 -6.93871540937500 -2.31426496875000 
 N -1.98346994375000 -5.92183740937500 -3.39300496875000 
 N -2.82300494375000 -6.57672240937500 0.259935031249999 
 N -0.227565943750000 -3.34862040937500 -2.87375296875000 
 N -2.33567094375000 -2.57074140937500 -3.92932196875000 
 N -2.99549294375000 -3.04950740937500 -0.169430968750001 
 S -0.560675943750000 -6.55088640937500 -3.85029796875000 
 S -3.61257294375000 -6.18230440937500 -1.16862396875000 
 S -1.34210994375000 -7.27731840937500 0.153641031249999 
 S -0.774473943750000 -2.96630140937500 -4.40887596875000 
 S -3.74426794375000 -2.49676840937500 -1.52183496875000 
 S -1.35794794375000 -3.23750340937500 -0.333639968750001 
