16

 C -2.41502485625000 -6.41690109375000 -2.34475842500000 
 C -1.18473285625000 -6.82769309375000 -1.71845842500000 
 C -2.47548085625000 -3.17024009375000 -2.05025342500000 
 C -1.21062185625000 -3.44050109375000 -1.38508242500000 
 N -0.166765856249997 -6.90188009375000 -2.56709942500000 
 N -2.35277985625000 -6.25470609375000 -3.66300542500000 
 N -2.98528185625000 -6.94057609375000 0.173058575000000 
 N -0.184100856249997 -3.49281609375000 -2.24630542500000 
 N -2.30699485625000 -2.95576309375000 -3.35959742500000 
 N -2.98518585625000 -3.37266609375000 0.451373575000000 
 S -0.786198856249997 -6.66252709375000 -4.09486342500000 
 S -3.75875585625000 -6.52995409375000 -1.19880342500000 
 S -1.27812385625000 -7.11098209375000 7.052857499999976E-002
 S -0.734103856249997 -3.24952809375000 -3.75413242500000 
 S -3.82763685625000 -3.06270309375000 -0.995606425000001 
 S -1.34231385625000 -3.55357909375000 0.365840575000000 
