16

 C -2.45556749687501 -6.44981718437500 -2.13065856250000 
 C -1.24272349687501 -6.92313318437500 -1.46594156250000 
 C -2.33329249687501 -2.54274318437500 -2.42929556250000 
 C -1.08515649687501 -3.16807818437500 -1.87381256250000 
 N -0.232101496875008 -7.03547218437500 -2.30250756250000 
 N -2.29446649687501 -6.08178118437500 -3.38630456250000 
 N -3.14083349687501 -7.17034918437500 0.260548437500004 
 N -0.103234496875008 -3.39249718437500 -2.78667856250000 
 N -2.28621449687501 -2.40622218437500 -3.75751456250000 
 N -2.84900749687501 -3.04849518437500 2.850943750000345E-002
 S -0.726324496875008 -6.53907518437500 -3.79783956250000 
 S -3.87474749687501 -6.71201418437500 -1.15181256250000 
 S -1.48887649687501 -7.40566518437500 0.134799437500003 
 S -0.760123496875008 -2.81138618437500 -4.21962756250000 
 S -3.58970349687501 -2.36790718437500 -1.30025956250000 
 S -1.24866749687501 -3.34030818437500 -0.176120562499996 
