16

 C -2.36713939062500 -6.41673854375000 -2.46334717500000 
 C -1.13569939062500 -6.71577254375000 -1.80148817500000 
 C -2.49449839062500 -3.35997354375000 -2.10326417500000 
 C -1.08002039062500 -3.35906054375000 -1.62432617500000 
 N -7.589239062500042E-002 -6.91629854375000 -2.59434917500000 
 N -2.26157739062500 -6.32332254375000 -3.79424217500000 
 N -2.88281339062500 -6.55399254375000 7.769825000002006E-003
 N -0.167195390625000 -3.24130254375000 -2.58871917500000 
 N -2.59078439062500 -3.31492754375000 -3.45409917500000 
 N -2.62605739062500 -3.47159254375000 0.431574825000002 
 S -0.657753390625000 -6.62915854375000 -4.09319617500000 
 S -3.66356739062500 -6.23076954375000 -1.42376817500000 
 S -1.24110939062500 -6.97160854375000 -7.411517499999798E-002
 S -1.01485739062500 -3.28235454375000 -3.98769117500000 
 S -3.65563039062500 -3.29744554375000 -0.809732174999998 
 S -0.994386390625000 -3.54694954375000 6.324682500000200E-002
