16

 C -2.29467558750000 -6.30566857812500 -2.39529930625000 
 C -1.06499258750000 -6.81602857812500 -1.80815430625000 
 C -2.49316458750000 -3.17700657812500 -2.36113730625000 
 C -1.23356258750000 -3.27190057812500 -1.70342430625000 
 N -6.184658750000338E-002 -7.16299757812500 -2.66248230625000 
 N -2.17684558750000 -6.13216957812500 -3.74051930625000 
 N -2.95543258750000 -6.93875757812500 4.094669375000026E-002
 N -0.173364587500004 -3.20419257812500 -2.52895730625000 
 N -2.39448958750000 -3.07309157812500 -3.68828230625000 
 N -3.02684058750000 -2.68028457812500 8.591069375000027E-002
 S -0.659391587500004 -6.66281757812500 -4.11975130625000 
 S -3.54700358750000 -6.14221557812500 -1.23551230625000 
 S -1.26664758750000 -7.24726657812500 -0.113518306250000 
 S -0.778812587500004 -3.15221057812500 -4.08536030625000 
 S -3.92728658750000 -2.68646457812500 -1.34489530625000 
 S -1.35061758750000 -3.04055057812500 3.739669375000032E-002
