16

 C -2.58741489687500 -6.81490169687500 -2.33187875625000 
 C -1.32620289687500 -7.15634469687500 -1.76880175625000 
 C -2.37790889687500 -3.08208369687500 -2.31958675625000 
 C -1.13665889687500 -3.56717469687500 -1.79435975625000 
 N -0.289336896874998 -7.28136669687500 -2.60637775625000 
 N -2.54241589687500 -6.62673269687500 -3.66368175625000 
 N -2.92254189687500 -6.78233269687500 0.240440243750000 
 N -0.125762896874997 -3.74582169687500 -2.60618775625000 
 N -2.30473189687500 -2.91917369687500 -3.64220975625000 
 N -2.73232689687500 -3.33096569687500 0.182509243750000 
 S -0.997914896874997 -7.01848969687500 -4.12764775625000 
 S -3.85236189687500 -6.43415969687500 -1.13749975625000 
 S -1.34283289687500 -7.18146669687500 -2.090175625000068E-002
 S -0.782122896874998 -3.30028269687500 -4.16699475625000 
 S -3.54962389687500 -2.80582069687500 -1.13886975625000 
 S -1.19702889687500 -3.90356669687500 -0.121272756250001 
