16

 C -2.47255774375000 -6.79757763437500 -2.21835791562500 
 C -1.17612074375000 -7.12781763437500 -1.66141391562500 
 C -2.61000174375000 -2.77629463437500 -2.38708691562500 
 C -1.30601774375000 -3.30046363437500 -1.81376091562500 
 N -0.197439743750001 -7.30756663437500 -2.53009991562500 
 N -2.48387274375000 -6.72998163437500 -3.54363591562500 
 N -2.81785074375000 -7.12027163437500 0.273197084375000 
 N -0.342955743750001 -3.40354063437500 -2.70519691562500 
 N -2.59719274375000 -2.56965463437500 -3.70751091562500 
 N -2.98030474375000 -2.99208463437500 8.346508437499978E-002
 S -0.928629743750001 -7.04314863437500 -4.00926891562500 
 S -3.73618774375000 -6.65710063437500 -1.00364091562500 
 S -1.15818474375000 -7.33709363437500 7.420108437499984E-002
 S -1.00127974375000 -2.91862463437500 -4.13656491562500 
 S -3.85559674375000 -2.52619963437500 -1.25283291562500 
 S -1.36983174375000 -3.44774563437500 -8.741391562500023E-002
