16

 C -2.50552077187500 -6.42025030937500 -2.41181947187500 
 C -1.31067277187500 -6.92986730937500 -1.80303547187500 
 C -2.30884677187500 -2.89443330937500 -2.35992347187500 
 C -1.03204677187500 -3.32661530937500 -1.77717847187500 
 N -0.245537771875000 -7.14204730937500 -2.57507847187500 
 N -2.34393877187500 -6.19299730937500 -3.72370747187500 
 N -3.03912377187500 -6.70864130937500 9.358652812499879E-002
 N -2.590577187500021E-002 -3.45096730937500 -2.62808147187500 
 N -2.23630177187500 -2.71877030937500 -3.65924047187500 
 N -2.73400677187500 -2.90385730937500 0.149856528124999 
 S -0.747857771875000 -6.59785230937500 -4.06439847187500 
 S -3.75519477187500 -6.07818830937500 -1.28831447187500 
 S -1.48169177187500 -7.20154530937500 -0.125771471875001 
 S -0.708866771875000 -3.19025330937500 -4.16129847187500 
 S -3.62223577187500 -2.57736330937500 -1.24770447187500 
 S -1.19079777187500 -3.53333030937500 -5.853447187500094E-002
