16

 C -2.50882720625000 -6.50247882499999 -2.57134790625000 
 C -1.32138420625000 -6.77263282499999 -1.85428890625000 
 C -2.47662720625000 -2.54809482499999 -2.38874390625000 
 C -1.24773220625000 -3.04210282499999 -1.77614390625000 
 N -0.192710206250004 -6.75556582499999 -2.56430790625000 
 N -2.27628720625000 -6.32774682499999 -3.85735590625000 
 N -3.12527620625000 -6.61089082499999 -3.677290624999929E-002
 N -0.260602206250004 -3.23655582499999 -2.62932890625000 
 N -2.38873820625000 -2.55947082499999 -3.70587690625000 
 N -2.98326220625000 -2.71649382499999 0.100807093750001 
 S -0.651119206250004 -6.45328982499999 -4.13211390625000 
 S -3.95409520625000 -6.34670982499999 -1.50471090625000 
 S -1.49482120625000 -6.98274682499999 -0.163370906249999 
 S -0.775522206250004 -2.92940482499999 -4.18712090625000 
 S -3.80204220625000 -2.22737682499999 -1.32581890625000 
 S -1.38516420625000 -3.18934582499999 -6.953290624999919E-002
