16

 C -2.24726744687500 -6.64040227812500 -2.55649252812500 
 C -1.02560044687500 -6.97904127812500 -1.93422352812500 
 C -2.49723644687500 -2.51326127812500 -2.50275852812500 
 C -1.29904644687500 -3.11519827812500 -1.96535752812500 
 N -8.517644687500425E-002 -7.43184327812500 -2.80217252812500 
 N -2.27073044687500 -6.73302727812500 -3.86227952812500 
 N -2.65515644687500 -6.42625027812500 -6.110052812499922E-002
 N -0.380772446875004 -3.38154927812500 -2.88887452812500 
 N -2.55832044687500 -2.51309427812500 -3.84374652812500 
 N -2.95212344687500 -2.88178727812500 6.169447187500077E-002
 S -0.824405446875004 -7.35361927812500 -4.28226452812500 
 S -3.56092244687500 -6.28877027812500 -1.47252852812500 
 S -1.08687844687500 -6.92140027812500 -0.232738528124999 
 S -0.970575446875004 -2.97753127812500 -4.36309452812500 
 S -3.70461844687500 -2.21438327812500 -1.29441452812500 
 S -1.44080144687500 -3.44448627812500 -0.262956528124999 
