16

 C -2.59222298750000 -6.46371381562500 -2.35537345000000 
 C -1.31757898750000 -6.92502381562500 -1.72654545000000 
 C -2.40707698750000 -2.87303981562500 -2.17531945000000 
 C -1.14488198750000 -3.29752381562500 -1.64581445000000 
 N -0.307911987499998 -7.07611781562500 -2.56489045000000 
 N -2.42479798750000 -6.27588581562500 -3.65268645000000 
 N -3.06550898750000 -6.81264881562500 0.141975550000000 
 N -0.179639987499998 -3.45959981562500 -2.53054245000000 
 N -2.38582198750000 -2.66232181562500 -3.48286745000000 
 N -2.83628298750000 -2.96084181562500 0.352176550000000 
 S -0.923628987499998 -6.76765881562500 -4.06101245000000 
 S -3.95583398750000 -6.38583781562500 -1.26830645000000 
 S -1.46805598750000 -7.20143381562500 5.775499999995937E-004
 S -0.785067987499998 -2.98416881562500 -4.04263245000000 
 S -3.68683298750000 -2.47310181562500 -1.02257945000000 
 S -1.27134998750000 -3.47760381562500 0.129841550000000 
