16

 C -2.33608037500000 -6.30082859687500 -2.45983533437500 
 C -1.17178437500000 -6.89465759687500 -1.83980833437500 
 C -2.27765837500000 -2.69453359687500 -2.39132933437500 
 C -1.03486937500000 -3.26973059687500 -1.76282333437500 
 N -0.176297374999999 -7.12259859687500 -2.68094033437500 
 N -2.14655337500000 -6.01022059687500 -3.72422333437500 
 N -3.01418937500000 -6.83442459687500 -3.221133437500212E-002
 N -4.898337499999883E-002 -3.54918959687500 -2.63149033437500 
 N -2.26004237500000 -2.67095459687500 -3.73951433437500 
 N -2.65984237500000 -2.98705059687500 0.171451665624998 
 S -0.631807374999999 -6.59659959687500 -4.21102733437500 
 S -3.66877737500000 -6.11001359687500 -1.37840533437500 
 S -1.40416537500000 -7.20922959687500 -9.097933437500183E-002
 S -0.702689374999999 -3.15625259687500 -4.14408633437500 
 S -3.50753137500000 -2.66643059687500 -1.20206733437500 
 S -1.18540737500000 -3.63303559687500 -7.496833437500205E-002
