16

 C -2.35412392187501 -6.03780471562501 -2.18607676875000 
 C -1.14986992187501 -6.64081071562501 -1.62682676875000 
 C -2.63761792187501 -2.49029171562501 -2.54668876875000 
 C -1.37190892187501 -2.85564571562501 -1.89019276875000 
 N -0.205707921875009 -6.95152671562501 -2.51283076875000 
 N -2.29367492187501 -5.85086071562501 -3.49424776875000 
 N -2.78125692187501 -6.22042971562501 0.339230231250000 
 N -0.356697921875009 -3.13480871562501 -2.71087376875000 
 N -2.51306492187501 -2.40171371562501 -3.87026576875000 
 N -3.14349392187501 -2.38924871562501 -1.521176874999997E-002
 S -0.833090921875009 -6.42988571562501 -3.96863476875000 
 S -3.63918792187501 -5.87447671562501 -1.00655476875000 
 S -1.23564292187501 -6.86660371562501 9.500123125000015E-002
 S -0.973549921875009 -2.79697971562501 -4.32809276875000 
 S -3.90663392187501 -2.07719571562501 -1.44184376875000 
 S -1.54285192187501 -2.93653071562501 -0.149609768750000 
