16

 C -2.51140277187500 -6.63433288437500 -2.28155218750000 
 C -1.29859877187500 -7.04235288437500 -1.65635918750000 
 C -2.37271077187500 -2.51969288437500 -2.53906318750000 
 C -1.25467377187500 -3.02110388437500 -1.83263518750000 
 N -0.297905771874998 -7.39131088437500 -2.42314118750000 
 N -2.35331677187500 -6.55067188437500 -3.60279218750000 
 N -3.01400977187500 -6.65849988437500 0.239604812500002 
 N -0.190843771874998 -3.07516788437500 -2.60400018750000 
 N -2.17392777187500 -2.26111788437500 -3.81472018750000 
 N -2.97726877187500 -2.68866988437500 -2.140518749999787E-002
 S -0.802419771874998 -7.13724788437500 -3.96798718750000 
 S -3.76490177187500 -6.22873188437500 -1.18506618750000 
 S -1.39195877187500 -7.27874588437500 5.306481250000217E-002
 S -0.540983771874997 -2.56746488437500 -4.15501918750000 
 S -3.74572177187500 -2.36346588437500 -1.47469018750000 
 S -1.44251077187500 -3.34411288437500 -0.114702187499998 
