16

 C -2.41910098437500 -6.36671725937500 -2.57332352187500 
 C -1.29659598437500 -6.69908125937500 -1.75810452187500 
 C -2.32492098437500 -2.68556625937500 -2.39527052187500 
 C -1.19425698437500 -3.25276125937500 -1.74478252187500 
 N -0.215141984375003 -6.97119025937500 -2.45561852187500 
 N -2.19595398437500 -6.38043225937500 -3.88701852187500 
 N -3.28829398437500 -6.45808725937500 -0.121626521874997 
 N -0.174280984375003 -3.54557425937500 -2.52571552187500 
 N -2.22743398437500 -2.56734325937500 -3.70274552187500 
 N -3.04015698437500 -2.86590925937500 7.128547812500252E-002
 S -0.583263984375003 -6.79574125937500 -4.07549252187500 
 S -3.90219698437500 -6.10546125937500 -1.60275052187500 
 S -1.66819898437500 -6.76399725937500 -6.854552187499729E-002
 S -0.696988984375003 -3.07279625937500 -4.12089252187500 
 S -3.66214998437500 -2.37085625937500 -1.36180252187500 
 S -1.43294898437500 -3.43723325937500 -8.845218749973238E-004
