16

 C -2.59236209687500 -6.29628888125000 -2.51871903750000 
 C -1.44409109687500 -6.99054488125000 -2.00925903750000 
 C -2.40305809687500 -2.64008788125000 -2.44049703750000 
 C -1.30505009687500 -3.24066388125000 -1.78467803750000 
 N -0.403512096874997 -7.16898488125000 -2.80673803750000 
 N -2.39765709687500 -5.90559188125000 -3.77722703750000 
 N -3.06532909687500 -6.79873188125000 -8.041703749999884E-002
 N -0.257713096874997 -3.31096488125000 -2.63913403750000 
 N -2.36432809687500 -2.49582688125000 -3.76616703750000 
 N -3.02530909687500 -2.71725688125000 8.849996250000114E-002
 S -0.891251096874996 -6.45791688125000 -4.23463903750000 
 S -3.82518209687500 -6.06197788125000 -1.36911303750000 
 S -1.56964909687500 -7.53338888125000 -0.350045037499999 
 S -0.821994096874997 -2.98584888125000 -4.13035703750000 
 S -3.69974309687500 -2.18936388125000 -1.37752203750000 
 S -1.61813209687500 -3.48376088125000 -7.367903749999871E-002
