16

 C -2.17702009687499 -6.44429713125000 -2.39393425312500 
 C -0.865120096874993 -6.70167413125000 -1.79363725312500 
 C -2.51937809687499 -2.80611113125000 -2.41235925312500 
 C -1.35969809687499 -3.15383013125000 -1.73652625312500 
 N 0.153182903125007 -6.79158313125000 -2.65756725312500 
 N -2.15395609687499 -6.27596613125000 -3.69298725312500 
 N -2.64870709687499 -6.70344613125000 0.157944746875001 
 N -0.291619096874993 -3.25450813125000 -2.49964825312500 
 N -2.39415709687499 -2.68775913125000 -3.72324825312500 
 N -3.21799109687499 -2.85981013125000 4.743874687500105E-002
 S -0.545750096874993 -6.47192413125000 -4.16517425312500 
 S -3.49636709687499 -6.38899813125000 -1.22779925312500 
 S -1.04592909687499 -7.10476613125000 -0.107631253124999 
 S -0.790451096874993 -3.07629713125000 -4.08597625312500 
 S -3.93446809687499 -2.49342813125000 -1.41185025312500 
 S -1.62210609687499 -3.40078413125000 -9.368525312499898E-002
