16

 C -2.47889951562500 -6.13310679375000 -2.39186830312500 
 C -1.27783651562500 -6.78370979375000 -1.83026830312500 
 C -2.55118451562500 -2.51607579375000 -2.44300030312500 
 C -1.39159851562500 -3.09553979375000 -1.74149530312500 
 N -0.250223515625001 -6.99906979375000 -2.67020830312500 
 N -2.34833051562500 -5.95695779375000 -3.72918730312500 
 N -2.86502451562500 -6.37386279375000 0.114479696875000 
 N -0.350306515625001 -3.31765979375000 -2.52548830312500 
 N -2.40410951562500 -2.31693479375000 -3.77282730312500 
 N -3.03793751562500 -2.45445079375000 0.105748696875000 
 S -0.772195515625001 -6.41865179375000 -4.12129230312500 
 S -3.77834851562500 -6.10616479375000 -1.29768730312500 
 S -1.32931051562500 -7.09293179375000 -0.115613303125000 
 S -0.891006515625001 -2.94697779375000 -4.04152430312500 
 S -3.78418651562500 -1.98727679375000 -1.31437330312500 
 S -1.58657151562500 -3.28566379375000 2.091569687500017E-002
