16

 C -2.29654012812501 -6.57127441250000 -2.35401192812500 
 C -1.11160812812501 -7.10734441250000 -1.73346692812500 
 C -2.45457112812501 -2.79700041250000 -2.28569292812500 
 C -1.20645812812501 -3.11935041250000 -1.69878992812500 
 N -0.192087128125009 -7.36917941250000 -2.64268292812500 
 N -2.19196812812501 -6.28269941250000 -3.62958592812500 
 N -2.85029812812501 -6.69282241250000 0.197297071875000 
 N -0.238885128125009 -3.37061341250000 -2.60964392812500 
 N -2.42399512812501 -2.78132841250000 -3.64330792812500 
 N -2.86861112812501 -2.81029741250000 0.251471071875000 
 S -0.638686128125009 -6.72288241250000 -4.12494092812500 
 S -3.59131912812501 -6.31336841250000 -1.24119492812500 
 S -1.32658012812501 -7.27455841250000 -3.447592812500044E-002
 S -0.931915128125009 -3.32108241250000 -4.11236692812500 
 S -3.81690312812501 -2.79251241250000 -1.12758892812500 
 S -1.20512312812501 -3.14535341250000 0.102915071875000 
