16

 C -2.64529074062500 -6.35654751875000 -2.36577942187500 
 C -1.49968574062500 -6.87622851875000 -1.70208742187500 
 C -2.35253974062500 -2.74842651875000 -2.51236442187500 
 C -1.16291574062500 -3.06195751875000 -1.77531242187500 
 N -0.518337740624998 -7.22256351875000 -2.50419542187500 
 N -2.51632274062500 -6.31116351875000 -3.67346542187500 
 N -3.18884074062500 -6.23719151875000 0.140937578125001 
 N -0.105838740624997 -3.27875551875000 -2.58128642187500 
 N -2.17864174062500 -2.67975351875000 -3.82174542187500 
 N -3.04822774062500 -2.86351451875000 3.933857812500130E-002
 S -0.955096740624997 -6.84561751875000 -4.03527442187500 
 S -3.97785274062500 -5.99992451875000 -1.28727842187500 
 S -1.71881274062500 -6.98196251875000 -1.148642187499860E-002
 S -0.572322740624998 -3.02970551875000 -4.11690642187500 
 S -3.65877574062500 -2.46876851875000 -1.41093142187500 
 S -1.43441574062500 -3.26515651875000 -8.665842187499884E-002
