16

 C -2.46340228750001 -6.59206100000000 -2.38748620000000 
 C -1.23317928750001 -6.95025100000000 -1.79403120000000 
 C -2.16069428750001 -3.25105500000000 -2.25732820000000 
 C -0.938134287500009 -3.59445900000000 -1.54550420000000 
 N -0.220375287500009 -7.18628900000000 -2.63124720000000 
 N -2.42515428750001 -6.52694100000000 -3.71604720000000 
 N -2.80526628750001 -6.69285700000000 0.198534799999999 
 N 3.093371249999066E-002 -3.91088200000000 -2.37281420000000 
 N -2.05802528750001 -3.13115000000000 -3.53344820000000 
 N -2.74490428750001 -3.25075900000000 0.212513799999999 
 S -0.888028287500009 -7.01917700000000 -4.15500420000000 
 S -3.70687628750001 -6.39253900000000 -1.16234820000000 
 S -1.19588228750001 -6.97006100000000 -4.888620000000099E-002
 S -0.525980287500009 -3.58529000000000 -3.97582920000000 
 S -3.54665428750001 -3.09206700000000 -1.21668220000000 
 S -1.13373028750001 -3.66716400000000 0.149997799999999 
