16

 C -2.57705025625000 -6.49247048125000 -2.21672646250000 
 C -1.34079625625000 -6.96188248125000 -1.60267946250000 
 C -2.46369825625000 -2.90490548125000 -2.24089946250000 
 C -1.20621925625000 -3.25917148125000 -1.62532246250000 
 N -0.335303256250001 -7.03127248125000 -2.44665846250000 
 N -2.47511125625000 -6.20879048125000 -3.50202946250000 
 N -3.06989525625000 -6.62351548125000 0.302473537500000 
 N -0.185910256250001 -3.43671448125000 -2.46435946250000 
 N -2.36574125625000 -2.87398748125000 -3.57484146250000 
 N -2.96042325625000 -3.06907948125000 0.325704537500000 
 S -0.924764256250001 -6.56784848125000 -3.94187546250000 
 S -3.96753825625000 -6.20064048125000 -1.13163846250000 
 S -1.48702225625000 -7.10397648125000 0.121823537500000 
 S -0.800527256250001 -3.27393548125000 -4.00380646250000 
 S -3.79758925625000 -2.79252848125000 -1.07069846250000 
 S -1.32399625625000 -3.33654148125000 0.141944537500000 
