16

 C -2.47650194687500 -6.47614078125000 -2.12311442500000 
 C -1.31046994687500 -6.94745778125000 -1.49004542500000 
 C -2.27923994687500 -2.54396078125000 -2.46322542500000 
 C -1.11162494687500 -3.14378178125000 -1.91848442500000 
 N -0.253209946875002 -7.03129778125000 -2.31562542500000 
 N -2.29495294687500 -6.08377078125000 -3.40292842500000 
 N -3.16994994687500 -7.12204478125000 0.269855574999999 
 N -0.145338946875002 -3.43176278125000 -2.76990642500000 
 N -2.21532394687500 -2.32458578125000 -3.77263242500000 
 N -2.83328094687500 -3.01889578125000 4.241857499999901E-002
 S -0.786946946875002 -6.51864078125000 -3.77006642500000 
 S -3.90052894687500 -6.70904978125000 -1.16897642500000 
 S -1.55335194687500 -7.42503178125000 0.184265574999999 
 S -0.738668946875002 -2.82060878125000 -4.21384642500000 
 S -3.60449194687500 -2.36410578125000 -1.29496642500000 
 S -1.23853894687500 -3.40183178125000 -0.154411425000001 
