16

 C -2.54475997812500 -6.53290603750000 -2.38680146562500 
 C -1.26746597812500 -6.83724203750000 -1.81492746562500 
 C -2.30915797812500 -2.91960803750000 -2.39965446562500 
 C -1.09878097812500 -3.36455503750000 -1.78767946562500 
 N -0.298756978124999 -7.00157603750000 -2.71056346562500 
 N -2.49876597812500 -6.29529103750000 -3.69533946562500 
 N -2.94824897812500 -6.57655603750000 0.182445534375000 
 N -8.711097812499879E-002 -3.52582003750000 -2.61181646562500 
 N -2.23213197812500 -2.87813103750000 -3.72199246562500 
 N -2.89198697812500 -3.20619103750000 0.115647534375000 
 S -0.974063978124999 -6.70683103750000 -4.17364646562500 
 S -3.77264797812500 -6.26867103750000 -1.20614846562500 
 S -1.35166097812500 -6.94303003750000 -3.816946562499979E-002
 S -0.628994978124999 -3.19444003750000 -4.15586846562500 
 S -3.63932697812500 -2.71945903750000 -1.28743946562500 
 S -1.23331997812500 -3.50479203750000 -7.894646562499963E-002
