16

 C -2.30486808437500 -6.45210579062500 -2.31432144687500 
 C -1.04251508437500 -6.85475979062500 -1.81138344687500 
 C -2.55961508437500 -2.68521879062500 -2.46172544687500 
 C -1.40271308437500 -3.23180379062500 -1.76779744687500 
 N -8.431608437500060E-002 -6.95892279062500 -2.73726144687500 
 N -2.35022208437500 -6.17177079062500 -3.62817544687500 
 N -2.61355808437500 -6.74951379062500 0.241443553124997 
 N -0.394684084375001 -3.49247979062500 -2.60121344687500 
 N -2.39862308437500 -2.40441479062500 -3.75236444687500 
 N -3.32402608437500 -2.98217679062500 1.684655312499750E-002
 S -0.776784084375000 -6.40651679062500 -4.14782744687500 
 S -3.53533308437500 -6.34507279062500 -1.11369544687500 
 S -1.04297308437500 -7.18096879062500 -4.992544687500278E-002
 S -0.837657084375000 -2.95857979062500 -4.04970744687500 
 S -3.95792008437500 -2.40699179062500 -1.39130644687500 
 S -1.71840908437500 -3.34995979062500 -6.110644687500244E-002
