16

 C -2.40298251562500 -6.48271519375000 -2.59039815000000 
 C -1.17947551562500 -6.92267019375000 -1.91871015000000 
 C -2.63573751562500 -2.53100819375000 -2.35466915000000 
 C -1.48081151562500 -3.07997319375000 -1.62909215000000 
 N -0.134041515625001 -7.00833719375000 -2.73477915000000 
 N -2.22474151562500 -6.18114819375000 -3.87820615000000 
 N -2.91773351562500 -6.86998319375000 -9.782415000000078E-002
 N -0.485303515625001 -3.43945119375000 -2.44281815000000 
 N -2.37213751562500 -2.36449819375000 -3.63941415000000 
 N -3.31808551562500 -2.91678119375000 0.128808849999999 
 S -0.640161515625000 -6.57465019375000 -4.28205015000000 
 S -3.80761351562500 -6.50321519375000 -1.46532215000000 
 S -1.35529351562500 -7.18410019375000 -0.268329150000001 
 S -0.830086515625001 -3.05006219375000 -3.98213115000000 
 S -3.95532051562500 -2.21869419375000 -1.30132915000000 
 S -1.70554851562500 -3.23986019375000 7.694684999999923E-002
