16

 C -2.47969695625000 -6.65050679375000 -2.42144635000000 
 C -1.19173995625000 -6.89213779375000 -1.77886635000000 
 C -2.11062295625000 -2.82960779375000 -2.32003035000000 
 C -0.931335956250001 -3.36154479375000 -1.62608235000000 
 N -0.142998956250000 -6.88258579375000 -2.57231935000000 
 N -2.38282995625000 -6.43947679375000 -3.75739435000000 
 N -2.93489895625000 -6.96496479375000 0.141765650000002 
 N 0.203466043750000 -3.32010879375000 -2.36489935000000 
 N -1.86868295625000 -2.60456279375000 -3.59547335000000 
 N -2.94188495625000 -3.16489579375000 7.857465000000152E-002
 S -0.727162956250001 -6.65931379375000 -4.14187835000000 
 S -3.81976395625000 -6.71475779375000 -1.26392035000000 
 S -1.31086195625000 -7.28105379375000 -9.745634999999853E-002
 S -0.312159956250000 -2.97979079375000 -3.92632135000000 
 S -3.49045095625000 -2.47044679375000 -1.36372235000000 
 S -1.38332395625000 -3.68880379375000 5.407165000000158E-002
