16

 C -2.25118741562500 -6.44968884062500 -2.32980521250000 
 C -1.06967741562500 -7.09881384062500 -1.77736921250000 
 C -2.24411341562500 -2.68985284062500 -2.45243121250000 
 C -1.07512641562500 -3.17242584062500 -1.72487021250000 
 N -0.111624415624999 -7.36712884062500 -2.68648821250000 
 N -2.15838441562500 -6.21735084062500 -3.63138921250000 
 N -2.61430241562500 -6.59480784062500 0.185558787499999 
 N -2.672041562499938E-002 -3.38091384062500 -2.52695121250000 
 N -2.06396141562500 -2.44489984062500 -3.74848321250000 
 N -2.97214341562500 -2.91275384062500 1.798278749999938E-002
 S -0.676680415624999 -6.75342384062500 -4.11413621250000 
 S -3.47303241562500 -6.10120184062500 -1.12353721250000 
 S -1.17414541562500 -7.31653884062500 -5.361121250000056E-002
 S -0.478760415624999 -2.85987284062500 -4.02427221250000 
 S -3.65400541562500 -2.38513884062500 -1.45057621250000 
 S -1.38254141562500 -3.42567184062500 -2.603021250000070E-002
