16

 C -2.42337173437499 -6.37125036250000 -2.51980855312500 
 C -1.26535573437500 -6.85681236250000 -1.82803155312500 
 C -2.38836573437500 -2.53958436250000 -2.48305755312500 
 C -1.36187373437500 -3.28206236250000 -1.86281655312500 
 N -0.227463734374996 -7.07205736250000 -2.60653455312500 
 N -2.27757573437500 -6.16387136250000 -3.82994655312500 
 N -3.20745273437500 -6.77740836250000 -0.112225553124998 
 N -0.292511734374996 -3.56657636250000 -2.60426055312500 
 N -2.16648573437500 -2.30650536250000 -3.77733455312500 
 N -2.96891773437500 -2.76921136250000 5.629344687500182E-002
 S -0.653551734374996 -6.52848736250000 -4.20182955312500 
 S -3.84261873437500 -6.12405336250000 -1.54859455312500 
 S -1.60873273437500 -7.07269836250000 -0.108562553124998 
 S -0.687287734374995 -3.07554736250000 -4.10509255312500 
 S -3.65202673437500 -2.21934336250000 -1.36033255312500 
 S -1.43457373437499 -3.36860536250000 -0.105466553124998 
