16

 C -2.51867575312501 -6.52021129375000 -2.39512272500000 
 C -1.32219075312501 -6.97928429375000 -1.76287472500000 
 C -2.56354575312500 -3.18680729375000 -2.42530772500000 
 C -1.28679975312501 -3.45903529375000 -1.78027272500000 
 N -0.246237753125005 -7.03056629375000 -2.55840872500000 
 N -2.40902875312501 -6.20362329375000 -3.69451672500000 
 N -3.02285475312500 -6.79724129375000 0.138226274999999 
 N -0.235172753125005 -3.50028629375000 -2.62309272500000 
 N -2.47334075312500 -2.90486729375000 -3.72426172500000 
 N -3.02087175312500 -3.30394229375000 0.117857274999999 
 S -0.841936753125005 -6.62529729375000 -4.04663672500000 
 S -3.85299575312500 -6.27290529375000 -1.21533672500000 
 S -1.41820075312500 -7.01854929375000 -2.688672500000067E-002
 S -0.909278753125005 -3.05376629375000 -4.17491672500000 
 S -3.90216275312500 -3.10413829375000 -1.26209772500000 
 S -1.39934775312500 -3.73259529375000 -8.574372500000083E-002
