16

 C -2.49768441562500 -6.66499288125000 -2.29872156562500 
 C -1.31435541562500 -7.19745688125000 -1.62685556562500 
 C -2.33669341562500 -2.43673088125000 -2.53189256562500 
 C -1.13140641562500 -2.96813988125000 -1.84341356562500 
 N -0.274181415625002 -7.31951788125000 -2.44657056562500 
 N -2.34092141562500 -6.51748288125000 -3.60059756562500 
 N -2.98601941562500 -6.76896988125000 0.271365434375000 
 N -6.584741562500085E-002 -3.16804088125000 -2.62836256562500 
 N -2.12947141562500 -2.22086488125000 -3.85447656562500 
 N -2.96796641562500 -2.68804188125000 -5.728956562500054E-002
 S -0.817452415625001 -7.03150788125000 -3.99196256562500 
 S -3.70830541562500 -6.22938488125000 -1.11322356562500 
 S -1.40860641562500 -7.22367988125000 6.159743437499965E-002
 S -0.526470415625002 -2.59108088125000 -4.10888856562500 
 S -3.74507741562500 -2.40785288125000 -1.51489956562500 
 S -1.42466641562500 -3.28314488125000 -0.128687565625000 
