16

 C -2.30035373750000 -6.36237138125000 -2.41340211875000 
 C -1.12359073750000 -6.83880738125000 -1.75465511875000 
 C -2.54740573750000 -2.58369638125000 -2.22253511875000 
 C -1.32400773750000 -3.08137538125000 -1.69968511875000 
 N -0.123382737499997 -7.03829838125000 -2.60409011875000 
 N -2.16921073750000 -6.11406338125000 -3.72383111875000 
 N -2.84142773750000 -6.51939838125000 8.864288125000308E-002
 N -0.282214737499997 -3.21078538125000 -2.53610711875000 
 N -2.50578073750000 -2.37121338125000 -3.54535311875000 
 N -2.94032373750000 -2.89428638125000 0.292576881250003 
 S -0.646168737499997 -6.57311538125000 -4.08999911875000 
 S -3.63483973750000 -6.29053538125000 -1.34568811875000 
 S -1.24355173750000 -7.01482838125000 -7.588011874999712E-002
 S -0.961781737499997 -2.71505938125000 -3.95891511875000 
 S -3.82668273750000 -2.52522738125000 -1.02491811875000 
 S -1.35100573750000 -3.28708438125000 8.438088125000309E-002
