16

 C -2.36995902812501 -6.34139899687500 -2.36472544687500 
 C -1.22579202812501 -6.94912499687500 -1.68347944687500 
 C -2.50440202812501 -2.59019899687500 -2.51121244687500 
 C -1.25374202812501 -3.04858299687500 -1.99825444687500 
 N -0.114036028125006 -7.19389299687500 -2.36321344687500 
 N -2.04948102812501 -6.13195399687500 -3.61566244687500 
 N -2.92472402812501 -6.27204199687500 0.151022553125001 
 N -0.263294028125006 -3.05381599687500 -2.85941944687500 
 N -2.45378002812501 -2.35598699687500 -3.81793044687500 
 N -2.93340102812501 -2.89080699687500 -9.589446874998853E-003
 S -0.491704028125007 -6.70185099687500 -3.89172244687500 
 S -3.64872502812501 -5.88688599687500 -1.33116644687500 
 S -1.38416402812501 -6.94190199687500 3.886255312500109E-002
 S -0.865276028125006 -2.51233899687500 -4.30484544687500 
 S -3.78456902812501 -2.37547899687500 -1.33665244687500 
 S -1.39061202812501 -3.38813399687500 -0.334003446874999 
