16

 C -2.48015380312500 -6.12792484062500 -2.43778638125000 
 C -1.26502080312500 -6.75415984062500 -1.86339938125000 
 C -2.55522380312500 -2.50842584062500 -2.43250638125000 
 C -1.42336880312500 -3.09307984062500 -1.74377438125000 
 N -0.252824803125000 -7.00642084062500 -2.67192738125000 
 N -2.33981880312500 -5.93668684062500 -3.72937938125000 
 N -2.82721880312500 -6.43071884062500 0.139674618749998 
 N -0.377187803125000 -3.35275784062500 -2.53999538125000 
 N -2.38876980312500 -2.30549384062500 -3.76568138125000 
 N -3.04327180312500 -2.40811084062500 7.550761874999856E-002
 S -0.748337803125000 -6.42148184062500 -4.11476838125000 
 S -3.77251080312500 -6.10311984062500 -1.26748338125000 
 S -1.31954380312500 -7.09237784062500 -0.115321381250002 
 S -0.898874803125000 -2.98252984062500 -4.04329338125000 
 S -3.79539580312500 -2.01272084062500 -1.33426638125000 
 S -1.59578480312500 -3.28177984062500 4.724618749998521E-003
