16

 C -2.49374990000000 -6.47685200312500 -2.34189393750000 
 C -1.30825790000000 -6.99680400312500 -1.71904093750000 
 C -2.48400390000000 -2.76859500312500 -2.50152393750000 
 C -1.34273190000000 -3.12478700312500 -1.81573693750000 
 N -0.258288900000000 -7.19577800312500 -2.52570793750000 
 N -2.33874990000000 -6.27775300312500 -3.63550193750000 
 N -3.14763890000000 -6.73715000312500 0.117552062500002 
 N -0.297065900000000 -3.25692700312500 -2.60080793750000 
 N -2.34769990000000 -2.46629400312500 -3.76700493750000 
 N -3.18147090000000 -3.04534100312500 -4.538793749999770E-002
 S -0.842014900000000 -6.73114400312500 -4.04033693750000 
 S -3.84404090000000 -6.43262600312500 -1.32897693750000 
 S -1.56632090000000 -7.18294800312500 -3.137893749999776E-002
 S -0.714735900000000 -2.87688500312500 -4.11823893750000 
 S -3.91365590000000 -2.69307100312500 -1.49611693750000 
 S -1.55335590000000 -3.33658200312500 -0.154011937499998 
