16

 C -2.48817640312500 -6.68685234687501 -2.23247758125000 
 C -1.23455840312500 -7.15128034687501 -1.66755758125000 
 C -2.23501940312500 -2.44696834687501 -2.48286358125000 
 C -1.08260140312500 -2.96093434687501 -1.81844858125000 
 N -0.223128403124997 -7.36485534687501 -2.54806058125000 
 N -2.41778240312500 -6.48358134687501 -3.52722458125000 
 N -3.01847540312500 -6.84594634687500 0.277980418750001 
 N -4.320440312499763E-002 -3.16456834687501 -2.59287558125000 
 N -2.00174940312500 -2.16402534687500 -3.76115958125000 
 N -3.01343440312500 -2.80067334687500 -0.103608581249998 
 S -0.834588403124997 -6.81377434687501 -4.01025058125000 
 S -3.69710940312500 -6.24231834687501 -1.09178458125000 
 S -1.35721440312500 -7.23242634687501 0.147317418750001 
 S -0.495092403124998 -2.73206034687500 -4.15122758125000 
 S -3.68674840312500 -2.42613034687500 -1.58826858125000 
 S -1.38672040312500 -3.15861534687501 -0.184704581249998 
