16

 C -2.47150714687500 -6.21963504375000 -2.69911805000000 
 C -1.25616314687500 -6.63473704375000 -2.01546805000000 
 C -2.43470514687500 -2.78491404375000 -2.58401405000000 
 C -1.25127114687500 -3.07760204375000 -1.87914405000000 
 N -0.166325146874996 -6.88045104375000 -2.78408105000000 
 N -2.26952014687500 -6.01502104375000 -3.99735805000000 
 N -3.16035714687500 -6.48610504375000 -0.188524050000000 
 N -0.150005146874997 -3.09184204375000 -2.64078005000000 
 N -2.36459014687500 -2.63488604375000 -3.93066205000000 
 N -3.10694814687500 -2.82379004375000 -3.325804999999948E-002
 S -0.651512146874997 -6.37240404375000 -4.33990505000000 
 S -3.82994514687500 -6.04716704375000 -1.62251405000000 
 S -1.55280114687500 -6.88055004375000 -0.311797050000000 
 S -0.743843146874997 -2.91513204375000 -4.20440805000000 
 S -3.85938514687500 -2.68929704375000 -1.52613205000000 
 S -1.44737314687500 -3.19396404375000 -0.117647050000000 
