16

 C -2.57287210000001 -6.24670613750000 -2.45047497812500 
 C -1.44351010000001 -6.80108313750000 -1.74179897812500 
 C -2.47327810000001 -3.06519913750000 -2.34419997812500 
 C -1.19194010000001 -3.32234213750000 -1.66533597812500 
 N -0.481999100000010 -7.28568813750000 -2.54194397812500 
 N -2.42849510000001 -6.31383413750000 -3.79549797812500 
 N -3.25433010000001 -6.31465813750000 4.702902187500069E-002
 N -0.170288100000010 -3.34462113750000 -2.51486197812500 
 N -2.38653410000001 -2.91869313750000 -3.66790897812500 
 N -2.98003410000001 -3.11997213750000 0.168831021875001 
 S -1.00036010000001 -7.04672713750000 -4.07157797812500 
 S -3.92024410000001 -5.83845513750000 -1.37115197812500 
 S -1.64864410000001 -6.75940413750000 -4.091978124999285E-003
 S -0.857869100000010 -3.20854513750000 -4.10771797812500 
 S -3.81607610000001 -3.10828913750000 -1.29175397812500 
 S -1.32800710000001 -3.29003213750000 6.896002187500061E-002
