16

 C -2.22566453437500 -6.82370386250000 -2.44318093125000 
 C -1.10754053437500 -7.42203086250000 -1.79137393125000 
 C -2.55920253437500 -2.62172586250000 -2.54770493125000 
 C -1.34489753437500 -3.00995686250000 -1.85116293125000 
 N -0.123329534375001 -7.77353786250000 -2.60834393125000 
 N -2.06889553437500 -6.62083386250000 -3.73886293125000 
 N -2.70072953437500 -6.85241086250000 9.276906875000113E-002
 N -0.346697534375001 -3.35025386250000 -2.63963593125000 
 N -2.48054753437500 -2.74161386250000 -3.86219793125000 
 N -3.28382453437500 -2.86634686250000 -0.131603931249999 
 S -0.641832534375001 -7.30822986250000 -4.08135993125000 
 S -3.53320553437500 -6.38052986250000 -1.34930493125000 
 S -1.20707053437500 -7.56917286250000 -0.137110931249999 
 S -0.867891534375001 -3.18805486250000 -4.18257293125000 
 S -3.91910153437500 -2.40555686250000 -1.60497993125000 
 S -1.64608453437500 -3.06761986250000 -0.141557931249999 
