16

 C -2.78514692812500 -6.43350259687500 -2.74641550625000 
 C -1.55466692812500 -6.75250259687500 -2.07810850625000 
 C -2.39175792812500 -2.85355959687500 -2.37556750625000 
 C -1.06853392812500 -3.19879759687500 -1.79863050625000 
 N -0.445685928125000 -6.73456559687500 -2.82200350625000 
 N -2.57270292812500 -6.06591159687500 -4.00029850625000 
 N -3.34137592812500 -6.88184359687500 -0.209026506250001 
 N -0.123612928125000 -3.31301659687500 -2.72687650625000 
 N -2.39852892812500 -2.79254659687500 -3.70822250625000 
 N -2.78484692812500 -2.98641459687500 0.139747493749999 
 S -0.956481928125000 -6.28168059687500 -4.36319550625000 
 S -4.07570792812500 -6.25938359687500 -1.60155750625000 
 S -1.67285092812500 -7.04703159687500 -0.326502506250001 
 S -0.847849928125000 -2.98371959687500 -4.22310850625000 
 S -3.66107792812500 -2.66081659687500 -1.25177850625000 
 S -1.15502492812500 -3.28084859687500 -0.114292506250001 
