16

 C -2.39014719062500 -6.54747903750000 -2.28064704687500 
 C -1.12862719062500 -7.01127203750000 -1.83526904687500 
 C -2.42939119062500 -2.69390903750000 -2.49682004687500 
 C -1.27872119062500 -3.26341703750000 -1.88005404687500 
 N -0.120755190624998 -7.09015703750000 -2.71193004687500 
 N -2.33210419062500 -6.33854903750000 -3.59795704687500 
 N -2.54726519062500 -6.57033203750000 0.244696953124998 
 N -0.349137190624998 -3.63825603750000 -2.74933204687500 
 N -2.32585819062500 -2.40375903750000 -3.81481804687500 
 N -3.03109619062500 -2.91702803750000 2.475295312499748E-002
 S -0.849565190624998 -6.68944203750000 -4.12181504687500 
 S -3.49686319062500 -6.09772403750000 -1.09919104687500 
 S -0.989686190624998 -6.96138403750000 -8.773904687500256E-002
 S -0.811280190624998 -2.99869503750000 -4.25577204687500 
 S -3.77112419062500 -2.37518603750000 -1.37771204687500 
 S -1.45593319062500 -3.37283803750000 -6.603904687500251E-002
