16

 C -2.35777496562500 -6.52135617500000 -2.54754887500000 
 C -1.11869396562500 -6.71653917500000 -1.83074887500000 
 C -2.41867396562500 -3.25233317500000 -2.12452987500000 
 C -1.07382896562500 -3.48082317500000 -1.56577187500000 
 N -8.632496562500513E-002 -6.93986117500000 -2.66181187500000 
 N -2.29759596562501 -6.47833317500000 -3.89271587500000 
 N -2.96470696562500 -6.55461817500000 -1.165387500000059E-002
 N -6.316796562500482E-002 -3.56436817500000 -2.46555087500000 
 N -2.45053296562500 -3.12740117500000 -3.47177487500000 
 N -2.78986696562500 -3.60900017500000 0.420087124999999 
 S -0.667401965625005 -6.71565417500000 -4.21802687500000 
 S -3.74875696562501 -6.27362217500000 -1.45248987500000 
 S -1.28807196562500 -6.81317117500000 -9.667787500000080E-002
 S -0.875740965625004 -3.39044017500000 -3.91428787500000 
 S -3.70417796562500 -3.36274717500000 -0.950548875000001 
 S -1.17022296562500 -3.67522017500000 0.208992124999999 
