16

 C -2.36423543437501 -6.42036574375000 -2.39562039062500 
 C -1.17851643437501 -6.67567674375000 -1.69291539062500 
 C -2.25556643437501 -2.85935274375000 -2.33767739062500 
 C -0.976616434375006 -3.22883774375000 -1.79828439062500 
 N -0.107483434375006 -6.76224474375000 -2.46102139062500 
 N -2.25015543437501 -6.43584074375000 -3.72665039062500 
 N -3.05587543437501 -6.45941074375000 8.386609374999576E-003
 N 7.140756562499462E-002 -3.35724274375000 -2.64318239062500 
 N -2.22283043437501 -2.72414574375000 -3.66769739062500 
 N -2.61099143437501 -3.24321274375000 0.218919609375000 
 S -0.636397434375006 -6.52166474375000 -4.02206939062500 
 S -3.84908643437501 -6.24532274375000 -1.46782639062500 
 S -1.42088843437501 -6.85506474375000 -5.717839062500030E-002
 S -0.615785434375006 -2.93491774375000 -4.14442139062500 
 S -3.51276943437501 -2.83507074375000 -1.14229739062500 
 S -0.966391434375006 -3.54422874375000 -5.306139062500037E-002
