16

 C -2.54930805624999 -6.20237138124999 -2.41620015937500 
 C -1.35901305624999 -6.85127238124999 -1.88557915937500 
 C -2.50363705625000 -2.44389938125000 -2.57882715937500 
 C -1.22042405625000 -2.83896038125000 -1.94416615937500 
 N -0.421785056249995 -7.16521738125000 -2.75828215937500 
 N -2.46265605624999 -6.05598938125000 -3.74148215937500 
 N -2.88342005624999 -6.30312638124999 0.109291840625001 
 N -0.314918056249994 -3.20474838124999 -2.82339215937500 
 N -2.45326905624999 -2.40127438125000 -3.89963615937500 
 N -3.05690005624999 -2.55721038124999 -0.114877159374999 
 S -0.952943056249995 -6.61131838124999 -4.22217415937500 
 S -3.72624205624999 -5.81284038124999 -1.24301215937500 
 S -1.45955905624999 -7.09421738125000 -0.179378159374999 
 S -0.925669056249995 -2.93285438124999 -4.27117615937500 
 S -3.81822805625000 -2.03828738124999 -1.52719915937500 
 S -1.43744905624999 -2.99381738125000 -0.175197159374999 
