16

 C -2.52145918750000 -6.27375245000000 -2.30924448437500 
 C -1.28341818750000 -6.55762345000000 -1.69223248437500 
 C -2.49516718750000 -2.50938745000000 -2.92681848437500 
 C -1.28448918750000 -2.85612645000000 -2.18606948437500 
 N -0.291234187500003 -6.75022345000000 -2.52690248437500 
 N -2.41192418750000 -6.04297245000000 -3.60270048437500 
 N -3.06140318750000 -6.80551845000000 0.138666515625000 
 N -0.203276187500004 -2.84242345000000 -2.96422848437500 
 N -2.31666718750000 -2.27305345000000 -4.22145248437500 
 N -3.12988918750000 -2.78726945000000 -0.424882484375000 
 S -0.839547187500004 -6.43269545000000 -4.08361548437500 
 S -3.87350418750000 -6.48659945000000 -1.26605148437500 
 S -1.37000518750000 -6.93010645000000 2.601251562499995E-002
 S -0.719215187500004 -2.58144845000000 -4.47803348437500 
 S -3.81922218750000 -2.43646545000000 -1.87699248437500 
 S -1.56729418750000 -3.10434745000000 -0.462848484375000 
