16

 C -2.49300940625000 -6.80820508125000 -2.25988485000000 
 C -1.20650340625000 -7.13915708125000 -1.75581685000000 
 C -2.65230840625000 -2.78761608125000 -2.44386185000000 
 C -1.40445140625000 -3.28270008125000 -1.81991185000000 
 N -0.236664406249997 -7.32740608125000 -2.66838985000000 
 N -2.50697640625000 -6.70855708125000 -3.58248885000000 
 N -2.74311640625000 -7.10639808125000 0.367347150000000 
 N -0.411216406249997 -3.51160908125000 -2.66835885000000 
 N -2.47916240625000 -2.44470308125000 -3.71368785000000 
 N -3.12457140625000 -3.20907908125000 0.150329150000000 
 S -0.997552406249997 -7.09836808125000 -4.11940685000000 
 S -3.71542340625000 -6.72630608125000 -0.984944850000000 
 S -1.14728340625000 -7.30442508125000 -9.055849999999976E-003
 S -0.987623406249997 -2.93794808125000 -4.19219385000000 
 S -3.88901740625000 -2.59553908125000 -1.21108885000000 
 S -1.51070740625000 -3.43204608125000 -0.110197850000000 
