16

 C -2.43838030937500 -6.80975396250001 -2.38937310312500 
 C -1.16716130937500 -7.01893696250001 -1.73509710312500 
 C -2.16414230937500 -2.79616396250001 -2.44222410312500 
 C -1.02034830937500 -3.27876296250001 -1.73488510312500 
 N -0.172630309374996 -6.90562596250001 -2.56551710312500 
 N -2.45476230937500 -6.50344596250001 -3.68652910312500 
 N -3.03220230937500 -7.08897896250001 0.129863896874999 
 N 8.638769062500451E-002 -3.49473496250001 -2.42622010312500 
 N -1.96657430937500 -2.85076596250001 -3.75504410312500 
 N -2.83761430937500 -3.06847796250001 4.432089687499907E-002
 S -0.820290309374996 -6.51783696250001 -4.09334810312500 
 S -3.82890330937500 -6.83863496250001 -1.32364810312500 
 S -1.36391430937500 -7.22038596250001 -2.290910312500083E-002
 S -0.330894309374996 -3.15328896250001 -3.96027510312500 
 S -3.53644730937500 -2.60433396250001 -1.41628110312500 
 S -1.30335630937500 -3.58767796250001 -1.892710312500090E-002
