16

 C -2.37146484062499 -6.63665003125000 -2.48464275000000 
 C -1.14638684062499 -7.07789003125000 -1.90545175000000 
 C -2.40405484062499 -2.96754503125000 -2.51566575000000 
 C -1.23363484062499 -3.47443303125000 -1.81117775000000 
 N -7.536684062499344E-002 -7.12929603125000 -2.68590575000000 
 N -2.24582384062499 -6.26653103125000 -3.75706275000000 
 N -2.86171784062499 -7.01000903125000 2.210724999999836E-002
 N -0.197684840624993 -3.74703703125000 -2.62021075000000 
 N -2.21358484062499 -2.70703303125000 -3.79467475000000 
 N -3.06028784062499 -3.21698803125000 -2.742275000000172E-002
 S -0.653745840624993 -6.58271403125000 -4.16442575000000 
 S -3.68763384062499 -6.61725203125000 -1.41186675000000 
 S -1.27343084062499 -7.35800303125000 -0.221554750000001 
 S -0.673115840624994 -3.27656303125000 -4.06479875000000 
 S -3.72864284062499 -2.66777003125000 -1.49911275000000 
 S -1.49937584062499 -3.71118303125000 -0.157068750000001 
