16

 C -2.39546405625000 -6.27773083125000 -2.41582432812500 
 C -1.23969505625000 -6.80521183125000 -1.79100932812500 
 C -2.52489905625000 -2.49338583125000 -2.34944932812500 
 C -1.38149805625000 -3.06184983125000 -1.71798632812500 
 N -0.282496056250001 -6.95533783125000 -2.65642132812500 
 N -2.32039205625000 -5.98195183125000 -3.67411832812500 
 N -2.95338605625000 -6.31743483125000 7.285767187500092E-002
 N -0.341703056250001 -3.27215483125000 -2.53481332812500 
 N -2.39524005625000 -2.40410583125000 -3.66893432812500 
 N -3.06976505625000 -2.57027783125000 0.158871671875001 
 S -0.835889056250001 -6.42812883125000 -4.15170532812500 
 S -3.77038905625000 -6.09128383125000 -1.32957932812500 
 S -1.40058705625000 -7.05916983125000 -0.110529328124999 
 S -0.834973056250001 -2.85451183125000 -4.08887532812500 
 S -3.74239105625000 -1.95622383125000 -1.27147232812500 
 S -1.57021805625000 -3.26443383125000 -7.268328124999002E-003
