16

 C -2.64118919687501 -6.48855588750000 -2.50975960000000 
 C -1.34269019687501 -6.82600888750000 -2.03756060000000 
 C -2.60245419687501 -2.79100288750000 -2.23505260000000 
 C -1.40474719687501 -3.30430888750000 -1.61075960000000 
 N -0.415422196875006 -7.11085088750000 -2.96123960000000 
 N -2.61504419687501 -6.36386088750000 -3.84072360000000 
 N -2.80390019687501 -6.57821888750000 9.826439999999925E-002
 N -0.370825196875006 -3.44998488750000 -2.41539160000000 
 N -2.48707319687501 -2.59103488750000 -3.53763160000000 
 N -3.25704619687501 -3.10536088750000 0.237528399999999 
 S -1.08627819687501 -6.71209988750000 -4.42336560000000 
 S -3.77616019687501 -6.40272788750000 -1.27429360000000 
 S -1.29189219687501 -7.08826088750000 -0.356056600000001 
 S -0.956530196875007 -3.14110888750000 -3.96565360000000 
 S -4.02119819687501 -2.59371688750000 -1.19243060000000 
 S -1.65512619687501 -3.56156488750000 0.107564399999999 
