16

 C -2.31186295937500 -6.53056550937500 -2.35185645000000 
 C -1.15107995937500 -7.10940250937500 -1.76290045000000 
 C -2.47233995937500 -2.80384350937500 -2.26089345000000 
 C -1.15532895937500 -3.18432850937500 -1.68506645000000 
 N -9.669395937499559E-002 -7.32893950937500 -2.58784045000000 
 N -2.22281295937500 -6.39840850937500 -3.69372445000000 
 N -2.80293195937500 -6.60653650937500 0.144888550000000 
 N -0.209437959374996 -3.43324750937500 -2.57987345000000 
 N -2.45523295937500 -2.66895850937500 -3.57524745000000 
 N -2.85758895937500 -2.93021650937500 0.268501550000000 
 S -0.698877959374996 -6.80673250937500 -4.10075845000000 
 S -3.62819095937500 -6.37185150937500 -1.26474545000000 
 S -1.33464195937500 -7.32238150937500 -1.433844999999967E-002
 S -0.996745959374996 -3.28221550937500 -4.11325645000000 
 S -3.81930395937500 -2.74324650937500 -1.10807145000000 
 S -1.21168895937500 -3.16084750937500 5.734255000000021E-002
