16

 C -2.47764897187500 -6.39921878125001 -2.50831773125000 
 C -1.26273797187500 -6.74946678125001 -1.86892373125000 
 C -2.72976997187500 -2.91324278125001 -2.54380773125000 
 C -1.59883197187500 -3.57105378125001 -1.90387473125000 
 N -0.180797971874999 -6.97911378125001 -2.59581773125000 
 N -2.33245597187500 -6.29222278125001 -3.81883873125000 
 N -3.14453997187500 -6.65331678125001 -6.019373124999916E-002
 N -0.517988971875000 -3.63503078125001 -2.67985373125000 
 N -2.52767297187500 -2.56264478125001 -3.82879173125000 
 N -3.36473997187500 -3.31679078125001 4.877268750000718E-003
 S -0.761960971874999 -6.68536078125001 -4.13751573125000 
 S -3.81621897187500 -6.19955378125001 -1.54943573125000 
 S -1.55050797187500 -7.02755978125001 -0.177888731249999 
 S -1.00400597187500 -3.10845278125001 -4.21464973125000 
 S -4.03858697187500 -2.74919478125001 -1.37533773125000 
 S -1.76435097187500 -3.79549078125001 -0.166468731249999 
