16

 C -2.65361845625000 -6.67261197500001 -2.25706636562500 
 C -1.44071445625000 -6.92898797500001 -1.57082436562500 
 C -2.29037045625000 -2.62199997500000 -2.47919736562500 
 C -1.17188845625000 -3.28699397500001 -1.78632336562500 
 N -0.353819456249997 -6.90760197500000 -2.34922536562500 
 N -2.46921045625000 -6.43022297500000 -3.55818336562500 
 N -3.20719845625000 -6.91761397500001 0.261308634375000 
 N -9.043645624999730E-002 -3.39163897500000 -2.56451336562500 
 N -2.11380745625000 -2.40571797500001 -3.78378236562500 
 N -3.02327645625000 -3.00034197500000 9.258634375000074E-003
 S -0.866693456249997 -6.58056897500001 -3.86257836562500 
 S -4.01306145625000 -6.65441397500001 -1.19997536562500 
 S -1.58358045625000 -7.20391997500001 0.148171634375000 
 S -0.583174456249997 -2.86600497500001 -4.08496536562500 
 S -3.63796445625000 -2.24731897500001 -1.38154436562500 
 S -1.48330645625000 -3.64668397500000 -6.127036562499977E-002
