16

 C -2.36077958125000 -6.54096786562500 -2.39135749062500 
 C -1.19336958125000 -7.14113886562500 -1.79443949062500 
 C -2.68797058125000 -2.76778286562500 -2.60843549062500 
 C -1.54825358125000 -3.34686086562500 -1.87601649062500 
 N -0.260789581249998 -7.37474586562500 -2.67932849062500 
 N -2.31687958125000 -6.30720086562500 -3.70551749062500 
 N -2.91093458125000 -6.97874986562500 0.152696509375000 
 N -0.429573581249998 -3.53575086562500 -2.59013649062500 
 N -2.39778558125000 -2.61631786562500 -3.89584549062500 
 N -3.42575358125000 -2.83375486562500 -6.839249062500041E-002
 S -0.789228581249998 -6.85632086562500 -4.17779449062500 
 S -3.67847758125000 -6.44610786562500 -1.20244349062500 
 S -1.38170958125000 -7.67794186562500 -0.182031490625000 
 S -0.887214581249998 -3.16059786562500 -4.19054549062500 
 S -4.13110358125000 -2.56242686562500 -1.58297149062500 
 S -1.85589058125000 -3.42170286562500 -8.187149062500043E-002
