16

 C -2.41184770000000 -6.36703634062500 -2.57739829375000 
 C -1.29318570000000 -6.70153434062500 -1.75200729375000 
 C -2.33772370000000 -2.69554234062500 -2.39819729375000 
 C -1.19870270000000 -3.24597934062500 -1.74788429375000 
 N -0.217413700000003 -6.97507034062500 -2.46163729375000 
 N -2.19465870000000 -6.38955734062500 -3.89127729375000 
 N -3.29384070000000 -6.44563134062500 -0.121817293749999 
 N -0.170577700000003 -3.53609734062500 -2.51511929375000 
 N -2.22615870000000 -2.57278934062500 -3.70274829375000 
 N -3.03878170000000 -2.86832434062500 7.616670625000066E-002
 S -0.585886700000004 -6.79683334062500 -4.07451429375000 
 S -3.90558170000000 -6.10240634062500 -1.59980929375000 
 S -1.66980670000000 -6.76080934062500 -6.526229374999937E-002
 S -0.699252700000003 -3.07637934062500 -4.11833829375000 
 S -3.65788770000000 -2.37604734062500 -1.36171729375000 
 S -1.43412670000000 -3.44137534062500 -4.732937499993817E-004
