16

 C -2.40684891250000 -6.61284099687500 -2.28692504687500 
 C -1.26176691250000 -7.12808099687500 -1.58108904687500 
 C -2.47370891250000 -2.51585799687500 -2.41759804687500 
 C -1.26043391250000 -3.03448999687500 -1.79495704687500 
 N -0.303998912499998 -7.45490799687500 -2.45620704687500 
 N -2.32425691250000 -6.59184299687500 -3.61217804687500 
 N -3.08028791250000 -6.45167299687500 0.180632953125000 
 N -0.223670912499998 -3.15375899687500 -2.61041304687500 
 N -2.32871591250000 -2.39003599687500 -3.72252504687500 
 N -3.12335891250000 -2.98275799687500 -4.803504687499993E-002
 S -0.856520912499999 -7.25426199687500 -4.03133604687500 
 S -3.73402591250000 -6.24690599687500 -1.29250704687500 
 S -1.58726391250000 -7.27203699687500 8.593895312500011E-002
 S -0.754457912499999 -2.69401299687500 -4.12137404687500 
 S -3.75831991250000 -2.19580499687500 -1.36824004687500 
 S -1.53196391250000 -3.35624999687500 -0.168586046875000 
