16

 C -2.61567601562500 -6.33669245937500 -2.45519027187500 
 C -1.33557501562500 -6.60157445937500 -1.82512927187500 
 C -2.61523501562500 -2.97855845937500 -2.32591227187500 
 C -1.31754901562500 -3.37240845937500 -1.68231327187500 
 N -0.367326015625004 -6.77606945937500 -2.70463527187500 
 N -2.59357301562500 -6.20056545937500 -3.77567127187500 
 N -3.12870401562500 -6.52291845937500 5.936272812499888E-002
 N -0.269201015625003 -3.46634745937500 -2.50666727187500 
 N -2.52762101562500 -2.86753645937500 -3.64420427187500 
 N -3.07370701562500 -3.03856445937500 0.182466728124999 
 S -0.992788015625004 -6.55765245937500 -4.24871627187500 
 S -3.96378701562500 -6.17539945937500 -1.34399827187500 
 S -1.48657801562500 -6.79476345937500 -0.102669271875001 
 S -0.909820015625003 -3.13150645937500 -4.03355427187500 
 S -3.87763701562500 -2.64617045937500 -1.19485927187500 
 S -1.46398401562500 -3.47329045937500 5.069372812499906E-002
