16

 C -2.37532948124999 -6.47752083750000 -2.53919285937500 
 C -1.15463948124999 -6.75201683750000 -1.77950485937500 
 C -2.62217848124999 -2.83498083750000 -2.46730585937500 
 C -1.43331548124999 -3.13554483750000 -1.73276585937500 
 N -8.881948124999450E-002 -6.92963783750000 -2.55583885937500 
 N -2.20547548124999 -6.44597783750000 -3.89296785937500 
 N -3.04492048124999 -6.49595783750000 -2.993985937500265E-002
 N -0.323274481249994 -3.05562183750000 -2.46758385937500 
 N -2.42911948124999 -2.60947583750000 -3.75327285937500 
 N -3.33546448124999 -3.08681983750000 -5.336859375002501E-003
 S -0.557131481249995 -6.65822283750000 -4.11047785937500 
 S -3.74782848124999 -6.23951583750000 -1.48680685937500 
 S -1.41426948124999 -6.80911483750000 -3.887485937500257E-002
 S -0.783564481249995 -2.84723083750000 -4.04670485937500 
 S -3.96353648124999 -2.49266783750000 -1.42044885937500 
 S -1.66839848124999 -3.31464683750000 -2.826685937500262E-002
