16

 C -2.50721634062500 -6.58100743437500 -2.49051772187500 
 C -1.30312934062500 -7.12244043437500 -1.87559172187500 
 C -2.67194434062500 -2.76593343437500 -2.51303972187500 
 C -1.55579034062500 -3.42565443437500 -1.82821172187500 
 N -0.270885340624996 -7.26241243437500 -2.64253872187500 
 N -2.32519534062500 -6.29630043437500 -3.77856072187500 
 N -3.00128234062500 -6.85609143437500 -5.594972187499758E-002
 N -0.519647340624996 -3.70619543437500 -2.62504972187500 
 N -2.52029634062500 -2.68571043437500 -3.82323672187500 
 N -3.46546534062500 -3.25840043437500 -9.862972187499741E-002
 S -0.735228340624996 -6.59568243437500 -4.10857172187500 
 S -3.82477134062500 -6.32952643437500 -1.49411172187500 
 S -1.39997634062500 -7.39510343437500 -0.130672721874997 
 S -1.00195234062500 -3.14657643437500 -4.16845072187500 
 S -4.09561234062500 -2.44098143437500 -1.45475072187500 
 S -1.84884034062500 -3.63722543437500 -0.142035721874997 
