16

 C -2.51654706562500 -6.56291802187500 -2.39290489687500 
 C -1.40041206562500 -7.19055802187500 -1.74566989687500 
 C -2.59148706562500 -2.65532202187500 -2.43191989687500 
 C -1.43557206562500 -3.28594102187500 -1.74708489687500 
 N -0.401122065625000 -7.42460902187500 -2.56765489687500 
 N -2.36231806562500 -6.35474202187500 -3.71512489687500 
 N -3.08435506562500 -6.58769202187500 9.388410312499818E-002
 N -0.480424065624999 -3.70742602187500 -2.58197489687500 
 N -2.41962106562500 -2.47108002187500 -3.72947489687500 
 N -3.17511006562500 -2.73455202187500 6.633310312499829E-002
 S -0.889430065625000 -7.00656202187500 -4.10875089687500 
 S -3.78439706562500 -6.12730702187500 -1.26016789687500 
 S -1.56749006562500 -7.23590302187500 -5.183989687500179E-002
 S -0.879129065624999 -3.05473202187500 -4.05654889687500 
 S -3.94058906562500 -2.37806902187500 -1.37477689687500 
 S -1.61151606562500 -3.33961602187500 -6.814896875001697E-003
