16

 C -2.44479648125000 -6.52316232187500 -2.43542588750000 
 C -1.20852648125000 -6.76828532187500 -1.73692088750000 
 C -2.18609648125000 -2.98004032187500 -2.25212788750000 
 C -0.893154481250001 -3.31506932187500 -1.69164388750000 
 N -7.971848125000047E-002 -6.76933232187500 -2.48591588750000 
 N -2.25768248125000 -6.39052132187500 -3.76611488750000 
 N -3.04291748125000 -6.51710532187500 5.095811249999893E-002
 N 4.164951874999900E-002 -3.30404132187500 -2.65126488750000 
 N -2.18521748125000 -2.65135932187500 -3.54467788750000 
 N -2.60529348125000 -3.23151632187500 0.265813112499999 
 S -0.636147481250001 -6.49995632187500 -4.02343188750000 
 S -3.77734248125000 -6.34164832187500 -1.41573188750000 
 S -1.44887548125000 -6.86128732187500 9.929112499998949E-003
 S -0.659566481250001 -2.98658332187500 -4.07482588750000 
 S -3.45193848125000 -2.85463832187500 -1.06870388750000 
 S -1.04491348125000 -3.52512232187500 -2.802188750000112E-002
