16

 C -2.68688644375000 -6.25139957187500 -2.27788394375000 
 C -1.48008344375000 -6.91602357187500 -1.79994694375000 
 C -2.43397244375000 -3.00264357187500 -2.35233394375000 
 C -1.30191744375000 -3.53319957187500 -1.68465494375000 
 N -0.555242443750001 -7.11855957187500 -2.72216594375000 
 N -2.63265544375000 -6.02223857187500 -3.57834194375000 
 N -3.10202044375000 -6.83436257187500 0.167581056249999 
 N -0.223358443750001 -3.75555557187500 -2.45112494375000 
 N -2.27201544375000 -2.70959057187500 -3.66019094375000 
 N -3.14896344375000 -3.18036557187500 0.124063056249999 
 S -1.17525144375000 -6.53825757187500 -4.13838194375000 
 S -3.91851644375000 -6.03806357187500 -1.07482694375000 
 S -1.55343844375000 -7.32420357187500 -0.139288943750000 
 S -0.735511443750001 -3.18157357187500 -3.92748994375000 
 S -3.78293844375000 -2.52613257187500 -1.28175994375000 
 S -1.60969144375000 -3.85647757187500 3.362705624999940E-002
