16

 C -2.35451909687500 -6.23329707812500 -2.21876341250000 
 C -1.19460609687500 -6.79453207812500 -1.50752541250000 
 C -2.32658609687500 -2.58278507812500 -2.14258441250000 
 C -1.12239209687500 -3.14593707812500 -1.56479241250000 
 N -0.165057096874999 -6.99124407812500 -2.30722741250000 
 N -2.13921209687500 -5.95652407812500 -3.50401141250000 
 N -2.98185409687500 -6.45444507812500 0.306127587500000 
 N -9.117009687499866E-002 -3.18334707812500 -2.42616041250000 
 N -2.21881909687500 -2.19382407812500 -3.39329941250000 
 N -3.01079809687500 -3.05228007812500 0.236195587500000 
 S -0.527680096874999 -6.35579507812500 -3.77854341250000 
 S -3.75094609687500 -6.12793807812500 -1.10553841250000 
 S -1.41125209687500 -7.16762107812500 0.136247587500000 
 S -0.617990096874999 -2.53859807812500 -3.81440741250000 
 S -3.69794109687500 -2.45707607812500 -1.17760541250000 
 S -1.38687709687500 -3.62538607812500 0.101413587500000 
