16

 C -2.53159611250000 -6.69098801875000 -2.38801474062500 
 C -1.44610111250000 -7.27748601875000 -1.66477974062500 
 C -2.51193611250000 -2.51539601875000 -2.39697174062500 
 C -1.39466311250000 -3.12563901875000 -1.79459874062500 
 N -0.444859112499997 -7.59527701875000 -2.45907774062500 
 N -2.36674811250000 -6.62802401875000 -3.68214774062500 
 N -3.07119411250000 -6.58330901875000 0.102391259374998 
 N -0.365498112499997 -3.36487501875000 -2.60591474062500 
 N -2.32716711250000 -2.26105101875000 -3.69948274062500 
 N -3.20259611250000 -2.96159201875000 7.305259374998485E-003
 S -0.766529112499997 -7.06996501875000 -4.00362674062500 
 S -3.82825811250000 -6.11066001875000 -1.31379474062500 
 S -1.50456811250000 -7.22702301875000 1.848225937499848E-002
 S -0.884265112499997 -3.00082601875000 -4.14255374062500 
 S -3.84222811250000 -2.27955901875000 -1.33102274062500 
 S -1.59679611250000 -3.34357001875000 -8.377474062500156E-002
