16

 C -2.28817040000000 -6.65807059375000 -2.35743893125000 
 C -0.970241400000004 -6.92165359375000 -1.87101193125000 
 C -2.60015440000000 -2.81326759375000 -2.46638293125000 
 C -1.41003440000000 -3.33041859375000 -1.77044593125000 
 N -9.664040000000451E-002 -6.93341659375000 -2.86706693125000 
 N -2.42511240000000 -6.49932459375000 -3.67564793125000 
 N -2.46763340000000 -6.96468759375000 0.182909068750003 
 N -0.327367400000004 -3.55095259375000 -2.52368093125000 
 N -2.36808840000000 -2.62505659375000 -3.77734493125000 
 N -3.17958640000000 -2.91766759375000 8.375606875000252E-002
 S -0.908100400000005 -6.72833759375000 -4.27715193125000 
 S -3.51131840000000 -6.79401759375000 -1.08435593125000 
 S -0.805756400000004 -7.14753859375000 -0.146808931249997 
 S -0.828912400000005 -3.08946259375000 -4.04500793125000 
 S -3.91886140000000 -2.49276559375000 -1.35052693125000 
 S -1.54669840000000 -3.43483359375000 5.904068750002489E-003
