16

 C -2.40267240937500 -6.70387669375000 -2.31790655625000 
 C -1.26265540937500 -7.16167969375000 -1.61393355625000 
 C -2.45811640937500 -2.46890369375000 -2.41951155625000 
 C -1.29427540937500 -2.99488869375000 -1.79953555625000 
 N -0.289357409375004 -7.48910369375000 -2.44987655625000 
 N -2.33941840937500 -6.55987369375000 -3.66120055625000 
 N -3.07743040937500 -6.46467469375000 0.217664443750000 
 N -0.281695409375003 -3.20489869375000 -2.61817555625000 
 N -2.35141540937500 -2.40986569375000 -3.71616855625000 
 N -3.16496140937500 -3.02439369375000 -6.817955624999961E-002
 S -0.855319409375004 -7.23821469375000 -4.02055255625000 
 S -3.74093440937500 -6.22223369375000 -1.30956855625000 
 S -1.60637440937500 -7.25261269375000 9.234944375000054E-002
 S -0.779146409375004 -2.73283969375000 -4.13762855625000 
 S -3.76712040937500 -2.18628569375000 -1.35611255625000 
 S -1.52374040937500 -3.36911769375000 -0.119614556250000 
