16

 C -2.38613359062500 -6.61275748125000 -2.45587344375000 
 C -1.17200259062500 -6.89323748125000 -1.77956844375000 
 C -2.30961559062500 -3.41151148125000 -2.23339244375000 
 C -1.02874259062500 -3.57947248125000 -1.55877244375000 
 N -0.110994590625000 -7.05145148125000 -2.56662744375000 
 N -2.22758159062500 -6.61616448125000 -3.77905544375000 
 N -2.88597459062500 -6.59088948125000 8.324655625000110E-002
 N -1.930059062499989E-002 -3.60935548125000 -2.41546644375000 
 N -2.26059159062500 -3.52736648125000 -3.54793444375000 
 N -2.93028359062500 -3.38632048125000 0.261620556250001 
 S -0.601957590625000 -6.88730548125000 -4.11100544375000 
 S -3.65746159062500 -6.29606148125000 -1.37698544375000 
 S -1.27325959062500 -6.90479548125000 -5.267644374999891E-002
 S -0.621159590625000 -3.58498948125000 -3.89541344375000 
 S -3.70395959062500 -3.21975948125000 -1.22218544375000 
 S -1.22964659062500 -3.53146348125000 0.218456556250001 
