16

 C -2.47897225625001 -6.82128336250001 -2.29442319687500 
 C -1.17614725625001 -7.15663136250001 -1.75990519687500 
 C -2.59603525625001 -2.76867536250001 -2.41668019687500 
 C -1.41826825625001 -3.29843936250001 -1.87230119687500 
 N -0.260390256250007 -7.34836136250001 -2.69348119687500 
 N -2.56574925625001 -6.70445536250001 -3.64576519687500 
 N -2.74794425625001 -7.04902436250001 0.321890803125000 
 N -0.376077256250007 -3.54775836250001 -2.69298319687500 
 N -2.51777125625001 -2.42703436250001 -3.72153019687500 
 N -3.17805025625001 -3.25149636250001 0.104877803125000 
 S -1.04319225625001 -7.07802336250001 -4.15479619687500 
 S -3.63954925625001 -6.76873536250001 -0.982220196875000 
 S -1.14632425625001 -7.30486236250001 -2.106919687500008E-002
 S -0.970981256250007 -2.95742236250001 -4.16582319687500 
 S -3.91446625625001 -2.61997236250001 -1.20650719687500 
 S -1.55659625625001 -3.44285936250001 -0.103070196875000 
