16

 C -2.33745581250000 -6.28845625625000 -2.28564078125000 
 C -1.19133481250000 -6.77421425625000 -1.59537678125000 
 C -2.31909081250000 -2.47994125625000 -2.11334178125000 
 C -1.15414181250000 -3.17459825625000 -1.63424478125000 
 N -0.162186812499998 -7.06655825625000 -2.38640578125000 
 N -2.20476281250000 -6.25193625625000 -3.62411578125000 
 N -3.01902681250000 -6.62807725625000 0.138854218749998 
 N -0.159464812499999 -3.28305325625000 -2.51623078125000 
 N -2.12992281250000 -1.94242325625000 -3.31624578125000 
 N -2.84857281250000 -3.43131025625000 0.191661218749998 
 S -0.640966812499999 -6.67386625625000 -3.92133778125000 
 S -3.74683581250000 -6.10624025625000 -1.29738378125000 
 S -1.41233781250000 -7.02782325625000 9.626921874999828E-002
 S -0.685176812499998 -2.40127325625000 -3.88966678125000 
 S -3.62176881250000 -2.49376425625000 -0.955645781250002 
 S -1.25484781250000 -3.81263925625000 -2.752978125000172E-002
