16

 C -2.70912681562501 -6.66355604062500 -2.24498956250000 
 C -1.47311681562501 -7.00629704062500 -1.57028656250000 
 C -2.30014581562501 -2.60472604062500 -2.44912156250000 
 C -1.11271181562501 -3.24973404062500 -1.75017156250000 
 N -0.355967815625007 -6.92903304062500 -2.29458256250000 
 N -2.49568081562501 -6.39796304062500 -3.53388456250000 
 N -3.21825381562501 -6.92510104062500 0.264671437500000 
 N -0.123813815625008 -3.43031704062500 -2.60623056250000 
 N -2.13891281562501 -2.38465804062500 -3.74173656250000 
 N -2.98854081562501 -2.97280304062500 2.872043750000031E-002
 S -0.839927815625007 -6.54343304062500 -3.82468956250000 
 S -4.01007581562501 -6.64237804062500 -1.18336756250000 
 S -1.59889781562501 -7.21637204062500 0.144905437500001 
 S -0.574761815625007 -2.84708904062500 -4.11545856250000 
 S -3.61447181562501 -2.25546904062500 -1.39019156250000 
 S -1.46466581562501 -3.63575204062500 -9.527656249999938E-002
