16

 C -2.55426912499999 -6.64270979375000 -2.38374658437500 
 C -1.33808012499999 -6.89016179375000 -1.66552558437500 
 C -2.67298712499999 -2.80331679375000 -2.48664958437500 
 C -1.43147112499999 -3.28832679375000 -1.91278458437500 
 N -0.287529124999995 -7.09990479375000 -2.48552358437500 
 N -2.41433712499999 -6.54361079375000 -3.70212858437500 
 N -3.13642112499999 -6.46449079375000 9.966741562500170E-002
 N -0.425811124999995 -3.41610079375000 -2.75529458437500 
 N -2.57289612499999 -2.71150879375000 -3.79766458437500 
 N -3.05350412499999 -2.88967479375000 4.517141562500160E-002
 S -0.850438124999995 -6.84375679375000 -4.02968358437500 
 S -3.92294712499999 -6.17825979375000 -1.36764658437500 
 S -1.51746312499999 -6.85213279375000 3.173141562500170E-002
 S -1.02344412499999 -2.99839379375000 -4.23789558437500 
 S -3.87689312499999 -2.49416279375000 -1.30399858437500 
 S -1.49675012499999 -3.36509179375000 -0.167646584374998 
