16

 C -2.39562932187499 -6.39866500937501 -2.46606375312500 
 C -1.13515232187499 -6.68157800937501 -1.80512575312500 
 C -2.27293732187499 -2.90899900937501 -2.43130575312500 
 C -1.05113232187500 -3.24313800937501 -1.84192075312500 
 N -0.143771321874995 -6.96836400937501 -2.64871875312500 
 N -2.28388332187499 -6.29708300937501 -3.79133475312500 
 N -2.86245332187499 -6.40100500937501 3.130324687500075E-002
 N -5.977932187499491E-002 -3.29794300937501 -2.70555875312500 
 N -2.30313632187499 -2.87826700937501 -3.76211975312500 
 N -2.71826332187499 -2.96324300937501 0.133670246875001 
 S -0.737389321874995 -6.71717600937501 -4.12393975312500 
 S -3.70019632187500 -6.22257700937501 -1.39547875312500 
 S -1.27914732187500 -6.85315700937501 -0.109807753124999 
 S -0.727019321874995 -3.17837300937501 -4.21916175312500 
 S -3.57877932187500 -2.72067300937501 -1.30714575312500 
 S -1.11588432187499 -3.46652100937501 -9.331875312499927E-002
