16

 C -2.25124560625000 -6.57410155000000 -2.19467142187500 
 C -1.02406360625000 -7.02538055000000 -1.63798742187500 
 C -2.42480260625000 -2.64166055000000 -2.23877342187500 
 C -1.26569260625000 -3.34797755000000 -1.72873142187500 
 N -2.697260624999664E-002 -7.21942755000000 -2.49125542187500 
 N -2.17245760625000 -6.29727855000000 -3.49919242187500 
 N -2.68110160625000 -6.93096155000000 0.332222578125000 
 N -0.342722606249996 -3.52852755000000 -2.65262442187500 
 N -2.34764760625000 -2.37644055000000 -3.53076042187500 
 N -2.96649060625000 -3.19241755000000 0.185311578125000 
 S -0.601500606249997 -6.68655655000000 -3.98490242187500 
 S -3.49920260625000 -6.41821255000000 -0.992597421875000 
 S -1.04824260625000 -7.24673955000000 9.401257812499986E-002
 S -0.812451606249996 -2.91040955000000 -4.09369942187500 
 S -3.74237760625000 -2.51082555000000 -1.12517842187500 
 S -1.34558660625000 -3.54626455000000 -5.094218750001378E-004
