16

 C -2.60104821875000 -6.29082569375000 -2.50003110625000 
 C -1.35053021875000 -6.66095169375000 -1.88900810625000 
 C -2.60993421875000 -3.00514669375000 -2.33854410625000 
 C -1.41721121875000 -3.33009269375000 -1.70300710625000 
 N -0.325242218750003 -6.81793969375000 -2.73167010625000 
 N -2.53653521875000 -6.24938769375000 -3.83696710625000 
 N -3.01496921875000 -6.45789769375000 6.711589375000115E-002
 N -0.382131218750003 -3.44674669375000 -2.52819410625000 
 N -2.54747421875000 -2.73856869375000 -3.65367910625000 
 N -3.11995921875000 -3.04047569375000 0.228174893750001 
 S -0.960694218750003 -6.53622869375000 -4.23380010625000 
 S -3.87078221875000 -6.17877369375000 -1.35259610625000 
 S -1.37406321875000 -6.71768669375000 -0.117824106249999 
 S -1.00783721875000 -3.17534269375000 -4.05007210625000 
 S -3.87839721875000 -2.64052769375000 -1.21079810625000 
 S -1.54379921875000 -3.44798769375000 3.957889375000101E-002
