16

 C -2.53886482500000 -6.43716650937500 -2.37412778750000 
 C -1.39200982500000 -7.10817250937499 -1.79652378750000 
 C -2.60754682500000 -2.74751550937499 -2.42256278750000 
 C -1.49236582500000 -3.34876650937499 -1.71092378750000 
 N -0.381985825000001 -7.37465350937499 -2.63597878750000 
 N -2.37494282500000 -6.30839150937499 -3.65842578750000 
 N -3.05158282500000 -6.59368650937499 0.101515212500001 
 N -0.549362825000001 -3.69668850937499 -2.55169778750000 
 N -2.42768482500000 -2.55718850937499 -3.72335178750000 
 N -3.18986182500000 -2.69697650937499 5.453221250000073E-002
 S -0.920310825000001 -6.97869250937499 -4.18198078750000 
 S -3.79712982500000 -6.12555850937499 -1.28200378750000 
 S -1.56410882500000 -7.26502950937499 -2.104078749999916E-002
 S -0.863534825000001 -3.09053350937499 -4.05912378750000 
 S -3.93311782500000 -2.39495750937499 -1.37030278750000 
 S -1.62766682500000 -3.34553150937499 2.994021250000078E-002
