16

 C -2.65904459687500 -6.40370141250000 -2.57186814687500 
 C -1.49346359687500 -6.89921641250000 -1.92634514687500 
 C -2.31922459687500 -2.85182741250000 -2.36366414687500 
 C -1.04954459687500 -3.29106741250000 -1.77996714687500 
 N -0.431236596875001 -6.99503141250000 -2.74035214687500 
 N -2.47111159687500 -6.13537541250000 -3.88059114687500 
 N -3.36061359687500 -6.66660341250000 -9.412714687500046E-002
 N -4.265259687500134E-002 -3.36453941250000 -2.64282814687500 
 N -2.20317059687500 -2.71571641250000 -3.67374514687500 
 N -2.74513059687500 -3.10088941250000 0.165413853125000 
 S -0.893281596875002 -6.52961241250000 -4.25807914687500 
 S -4.04831259687500 -6.36306441250000 -1.54454114687500 
 S -1.83039859687500 -7.30653341250000 -0.164973146875000 
 S -0.640413596875002 -3.05637041250000 -4.13638914687500 
 S -3.60173059687500 -2.70771641250000 -1.21977514687500 
 S -1.14745059687500 -3.56878341250000 -0.120299146875000 
