16

 C -2.22212137500000 -6.48286220000000 -2.48576734687500 
 C -1.08346537500000 -7.07407820000000 -1.84943234687500 
 C -2.45593237500000 -2.85141820000000 -2.37679134687500 
 C -1.27820337500000 -3.34246220000000 -1.65440034687500 
 N -0.125625374999998 -7.49519820000000 -2.66163434687500 
 N -2.07957237500000 -6.36746420000000 -3.78571534687500 
 N -3.00602437500000 -6.89333820000000 -0.104603346875002 
 N -0.202428374999998 -3.62348820000000 -2.42581634687500 
 N -2.30652937500000 -2.72993320000000 -3.70181034687500 
 N -2.96705137500000 -2.94473420000000 0.200137653124998 
 S -0.565785374999998 -6.89974620000000 -4.17824234687500 
 S -3.58862537500000 -6.17808020000000 -1.51699834687500 
 S -1.40706137500000 -7.29601920000000 -0.106919346875002 
 S -0.742830374999999 -3.20368020000000 -4.06187034687500 
 S -3.76881037500000 -2.67962020000000 -1.19983434687500 
 S -1.37264237500000 -3.40675320000000 -5.223468750019666E-004
