16

 C -2.36323762500000 -6.42302574687500 -2.46436192812500 
 C -1.13164262500000 -6.71391174687500 -1.79564192812500 
 C -2.49715962500000 -3.35726974687500 -2.10915192812500 
 C -1.07906762500000 -3.35926374687500 -1.62304292812500 
 N -7.073162500000230E-002 -6.91586374687500 -2.59489392812500 
 N -2.26339562500000 -6.32028574687500 -3.79883492812500 
 N -2.89081762500000 -6.55221274687500 9.222071874998461E-003
 N -0.160899625000003 -3.24291374687500 -2.58561392812500 
 N -2.59202462500000 -3.32197374687500 -3.45961692812500 
 N -2.62630762500000 -3.47726074687500 0.433691071874998 
 S -0.659243625000003 -6.63152474687500 -4.09727892812500 
 S -3.66053262500000 -6.22948374687500 -1.42705992812500 
 S -1.24241062500000 -6.96821974687500 -7.564492812500156E-002
 S -1.01513962500000 -3.28555774687500 -3.98252892812500 
 S -3.65937462500000 -3.29888374687500 -0.810935928125001 
 S -0.995312625000003 -3.55086874687500 6.736607187499843E-002
