16

 C -2.24562439687500 -6.46825565312500 -2.48426212187500 
 C -1.10463139687500 -7.08398265312500 -1.85549412187500 
 C -2.45587339687500 -2.83286765312500 -2.38012112187500 
 C -1.28110339687500 -3.33405765312500 -1.67293812187500 
 N -0.141383396874997 -7.49544365312500 -2.65575912187500 
 N -2.08711039687500 -6.37489565312500 -3.77448812187500 
 N -3.00617839687500 -6.89408465312500 -0.113844121874999 
 N -0.196185396874997 -3.60457465312500 -2.44281412187500 
 N -2.30911339687500 -2.73737865312500 -3.69680712187500 
 N -2.96326039687500 -2.95780965312500 0.207363878125001 
 S -0.557096396874997 -6.91480065312500 -4.17334112187500 
 S -3.59712039687500 -6.17441065312500 -1.51686212187500 
 S -1.40606139687500 -7.29030165312500 -0.115897121874999 
 S -0.744802396874997 -3.20312165312500 -4.06610312187500 
 S -3.77095039687500 -2.66914365312500 -1.20342712187500 
 S -1.38638339687500 -3.39660565312500 -1.491218749991585E-004
