16

 C -2.46560505937500 -6.61071518750001 -2.33390219687500 
 C -1.20787505937500 -6.96899918750001 -1.68874819687500 
 C -2.55242305937500 -2.87180118750001 -2.37417319687500 
 C -1.29315505937500 -3.23180118750001 -1.71866919687500 
 N -0.235158059375001 -7.04693118750001 -2.58946119687500 
 N -2.44666205937500 -6.41450718750001 -3.63470119687500 
 N -3.00881405937500 -6.95255418750001 0.163375803124999 
 N -0.269598059375001 -3.41793318750001 -2.61367819687500 
 N -2.46266105937500 -2.69647118750001 -3.70365019687500 
 N -2.98940005937500 -2.96531518750001 0.140313803124999 
 S -0.864621059375001 -6.68332918750001 -4.08305219687500 
 S -3.80729205937500 -6.49392818750001 -1.24467819687500 
 S -1.40435505937500 -7.21270118750001 2.600980312499890E-002
 S -0.869508059375002 -3.12286718750001 -4.06223419687500 
 S -3.85099805937500 -2.52165818750001 -1.23176419687500 
 S -1.44584805937500 -3.53306618750001 8.991803124998921E-003
