16

 C -2.35205984375001 -6.27712927187499 -2.66715360937500 
 C -1.22824284375001 -6.85205127187499 -1.94453660937500 
 C -2.49690384375001 -2.83604727187499 -2.57204260937500 
 C -1.29544084375001 -3.02430327187499 -1.88550260937500 
 N -0.142004843750009 -6.90628827187499 -2.74854860937500 
 N -2.14168884375001 -6.00597327187499 -3.95632460937500 
 N -3.08535084375001 -6.41606127187499 -0.246225609375000 
 N -0.207880843750008 -3.13533527187499 -2.63233160937500 
 N -2.32224684375001 -2.75344527187499 -3.88600660937500 
 N -3.06642984375001 -2.93211727187499 -8.520260937499979E-002
 S -0.574355843750008 -6.34934827187499 -4.22987560937500 
 S -3.75028284375001 -5.87676927187499 -1.70424260937500 
 S -1.46484284375001 -6.82467527187499 -0.239989609375000 
 S -0.670093843750008 -2.87334427187499 -4.20867960937500 
 S -3.85958284375001 -2.65772427187499 -1.50973560937500 
 S -1.48319984375001 -3.21389127187499 -0.176113609375000 
