16

 C -2.49931368750000 -6.30981012812500 -2.57408746875000 
 C -1.35279268750000 -6.85403912812500 -1.80280946875000 
 C -2.41833668750000 -2.50873912812500 -2.42349646875000 
 C -1.23256268750000 -3.02343012812500 -1.72301746875000 
 N -0.299970687499997 -7.12683612812500 -2.56047546875000 
 N -2.31625668750000 -6.23629212812500 -3.87866146875000 
 N -3.23835968750000 -6.57189212812500 -0.126235468749999 
 N -0.182534687499997 -3.21691712812500 -2.55589346875000 
 N -2.29982768750000 -2.37788012812500 -3.73811646875000 
 N -3.07624668750000 -2.53640612812500 2.059153125000091E-002
 S -0.727949687499997 -6.71538912812500 -4.12678646875000 
 S -3.86735268750000 -6.00385312812500 -1.55121946875000 
 S -1.61485568750000 -6.96346812812500 -9.595846874999925E-002
 S -0.742877687499997 -2.81242812812500 -4.04773146875000 
 S -3.80061668750000 -2.18038912812500 -1.42332046875000 
 S -1.47648468750000 -3.01934312812500 -6.000468749999044E-003
