16

 C -2.43503948125000 -6.34359942500000 -2.55628675937500 
 C -1.25594748125000 -6.84510842500000 -1.87707875937500 
 C -2.21654648125000 -2.85968042500000 -2.27968175937500 
 C -0.993229481250000 -3.43245642500000 -1.83619675937500 
 N -0.210747481250000 -7.06154642500000 -2.66083375937500 
 N -2.25691048125000 -6.09916142500000 -3.83717075937500 
 N -3.11849848125000 -6.49917542500000 -0.105990759375000 
 N 1.231051874999967E-002 -3.39836142500000 -2.70486075937500 
 N -2.13171448125000 -2.48678242500000 -3.55416275937500 
 N -2.57505448125000 -3.39395542500000 0.171403240625000 
 S -0.700048481250000 -6.52169542500000 -4.17534675937500 
 S -3.75329948125000 -5.89241242500000 -1.51660375937500 
 S -1.53873248125000 -7.03588042500000 -0.176780759375000 
 S -0.622278481250000 -2.88422742500000 -4.15525575937500 
 S -3.53135948125000 -2.97136042500000 -1.07790875937500 
 S -1.01746248125000 -3.96053642500000 -0.151981759375000 
