16

 C -2.59619235625000 -6.69066512812501 -2.39791537500000 
 C -1.36545835625000 -7.11719612812501 -1.72745037500000 
 C -2.47374935625000 -2.86391112812501 -2.36769537500000 
 C -1.23156535625000 -3.36296512812501 -1.80708337500000 
 N -0.291698356249996 -7.20419012812501 -2.50560537500000 
 N -2.45359835625000 -6.49891812812501 -3.73031637500000 
 N -3.07121235625000 -6.90488312812501 0.166783624999999 
 N -0.304935356249995 -3.61481412812501 -2.68368537500000 
 N -2.47785435625000 -2.64407612812501 -3.68098537500000 
 N -2.94530935625000 -3.17513012812501 0.168350624999999 
 S -0.825971356249996 -6.77306912812501 -4.02680837500000 
 S -3.93009835625000 -6.52401212812501 -1.24323337500000 
 S -1.48498335625000 -7.26502512812501 -1.644737500000115E-002
 S -0.949277356249995 -3.13159512812501 -4.15466037500000 
 S -3.75939835625000 -2.64767012812501 -1.16761937500000 
 S -1.35207635625000 -3.51809212812501 -5.947337500000094E-002
