16

 C -2.58115885937499 -6.21703768125000 -2.49075710312500 
 C -1.40186685937499 -6.81002368125000 -1.88271810312500 
 C -2.42289985937499 -2.37983668125000 -2.54072610312500 
 C -1.25805385937499 -2.96455768125000 -1.84365410312500 
 N -0.390707859374993 -7.11513968125000 -2.68426510312500 
 N -2.43576185937499 -6.07977968125000 -3.82591910312500 
 N -2.97028285937499 -6.30759068125000 6.639689687500128E-002
 N -0.273545859374994 -3.26095468125000 -2.63075510312500 
 N -2.30638285937499 -2.37609768125000 -3.85521410312500 
 N -3.06835385937499 -2.60345868125000 -3.589810312499897E-002
 S -0.935213859374993 -6.67706068125000 -4.19145710312500 
 S -3.80555185937499 -5.86506968125000 -1.33366110312500 
 S -1.50834385937499 -7.10904868125000 -0.164146103124999 
 S -0.836200859374993 -2.96125368125000 -4.26819210312500 
 S -3.75602085937499 -2.08142868125000 -1.45799710312500 
 S -1.45096785937499 -2.96553168125000 -0.155659103124999 
