16

 C -2.38336462500000 -6.30190944062500 -2.53866581562500 
 C -1.25557962500000 -6.90541744062500 -1.91060881562500 
 C -2.21669762500000 -2.83606944062500 -2.33237681562500 
 C -0.946616625000004 -3.44473744062500 -1.82340281562500 
 N -0.165499625000004 -7.03670444062500 -2.66971981562500 
 N -2.19256362500000 -6.08521144062500 -3.83111581562500 
 N -3.04878562500000 -6.53797844062500 -8.305581562499853E-002
 N 2.034537499999534E-002 -3.57070644062500 -2.72551681562500 
 N -2.20484962500000 -2.49885444062500 -3.62018681562500 
 N -2.57668962500000 -3.36497344062500 0.213519184375001 
 S -0.607157625000005 -6.53480844062500 -4.20972981562500 
 S -3.69611362500001 -5.95120644062500 -1.48010481562500 
 S -1.51371262500000 -7.04387644062500 -0.221749815624999 
 S -0.647272625000005 -2.86357544062500 -4.12867981562500 
 S -3.51945162500000 -2.92824544062500 -1.09784681562500 
 S -1.04275262500000 -3.90798744062500 -0.185013815624999 
