16

 C -2.43284986250000 -6.53025145000000 -2.54110054062499 
 C -1.24094386250000 -6.81141145000000 -1.84168954062499 
 C -2.37716986250000 -3.21331945000000 -2.11773354062499 
 C -1.14219886250000 -3.61412745000000 -1.49983154062499 
 N -0.180901862500002 -6.89932745000000 -2.65364354062500 
 N -2.35067586250000 -6.54852345000000 -3.88236554062499 
 N -2.93681086250000 -6.57468745000000 -5.262154062499458E-002
 N -0.154743862500002 -3.78860245000000 -2.37421454062499 
 N -2.25557886250000 -2.95792345000000 -3.40114454062499 
 N -2.88672786250000 -3.56099545000000 0.346232459375005 
 S -0.740583862500002 -6.79721345000000 -4.16310354062499 
 S -3.77585086250000 -6.36492945000000 -1.43631054062499 
 S -1.31140886250000 -6.77431845000000 -0.189143540624995 
 S -0.706223862500002 -3.35435045000000 -3.88899854062499 
 S -3.71399486250000 -3.31228945000000 -1.07616454062499 
 S -1.20491986250000 -3.72597845000000 0.198659459375005 
