16

 C -2.28771059687500 -6.14484722500000 -2.02192315000000 
 C -1.04905959687500 -6.68656222500000 -1.49421015000000 
 C -2.36200159687500 -2.68264822500000 -2.36890715000000 
 C -1.20226259687500 -3.15027822500000 -1.66873515000000 
 N -7.572759687500330E-002 -6.76688922500000 -2.38527715000000 
 N -2.23494359687500 -5.80184322500000 -3.32838815000000 
 N -2.67477059687500 -6.77885322500000 0.424361849999998 
 N -7.406059687500299E-002 -3.31843022500000 -2.39526015000000 
 N -2.15645859687500 -2.67194322500000 -3.69092815000000 
 N -3.12359359687500 -2.77546122500000 0.141094849999998 
 S -0.769111596875003 -6.35065822500000 -3.82823015000000 
 S -3.59871559687500 -6.13788722500000 -0.879372150000002 
 S -1.16244859687500 -7.26689722500000 5.091284999999801E-002
 S -0.626122596875003 -3.10839522500000 -4.01305115000000 
 S -3.74134659687500 -2.34619722500000 -1.38506215000000 
 S -1.55399559687500 -3.39319022500000 9.915084999999801E-002
