16

 C -2.22742755312500 -6.28063754374999 -2.34214541562500 
 C -0.997299553124996 -6.77091454374999 -1.80961741562500 
 C -2.76287655312500 -2.58070354374999 -2.48581541562500 
 C -1.56359155312500 -3.01037954374999 -1.83024041562500 
 N 2.275844687500417E-002 -6.95729654374999 -2.65261441562500 
 N -2.19213955312500 -6.07813254374999 -3.66207641562500 
 N -2.57349255312500 -6.65475054374999 0.219965584374998 
 N -0.486697553124996 -3.19807954374999 -2.63032941562500 
 N -2.60601155312500 -2.30042954374999 -3.77890241562500 
 N -3.36018855312500 -2.94932354374999 -7.677641562500170E-002
 S -0.642853553124996 -6.45970854374999 -4.11792041562500 
 S -3.45688755312500 -6.24184054374999 -1.07568341562500 
 S -1.00359655312500 -7.23027954374999 -7.266141562500161E-002
 S -1.09336055312500 -2.70883554374999 -4.19560041562500 
 S -4.07288955312500 -2.33867754374999 -1.41956041562500 
 S -1.78749555312500 -3.34500954374999 -0.190684415625002 
