16

 C -2.44451931250000 -6.49731781562500 -2.36319536562500 
 C -1.21897631250000 -6.82014781562500 -1.74159236562500 
 C -2.21403731250000 -2.91963181562500 -2.15947136562500 
 C -0.951891312499998 -3.28837381562500 -1.51933736562500 
 N -0.126555312499998 -6.85229081562500 -2.51373936562500 
 N -2.24640731250000 -6.33618481562500 -3.67554936562500 
 N -2.98772431250000 -6.74789881562500 0.132540634375000 
 N -2.677031249999828E-002 -3.43953581562500 -2.47743336562500 
 N -2.24008231250000 -2.79856681562500 -3.50002936562500 
 N -2.69147431250000 -3.25053381562500 0.336536634375000 
 S -0.655544312499998 -6.50829081562500 -4.06423536562500 
 S -3.83993431250000 -6.45666881562500 -1.34595636562500 
 S -1.36347631250000 -6.87917281562500 3.082863437499950E-002
 S -0.662312312499998 -3.06824981562500 -3.97588636562500 
 S -3.56013731250000 -2.90422481562500 -1.04572736562500 
 S -1.00045531250000 -3.59006581562500 0.203992634375000 
