16

 C -2.51257001875000 -6.50934361562500 -2.41723153437500 
 C -1.30524101875000 -6.98829261562500 -1.75986453437500 
 C -2.56964301875000 -3.18771961562500 -2.39887753437500 
 C -1.30396901875000 -3.49170861562500 -1.77301953437500 
 N -0.224533018750001 -7.04558361562500 -2.53598553437500 
 N -2.38894901875000 -6.23180161562500 -3.70938453437500 
 N -3.01733801875000 -6.80107561562500 0.134610465625000 
 N -0.227535018750001 -3.51626861562500 -2.62220853437500 
 N -2.46672101875000 -2.92386161562500 -3.69261553437500 
 N -3.04088501875000 -3.30391361562500 0.127378465625000 
 S -0.824164018750000 -6.63190061562500 -4.04580253437500 
 S -3.86415801875000 -6.27940061562500 -1.22588153437500 
 S -1.41354601875000 -7.00598461562500 -4.024153437500022E-002
 S -0.919475018750001 -3.07119861562500 -4.17952153437500 
 S -3.88807201875000 -3.13024761562500 -1.26396153437500 
 S -1.39898501875000 -3.71731361562500 -7.519753437499999E-002
