16

 C -2.23980864062500 -6.40415268125000 -2.36130662187500 
 C -0.957253640625004 -6.72547568125000 -1.79197162187500 
 C -2.53124164062500 -2.66869768125000 -2.31665762187500 
 C -1.32230664062500 -3.14079168125000 -1.70680662187500 
 N 5.434935937499574E-002 -6.90396968125000 -2.64087362187500 
 N -2.14839664062500 -6.22184468125000 -3.67800962187500 
 N -2.72526064062500 -6.84626468125000 0.107477378125001 
 N -0.268280640625004 -3.22851568125000 -2.53418362187500 
 N -2.49232664062500 -2.43086968125000 -3.63775062187500 
 N -3.07226664062500 -3.04670868125000 0.168432378125001 
 S -0.583518640625004 -6.51770068125000 -4.10586162187500 
 S -3.53129264062500 -6.29175768125000 -1.26497062187500 
 S -1.08436164062500 -6.99115668125000 -6.887062187499882E-002
 S -0.917317640625004 -2.82291268125000 -4.02088662187500 
 S -3.91652664062500 -2.53637968125000 -1.18851062187500 
 S -1.45502964062500 -3.24760168125000 1.099937812500107E-002
