16

 C -2.64222662187500 -6.33103906250000 -2.50979898125000 
 C -1.36547162187500 -6.90069006250000 -2.09769998125000 
 C -2.69689362187500 -3.08185406250000 -2.34896398125000 
 C -1.50144262187500 -3.46289006250000 -1.59264298125000 
 N -0.416147621874999 -7.03708206250000 -3.03591498125000 
 N -2.73301862187500 -6.19342306250000 -3.80901098125000 
 N -2.89619662187500 -6.74879706250000 -1.011898125000021E-002
 N -0.423956621874999 -3.63651506250000 -2.34081598125000 
 N -2.45154262187500 -2.96214206250000 -3.64637298125000 
 N -3.38081762187500 -2.98698406250000 0.131953018750000 
 S -1.20006662187500 -6.48362406250000 -4.38844898125000 
 S -3.73717962187500 -6.04965906250000 -1.25952298125000 
 S -1.35445762187500 -7.16468206250000 -0.324858981250000 
 S -0.905132621875000 -3.40796906250000 -3.92868298125000 
 S -4.09101162187500 -2.70095806250000 -1.35117898125000 
 S -1.80779462187500 -3.34843406250000 8.058001874999965E-002
