16

 C -2.79559641875000 -6.41175742187501 -2.47928487812500 
 C -1.60531141875000 -6.85462142187501 -1.79350387812500 
 C -2.27388241875000 -2.88047142187501 -2.22383887812500 
 C -1.07777841875000 -3.26112842187501 -1.63516087812500 
 N -0.524781418749999 -6.92613742187501 -2.58527587812500 
 N -2.62401841875000 -6.18996942187501 -3.79769587812500 
 N -3.38622441875000 -6.58763042187501 3.738312187499915E-002
 N -5.163541874999922E-002 -3.36024542187501 -2.47726187812500 
 N -2.18028641875000 -2.71826642187501 -3.53150787812500 
 N -2.84656641875000 -3.12723042187501 0.253497121874999 
 S -1.04396541875000 -6.45873442187501 -4.08452187812500 
 S -4.15807241875000 -6.07679942187501 -1.35122787812500 
 S -1.77687241875000 -7.00007042187501 -7.334187812500081E-002
 S -0.671284418749999 -3.13767842187501 -4.00056487812500 
 S -3.67331841875000 -2.87303842187501 -1.19303087812500 
 S -1.22416041875000 -3.49968942187501 0.121557121874999 
