16

 C -2.42674334375000 -6.38558554062500 -2.56761545000000 
 C -1.29476234375000 -6.85274354062500 -1.83041345000000 
 C -2.53117334375000 -2.45596154062500 -2.45645745000000 
 C -1.33133534375000 -2.86248854062500 -1.74944945000000 
 N -0.122181343749999 -7.07732054062500 -2.46430545000000 
 N -2.14818734375000 -6.23959554062500 -3.87800845000000 
 N -3.24190734375000 -6.58513454062500 -9.116545000000187E-002
 N -0.263194343750000 -2.94379854062500 -2.50502745000000 
 N -2.43098134375000 -2.42306154062500 -3.78270445000000 
 N -3.16933734375000 -2.60145254062500 0.101045549999998 
 S -0.556192343749999 -6.70120854062500 -4.05833645000000 
 S -3.86413634375000 -6.09985754062500 -1.54717945000000 
 S -1.62166934375000 -6.96319154062500 -0.101089450000002 
 S -0.817046343750000 -2.70201854062500 -4.10408845000000 
 S -3.95196534375000 -2.32466354062500 -1.34809245000000 
 S -1.53988534375000 -3.05697154062500 -1.416450000001568E-003
