16

 C -2.53606417187500 -6.65727132500000 -2.31044817187500 
 C -1.30957817187500 -7.13241832500000 -1.69551617187500 
 C -2.46889217187500 -2.95481532500000 -2.37197417187500 
 C -1.20107217187500 -3.44134032500000 -1.87760817187500 
 N -0.344302171875001 -7.29074732500000 -2.60634917187500 
 N -2.45329317187500 -6.44704832500000 -3.60029917187500 
 N -3.12747717187500 -6.77426532500000 0.135748828125000 
 N -0.284433171875001 -3.70745532500000 -2.83388317187500 
 N -2.45991017187500 -2.69882532500000 -3.64715017187500 
 N -2.78630517187500 -3.34091932500000 0.136739828125000 
 S -0.957756171875001 -6.99945532500000 -4.10742817187500 
 S -3.92679517187500 -6.60034932500000 -1.27130117187500 
 S -1.52608517187500 -7.29454832500000 2.070082812500029E-002
 S -0.935350171875001 -3.18053532500000 -4.16234417187500 
 S -3.66177517187500 -2.73429032500000 -1.14898417187500 
 S -1.23397117187500 -3.72309632500000 -0.141045171875000 
