16

 C -2.59543732812500 -6.28359212812500 -2.37375491875000 
 C -1.44123732812499 -7.04124912812500 -1.89340691875000 
 C -2.46756832812499 -2.71947512812500 -2.26945891875000 
 C -1.35070732812500 -3.36910412812500 -1.67693691875000 
 N -0.532360328124995 -7.21567912812500 -2.83224091875000 
 N -2.53062132812499 -5.99156012812500 -3.65733091875000 
 N -3.05032332812500 -6.62477712812500 6.967208125000091E-002
 N -0.348726328124995 -3.72783912812500 -2.49568891875000 
 N -2.28005632812499 -2.39607312812500 -3.56226091875000 
 N -3.06067632812500 -2.98136112812500 0.248988081250001 
 S -1.07880232812500 -6.51032912812500 -4.19382891875000 
 S -3.88540032812500 -5.98368312812500 -1.24147291875000 
 S -1.53540132812499 -7.32066812812500 -0.202644918749999 
 S -0.839262328124995 -3.16864512812500 -3.96367091875000 
 S -3.78237432812500 -2.42783112812500 -1.13287991875000 
 S -1.57401332812500 -3.74690012812500 6.475108125000095E-002
