16

 C -2.58603263749999 -6.47419858437500 -2.28967655625000 
 C -1.36368863749999 -6.94374658437500 -1.62131555625000 
 C -2.43824863749999 -2.85835358437500 -2.17898055625000 
 C -1.16984563749999 -3.20814658437500 -1.57039555625000 
 N -0.372932637499995 -7.06920058437500 -2.47886355625000 
 N -2.49185163749999 -6.24680858437500 -3.60260455625000 
 N -3.14344263749999 -6.67609658437500 0.304548443750000 
 N -0.199308637499994 -3.53423358437500 -2.39687055625000 
 N -2.38826563749999 -2.82665558437500 -3.50250755625000 
 N -2.86602763749999 -2.94986458437500 0.313507443750000 
 S -0.894096637499994 -6.59494558437500 -3.99385655625000 
 S -3.86696463749999 -6.31667258437500 -1.10268955625000 
 S -1.55544063749999 -7.09633358437500 0.144807443750000 
 S -0.805415637499994 -3.19018658437500 -3.92450655625000 
 S -3.79505963749999 -2.71048758437500 -1.06251655625000 
 S -1.24724163749999 -3.38819358437500 0.128404443750000 
