16

 C -2.57003721249999 -6.30516336874999 -2.45008910625000 
 C -1.29962821249999 -6.59363036874999 -1.80624410625000 
 C -2.76614421249999 -2.62067136874999 -2.58507010625000 
 C -1.51901221249999 -3.03931436874999 -2.01539510625000 
 N -0.267518212499994 -6.72786336874999 -2.63991510625000 
 N -2.47786721249999 -6.15233436874999 -3.77684710625000 
 N -3.15295621249999 -6.58943136874999 3.003893750000319E-003
 N -0.531210212499993 -3.07480436874999 -2.87934810625000 
 N -2.70261921249999 -2.49734136874999 -3.89992110625000 
 N -3.21211721249999 -3.12164936874999 -5.564010624999982E-002
 S -0.889531212499993 -6.42858736874999 -4.18061010625000 
 S -3.94255221249999 -6.41919936874999 -1.46962110625000 
 S -1.53187821249999 -6.89424036874999 -0.101453106250000 
 S -1.08087821249999 -2.74757836874999 -4.31034410625000 
 S -4.02616821249999 -2.43764636874999 -1.32804710625000 
 S -1.56351821249999 -3.36700036874999 -0.268435106250000 
