16

 C -2.55789279687500 -6.36864687812500 -2.38348305000000 
 C -1.31010679687500 -6.65362687812500 -1.76003305000000 
 C -2.49921679687500 -2.35981587812500 -2.87293905000000 
 C -1.33250879687500 -2.87840787812500 -2.16655005000000 
 N -0.231484796874996 -6.71695087812500 -2.55596205000000 
 N -2.40701179687500 -6.17439287812500 -3.68754105000000 
 N -3.00916879687500 -6.56888387812500 0.172596949999998 
 N -0.231154796874996 -3.06369787812500 -2.88556905000000 
 N -2.20097479687500 -2.12871487812500 -4.13244205000000 
 N -3.27861379687500 -2.73114287812500 -0.423199050000002 
 S -0.815919796874996 -6.42633987812500 -4.06639705000000 
 S -3.88299879687500 -6.53664787812500 -1.30227005000000 
 S -1.41181179687500 -6.88351087812500 -5.122305000000194E-002
 S -0.633927796874996 -2.50367587812500 -4.39771005000000 
 S -3.99494879687500 -2.15191887812500 -1.88686405000000 
 S -1.65337979687500 -3.16542387812500 -0.475119050000002 
