16

 C -2.47415581249999 -6.42365214687500 -2.34431270312500 
 C -1.23365381249999 -6.79469414687500 -1.75555670312500 
 C -2.46354481249999 -2.94956114687500 -2.57524470312500 
 C -1.17278881249999 -3.28373414687500 -1.95492870312500 
 N -0.164732812499994 -6.83229614687500 -2.55656770312500 
 N -2.33411381249999 -6.10025914687500 -3.62916370312500 
 N -2.85537681249999 -6.87199514687500 0.206904296875001 
 N -0.230829812499994 -3.31728614687500 -2.90741270312500 
 N -2.43070881249999 -2.60250214687500 -3.83053670312500 
 N -2.95195481249999 -3.24898614687500 -3.966070312499914E-002
 S -0.728866812499994 -6.49862014687500 -4.08822470312500 
 S -3.76376781249999 -6.49221614687500 -1.17712270312500 
 S -1.25114881249999 -7.13719214687500 -5.818070312499923E-002
 S -0.828187812499994 -2.80486414687500 -4.28513170312500 
 S -3.80574981249999 -2.94056214687500 -1.42512970312500 
 S -1.31308881249999 -3.55385614687500 -0.210218703124999 
