16

 C -2.54178190937500 -6.57682651562500 -2.26213323125000 
 C -1.26741190937500 -6.80543551562500 -1.65953623125000 
 C -2.34662890937500 -2.72338351562500 -2.41734123125000 
 C -1.25090890937500 -3.21092751562500 -1.74092423125000 
 N -0.232890909374999 -6.82916651562500 -2.48407823125000 
 N -2.50999490937500 -6.56647551562500 -3.57415423125000 
 N -3.09970890937500 -6.86365651562500 0.210297768749999 
 N -0.160939909374999 -3.44465451562500 -2.47049123125000 
 N -2.16117190937500 -2.46227851562500 -3.71409123125000 
 N -3.15192390937500 -3.09640851562500 4.987768749998400E-003
 S -0.916787909375000 -6.73332851562500 -4.04363523125000 
 S -3.91902790937500 -6.75542951562500 -1.23541723125000 
 S -1.50110790937500 -7.15085551562500 5.289476874999854E-002
 S -0.560129909374999 -2.95182651562500 -4.01382423125000 
 S -3.69984990937500 -2.31525251562500 -1.39120323125000 
 S -1.59263990937500 -3.57801551562500 -0.111439231250001 
