16

 C -2.21067070625000 -6.47553324375000 -2.52048915625000 
 C -1.03405270625000 -7.00830224375000 -1.85682615625000 
 C -2.64308970625000 -2.33491524375000 -2.43136015625000 
 C -1.56239070625000 -3.05721624375000 -1.75392715625000 
 N -1.954706250002936E-003 -7.29087924375000 -2.65732415625000 
 N -2.01516170625000 -6.32754024375000 -3.84694515625000 
 N -2.75262870625000 -6.53092824375000 -2.057615624999887E-002
 N -0.559703706250003 -3.24251824375000 -2.57674215625000 
 N -2.46267670625000 -2.17770224375000 -3.72958515625000 
 N -3.25008670625000 -2.57250624375000 6.273184375000107E-002
 S -0.516118706250003 -6.84575124375000 -4.15832215625000 
 S -3.45998070625000 -6.11774724375000 -1.44428415625000 
 S -1.29980470625000 -7.35175224375000 -0.129630156249999 
 S -0.997521706250003 -2.85310724375000 -4.08772015625000 
 S -3.86398370625000 -1.86741524375000 -1.31396615625000 
 S -1.71880670625000 -3.17971324375000 -5.450915624999864E-002
