16

 C -2.29006257812500 -6.35341471249999 -2.40201561562500 
 C -1.12660857812500 -7.00339071249999 -1.80170161562500 
 C -2.24580657812500 -2.64413371249999 -2.46481061562500 
 C -1.15642557812500 -3.23385671249999 -1.75501061562500 
 N -0.147992578124997 -7.31054871249999 -2.65220661562500 
 N -2.15224357812500 -6.10761071249999 -3.69848561562500 
 N -2.76165057812500 -6.66262671249999 0.201048384375000 
 N -3.236757812499746E-002 -3.36473371249999 -2.45304861562500 
 N -2.01488557812500 -2.43444771249999 -3.75049861562500 
 N -3.05688557812500 -2.91878971249999 4.742338437499938E-002
 S -0.622876578124997 -6.75802571249999 -4.14693861562500 
 S -3.51829657812500 -6.18622171249999 -1.18946661562500 
 S -1.20942657812500 -7.22195471249999 -0.102843615625000 
 S -0.463952578124998 -2.93343771249999 -4.04119561562500 
 S -3.60650057812500 -2.42482971249999 -1.40858461562500 
 S -1.41559357812500 -3.27917171249999 -1.916961562500052E-002
