16

 C -2.53992832187500 -6.27609087499999 -2.42591686562500 
 C -1.39561832187500 -6.95171087499999 -1.87810086562500 
 C -2.66312432187500 -2.90223487499999 -2.34555586562500 
 C -1.44008132187500 -3.29065187499999 -1.63066286562500 
 N -0.452142321875001 -7.15461087499999 -2.77799886562500 
 N -2.53772432187500 -6.11948887499999 -3.72743486562500 
 N -2.94075032187500 -6.70983087499999 3.854413437500037E-002
 N -0.430171321875001 -3.58692287499999 -2.40330486562500 
 N -2.47759632187500 -2.96164387499999 -3.64260886562500 
 N -3.26797932187500 -2.71954487499999 6.315313437500025E-002
 S -1.06571732187500 -6.72430987499999 -4.24755086562500 
 S -3.78168232187500 -6.03823387499999 -1.23641186562500 
 S -1.46498732187500 -7.24402287499999 -0.265288865625000 
 S -0.913565321875001 -3.37541187499999 -3.97091286562500 
 S -4.02127832187500 -2.48636787499999 -1.39599086562500 
 S -1.75770732187500 -3.44453387499999 6.077413437500034E-002
