16

 C -2.60430079375000 -6.59436728437500 -2.35517777812500 
 C -1.37651079375000 -6.79085728437500 -1.66926377812500 
 C -2.27917579375000 -2.97964828437500 -2.46907277812500 
 C -1.06080579375000 -3.37531328437500 -1.85307177812500 
 N -0.326301793750002 -6.85431428437500 -2.50741577812500 
 N -2.52284779375000 -6.44563828437500 -3.68168477812500 
 N -3.07445879375000 -7.07881328437500 0.148262221875000 
 N -5.788679375000161E-002 -3.65842528437500 -2.69570077812500 
 N -2.23568479375000 -2.91784628437500 -3.79119577812500 
 N -2.79980879375000 -2.98955228437500 4.415822187499985E-002
 S -0.932222793750001 -6.61153328437500 -3.97882577812500 
 S -3.96074879375000 -6.90615228437500 -1.26152077812500 
 S -1.39983479375000 -7.14263928437500 -3.710477812500024E-002
 S -0.684774793750002 -3.21953628437500 -4.22596977812500 
 S -3.56834379375000 -2.86600428437500 -1.39642777812500 
 S -1.13181679375000 -3.35402828437500 -7.945977812500016E-002
