16

 C -2.39035705312500 -6.49230725937500 -2.29079005625000 
 C -1.11288705312500 -6.85424025937500 -1.69539205625000 
 C -2.35558305312500 -2.55418425937500 -2.37674705625000 
 C -1.21223305312500 -3.16949625937500 -1.76198405625000 
 N -5.844405312500101E-002 -6.99682925937500 -2.49618205625000 
 N -2.29907505312500 -6.25608925937500 -3.61584605625000 
 N -2.86741805312500 -6.61410425937500 0.181012943750000 
 N -0.208014053125001 -3.43668425937500 -2.57836505625000 
 N -2.28501105312500 -2.33800725937500 -3.68459405625000 
 N -2.98243905312500 -3.05216225937500 6.670794375000000E-002
 S -0.702453053125002 -6.61724225937500 -3.95136705625000 
 S -3.74527405312500 -6.37131525937500 -1.16375205625000 
 S -1.31690105312500 -7.36305425937500 -1.804105625000019E-002
 S -0.710759053125001 -2.81440125937500 -4.08882705625000 
 S -3.69228005312500 -2.36367425937500 -1.24874405625000 
 S -1.45496805312500 -3.50517825937500 -0.140481056250000 
