16

 C -2.50578285625000 -6.16954155312500 -2.42486279062500 
 C -1.26676085625000 -6.63881655312500 -1.82369479062500 
 C -2.43938085625000 -3.07960855312500 -2.55873179062500 
 C -1.20545085625000 -3.33516055312500 -1.86404679062500 
 N -0.320700856250003 -6.86493355312500 -2.76294879062500 
 N -2.49556985625000 -6.09892955312500 -3.76469279062500 
 N -2.96452385625000 -6.30097155312500 6.022820937500084E-002
 N -9.090085625000288E-002 -3.57353555312500 -2.59096579062500 
 N -2.25332685625000 -2.97561655312500 -3.88566979062500 
 N -3.00941485625000 -2.87862155312500 -6.765479062499935E-002
 S -0.926270856250003 -6.47047655312500 -4.24584879062500 
 S -3.81796685625000 -5.90752855312500 -1.25669879062500 
 S -1.35028485625000 -6.77814155312500 -0.166672790624999 
 S -0.627563856250003 -3.30702355312500 -4.21276779062500 
 S -3.82628985625000 -2.82752555312500 -1.52279779062500 
 S -1.39506085625000 -3.23655055312500 -7.688479062499920E-002
