16

 C -2.49299338124999 -6.53566235000000 -2.55174245312500 
 C -1.29480738124999 -6.99408535000000 -1.93528345312500 
 C -2.72399338124999 -2.91427934999999 -2.54513245312500 
 C -1.58215938124999 -3.47857234999999 -1.84997545312500 
 N -0.176348381249991 -7.09327134999999 -2.64361145312500 
 N -2.25277738124999 -6.26292435000000 -3.82945345312500 
 N -3.15601038124999 -6.73373034999999 -3.336445312499947E-002
 N -0.541627381249991 -3.60112434999999 -2.66761545312500 
 N -2.55139638124999 -2.56373235000000 -3.81863945312500 
 N -3.43631938124999 -3.23450735000000 -1.547645312499957E-002
 S -0.649775381249991 -6.63647035000000 -4.18083245312500 
 S -3.80322038124999 -6.32968435000000 -1.45996845312500 
 S -1.56027438124999 -7.20509035000000 -0.211190453125000 
 S -1.03254338124999 -3.17039435000000 -4.20162545312500 
 S -3.97829638124999 -2.50492435000000 -1.40399445312500 
 S -1.89334038124999 -3.77947235000000 -0.120665453125000 
