16

 C -2.33346289687500 -6.53043154062499 -2.57424146875000 
 C -1.08550389687500 -6.87792754062499 -1.86732846875000 
 C -2.53308089687500 -2.50109254062499 -2.63187746875000 
 C -1.46478289687500 -3.02611354062499 -1.85450246875000 
 N -3.566989687500488E-002 -6.97689154062499 -2.67172046875000 
 N -2.15527389687500 -6.27516854062499 -3.87130846875000 
 N -2.90277989687501 -6.48135854062499 -3.876468749999251E-003
 N -0.356157896875005 -3.27393654062499 -2.49638446875000 
 N -2.25061189687500 -2.33347054062499 -3.91172146875000 
 N -3.39528389687500 -2.88240854062499 -0.212908468749999 
 S -0.524777896875005 -6.51153954062499 -4.17974346875000 
 S -3.71647189687500 -6.26769254062499 -1.44095546875000 
 S -1.27326189687501 -6.89008654062499 -0.103128468749999 
 S -0.670507896875005 -2.86874054062499 -4.06859946875000 
 S -3.95712889687500 -2.41648954062499 -1.67884046875000 
 S -1.80005189687500 -3.19136254062499 -0.127721468749999 
