16

 C -2.66225110625001 -6.34283523750001 -2.34731064687500 
 C -1.44718510625001 -6.87491823750001 -1.71860064687500 
 C -2.53367110625001 -3.15896223750001 -2.41509764687500 
 C -1.22051110625001 -3.27541023750001 -1.79780564687500 
 N -0.514238106250011 -7.33985023750001 -2.58273064687500 
 N -2.60252710625001 -6.35271123750001 -3.67426364687500 
 N -3.18283710625001 -6.48675723750001 0.174398353125000 
 N -0.218384106250011 -3.29556223750001 -2.65180864687500 
 N -2.48840510625001 -3.07724123750001 -3.76347564687500 
 N -2.85259310625001 -3.05465423750001 0.175841353125000 
 S -1.10847210625001 -6.94220323750001 -4.07588664687500 
 S -3.99072310625001 -6.11041723750001 -1.26412064687500 
 S -1.59798610625001 -6.86951923750001 4.834335312499993E-002
 S -0.907051106250012 -3.18992423750001 -4.18823664687500 
 S -3.72639210625001 -3.18766523750001 -1.18310464687500 
 S -1.19945710625001 -3.23666923750001 -6.374364687500012E-002
