16

 C -2.54539749062501 -6.22542845312500 -2.48324197812500 
 C -1.28279349062501 -6.55973545312500 -1.82039097812500 
 C -2.38622149062501 -2.92818745312500 -2.53502397812500 
 C -1.21017649062501 -3.22484145312500 -1.82040397812500 
 N -0.296413490625008 -6.69675545312500 -2.73027597812500 
 N -2.51036049062501 -6.09755545312500 -3.80653597812500 
 N -2.97450749062501 -6.45830245312500 5.465002187499834E-002
 N -0.168503490625008 -3.51917345312500 -2.61787697812500 
 N -2.28991349062501 -3.04655645312500 -3.86851097812500 
 N -3.07141049062501 -2.81476545312500 -3.441597812500174E-002
 S -0.981853490625007 -6.47911045312500 -4.20233597812500 
 S -3.78016949062501 -5.95505045312500 -1.34519497812500 
 S -1.35161649062501 -6.82862745312500 -0.139141978125002 
 S -0.694799490625008 -3.37012745312500 -4.16301197812500 
 S -3.74656749062501 -2.76035445312500 -1.56773697812500 
 S -1.43127149062501 -3.16207545312500 -7.927197812500175E-002
