16

 C -2.38892650312500 -6.26312707500001 -2.12098956250000 
 C -1.21242850312500 -6.91107707500001 -1.53733656250000 
 C -2.31305750312500 -2.65521307500001 -2.23336256250000 
 C -1.19706350312500 -3.27116607500001 -1.57880756250000 
 N -0.116826503125003 -6.97648907500001 -2.28002456250000 
 N -2.13948050312500 -5.82126107500001 -3.31948256250000 
 N -2.88555750312500 -6.63085507500001 0.318308437500000 
 N -0.102533503125002 -3.32160507500001 -2.32798456250000 
 N -2.06493350312500 -2.18444507500001 -3.44622056250000 
 N -3.02711250312500 -3.00259707500001 0.219305437500000 
 S -0.587494503125003 -6.24272507500001 -3.71231356250000 
 S -3.70790150312500 -6.12720307500001 -1.11663456250000 
 S -1.34390950312500 -7.17138807500001 0.163054437500000 
 S -0.562157503125002 -2.67746807500001 -3.85420556250000 
 S -3.72735350312500 -2.48949407500001 -1.17641956250000 
 S -1.46518650312500 -3.40539107500001 0.102949437500000 
