16

 C -2.23305821562499 -6.53549566250000 -2.25546018125000 
 C -1.00968621562499 -7.16419366250000 -1.70757618125000 
 C -2.23578821562499 -2.59254466250000 -2.45198318125000 
 C -1.09612621562499 -3.21668566250000 -1.79576118125000 
 N -9.120421562498837E-002 -7.33634366250000 -2.66510618125000 
 N -2.25088421562499 -6.28283166250000 -3.55452518125000 
 N -2.60400721562499 -6.53132766250000 0.252990818750001 
 N -4.003215624988066E-003 -3.30984866250000 -2.56707818125000 
 N -2.08618521562499 -2.40322966250000 -3.75447118125000 
 N -2.95376221562499 -2.93314866250000 2.145081875000066E-002
 S -0.740295215624989 -6.79140366250000 -4.10914618125000 
 S -3.39391221562499 -6.02924566250000 -1.11111118125000 
 S -1.10764821562499 -7.41243166250000 1.341181875000075E-002
 S -0.567780215624988 -2.80165866250000 -4.08140918125000 
 S -3.62803221562499 -2.40300666250000 -1.39023618125000 
 S -1.35932621562499 -3.57435966250000 -0.124828181249999 
