16

 C -2.58839951875000 -6.44656556562501 -2.27962742500000 
 C -1.36846651875000 -6.86905856562501 -1.65554242500000 
 C -2.42344851875000 -2.87848556562501 -2.18818742500000 
 C -1.22881051875000 -3.33279856562501 -1.56925042500000 
 N -0.340351518750003 -7.11738756562501 -2.48614042500000 
 N -2.47519751875000 -6.27338456562501 -3.60584542500000 
 N -3.11430251875000 -6.73238456562501 0.281601575000000 
 N -0.215263518750003 -3.44262456562501 -2.42750842500000 
 N -2.40173051875000 -2.72827856562501 -3.49604842500000 
 N -2.83539951875000 -2.89889256562501 0.329131574999999 
 S -0.921348518750003 -6.65252956562501 -3.96158942500000 
 S -3.88102351875000 -6.36117756562501 -1.18589542500000 
 S -1.52449351875000 -7.12319956562501 5.336457499999958E-002
 S -0.834887518750003 -3.13303956562501 -3.89262342500000 
 S -3.66773051875000 -2.64729656562501 -1.08569742500000 
 S -1.25920351875000 -3.41038256562501 0.140570574999999 
