16

 C -2.27709199062500 -6.34974997812500 -2.42799338750000 
 C -1.12611999062500 -6.85314597812500 -1.75135838750000 
 C -2.77165799062500 -2.55123897812500 -2.48115638750000 
 C -1.50813399062500 -2.83344097812500 -1.83588238750000 
 N -3.598199062500207E-002 -6.97086597812500 -2.47600138750000 
 N -2.01818299062500 -6.15090497812500 -3.70392938750000 
 N -2.94999999062500 -6.50379997812500 2.248161249999869E-002
 N -0.510480990625002 -2.87639797812500 -2.72756438750000 
 N -2.67950099062500 -2.30554497812500 -3.81786438750000 
 N -3.31261399062500 -2.90212197812500 -2.094738750000102E-002
 S -0.437561990625002 -6.60168697812500 -4.02413338750000 
 S -3.68522899062500 -6.17545697812500 -1.44236838750000 
 S -1.42138899062500 -7.06860297812500 -6.474738750000109E-002
 S -1.05708699062500 -2.49858197812500 -4.22700838750000 
 S -4.13260099062500 -2.47027197812500 -1.39156738750000 
 S -1.67409299062500 -2.94829897812500 -8.440738750000110E-002
