16

 C -2.70970289374999 -6.70855817499999 -2.37025856562500 
 C -1.45403289375000 -7.05040417500000 -1.82817256562500 
 C -2.24011389374999 -3.01854117499999 -2.23600056562500 
 C -1.05705689375000 -3.44904717500000 -1.54342856562500 
 N -0.418783893749995 -7.25052317500000 -2.63531656562500 
 N -2.57063389374999 -6.58043417500000 -3.67166656562500 
 N -3.10928289375000 -6.81017517500000 0.154562434374999 
 N -5.062389374999565E-002 -3.59704117499999 -2.35483556562500 
 N -2.10372889375000 -2.98993117500000 -3.54723056562500 
 N -2.87505989375000 -3.31057617500000 0.211499434374999 
 S -1.02858389375000 -7.00955817500000 -4.14263856562500 
 S -3.99554189375000 -6.45894217500000 -1.23140856562500 
 S -1.44687389374999 -7.15482717499999 -9.351856562500060E-002
 S -0.512622893749995 -3.26501917499999 -3.92996756562500 
 S -3.56957189375000 -2.79442917499999 -1.20875556562500 
 S -1.29974089374999 -3.84938217500000 0.123050434374999 
