16

 C -2.51078607500001 -6.48702965625000 -2.54490745000000 
 C -1.30990407500001 -6.74456565625000 -1.78983845000000 
 C -2.57685407500001 -2.60236265625000 -2.47624745000000 
 C -1.32748907500001 -3.00256365625000 -1.83371445000000 
 N -0.210811075000007 -6.74384865625000 -2.54251345000000 
 N -2.41176407500001 -6.31091465625000 -3.85073445000000 
 N -3.21739407500001 -6.65072365625000 -5.285045000000022E-002
 N -0.289009075000006 -3.24839665625000 -2.64267045000000 
 N -2.46820707500001 -2.42509665625000 -3.80613245000000 
 N -2.97766607500001 -2.62772965625000 6.657154999999992E-002
 S -0.745926075000006 -6.44385265625000 -4.08092545000000 
 S -3.89945507500001 -6.41415765625000 -1.52785645000000 
 S -1.58399207500001 -6.92850765625000 -0.115776450000000 
 S -0.938059075000006 -2.83323265625000 -4.11199445000000 
 S -3.75970307500001 -2.23975165625000 -1.30293245000000 
 S -1.43790307500001 -3.19986065625000 -9.882845000000007E-002
