16

 C -2.33788200000000 -6.06470440937500 -2.22352372187500 
 C -1.13554000000000 -6.65150040937499 -1.61781672187500 
 C -2.63177500000000 -2.50123840937500 -2.56356372187500 
 C -1.39121000000000 -2.83017040937500 -1.94145672187500 
 N -0.188897999999999 -6.94253140937500 -2.49303572187500 
 N -2.28008400000000 -5.81888840937500 -3.54012672187500 
 N -2.77078600000000 -6.21588540937500 0.364868278125000 
 N -0.333477999999999 -3.09306540937500 -2.75297572187500 
 N -2.54271500000000 -2.40081040937500 -3.91384172187500 
 N -3.17591100000000 -2.39758640937499 -1.740172187500022E-002
 S -0.785240999999999 -6.43705940937500 -3.97943872187500 
 S -3.61991500000000 -5.85534240937499 -0.978370721875000 
 S -1.20408800000000 -6.87802240937499 0.102410278125000 
 S -0.991544999999999 -2.79637240937500 -4.33891072187500 
 S -3.94776800000000 -2.03999440937500 -1.44604872187500 
 S -1.53824900000000 -2.92891240937499 -0.150744721875000 
