16

 C -2.67623784062500 -6.34221911875000 -2.37061691562500 
 C -1.50525884062500 -6.98153011875000 -1.90221891562500 
 C -2.45717784062500 -2.74030611875000 -2.30657191562500 
 C -1.32192684062500 -3.45331911875000 -1.63318691562500 
 N -0.546893840625003 -7.21541311875000 -2.81197291562500 
 N -2.55135484062500 -5.96117011875000 -3.63443091562500 
 N -3.07169684062500 -6.69110111875000 0.109039084375000 
 N -0.328231840625003 -3.73382511875000 -2.48164091562500 
 N -2.27875784062500 -2.49438011875000 -3.62601691562500 
 N -3.14143784062500 -3.08804711875000 0.259066084375001 
 S -1.10526784062500 -6.49091011875000 -4.20953391562500 
 S -3.85316484062500 -5.98867211875000 -1.19478191562500 
 S -1.55227384062500 -7.31877611875000 -0.171472915624999 
 S -0.825638840625003 -3.17402911875000 -3.96816791562500 
 S -3.75956084062500 -2.42786411875000 -1.15769991562500 
 S -1.59225684062500 -3.77604511875000 5.046608437500044E-002
