16

 C -2.53556420937501 -6.26612951562500 -2.37257875000000 
 C -1.38790420937501 -6.91033951562500 -1.88845875000000 
 C -2.63453320937501 -2.94525751562500 -2.35226675000000 
 C -1.45877920937501 -3.34045051562500 -1.64918775000000 
 N -0.449892209375009 -7.20430751562500 -2.75755075000000 
 N -2.50924820937501 -6.15515951562500 -3.69356675000000 
 N -2.98701520937501 -6.66270551562500 3.200224999999945E-002
 N -0.398608209375009 -3.59612851562500 -2.41421575000000 
 N -2.48674020937501 -2.87491451562500 -3.65882375000000 
 N -3.27371420937501 -2.70811851562500 7.111224999999943E-002
 S -1.05580920937501 -6.76308051562500 -4.23801175000000 
 S -3.77800120937501 -6.06118251562500 -1.26387775000000 
 S -1.46908620937501 -7.27096051562500 -0.222800750000001 
 S -0.913720209375009 -3.34176851562500 -3.97396575000000 
 S -4.00393420937501 -2.45272651562500 -1.37624575000000 
 S -1.75000520937501 -3.42121651562500 2.945624999999952E-002
