16

 C -2.65260460937500 -6.33466594062500 -2.43776504687500 
 C -1.36856760937500 -6.60369394062500 -1.84589404687500 
 C -2.52289160937500 -2.96627794062500 -2.28831904687500 
 C -1.31468760937500 -3.35344994062500 -1.67719004687500 
 N -0.342322609374997 -6.76607994062500 -2.70438204687500 
 N -2.58371160937500 -6.19995994062500 -3.75752104687500 
 N -3.17069860937500 -6.55213594062500 5.505395312500250E-002
 N -0.288131609374997 -3.47432594062500 -2.51110904687500 
 N -2.48202160937500 -2.93162094062500 -3.61933804687500 
 N -3.03841560937500 -3.04679494062500 0.191603953125002 
 S -1.02744360937500 -6.55910694062500 -4.22155304687500 
 S -3.99031060937500 -6.17353794062500 -1.34032704687500 
 S -1.54882360937500 -6.82924094062500 -9.689804687499781E-002
 S -0.858812609374997 -3.11061794062500 -4.02825104687500 
 S -3.87995860937500 -2.65516794062500 -1.19474304687500 
 S -1.43131060937500 -3.47954694062500 4.732695312500246E-002
