16

 C -2.50363002187499 -6.51531780937499 -2.44738685625000 
 C -1.23075902187499 -6.93678680937499 -1.95416085625000 
 C -2.59746102187499 -2.67189980937499 -2.52032685625000 
 C -1.50264302187499 -3.24051180937499 -1.72827485625000 
 N -0.285426021874993 -6.92608280937499 -2.87687685625000 
 N -2.52465202187499 -6.32796680937499 -3.75321785625000 
 N -2.73554002187499 -6.87728980937499 7.710614374999958E-002
 N -0.494309021874992 -3.67530080937499 -2.45873385625000 
 N -2.41671702187499 -2.69336880937499 -3.83724785625000 
 N -3.34897902187499 -2.65279680937499 -2.938085625000042E-002
 S -0.970298021874992 -6.57008280937499 -4.31910885625000 
 S -3.74977002187499 -6.46265980937499 -1.20510585625000 
 S -1.21692102187499 -7.50405380937499 -0.262167856250000 
 S -0.918851021874993 -3.33589780937499 -4.05509385625000 
 S -3.88038402187499 -2.04199380937499 -1.49508585625000 
 S -1.78345302187499 -3.22389580937499 -8.721856250000437E-003
