16

 C -2.29140493125000 -6.64282522187500 -2.34237754062500 
 C -0.959419931249999 -6.88432922187500 -1.86476054062500 
 C -2.57191193125000 -2.82007522187500 -2.44666454062500 
 C -1.43365093125000 -3.34599622187500 -1.79214154062500 
 N -6.041593124999967E-002 -6.93686622187500 -2.85364554062500 
 N -2.42961293125000 -6.47832322187500 -3.67117054062500 
 N -2.43837993125000 -6.95109222187500 0.202027459374999 
 N -0.332663931249999 -3.52189522187500 -2.51795954062500 
 N -2.39776293125000 -2.63443522187500 -3.74849854062500 
 N -3.15852393125000 -2.91499322187500 9.201745937499939E-002
 S -0.890657931249999 -6.73527922187500 -4.28045654062500 
 S -3.50645993125000 -6.79105922187500 -1.06536554062500 
 S -0.800089931250000 -7.16748122187500 -0.160475540625001 
 S -0.835156931249999 -3.09603222187500 -4.05618654062500 
 S -3.90256693125000 -2.49169822187500 -1.34253654062500 
 S -1.54975093125000 -3.43661522187500 -1.001540625000796E-003
