16

 C -2.42733224375001 -6.54575760000001 -2.28793191875000 
 C -1.11225024375001 -6.86737560000001 -1.70317691875000 
 C -2.52203724375001 -3.15816360000001 -2.05960391875000 
 C -1.28664424375001 -3.43310560000001 -1.33526991875000 
 N -0.117227243750011 -7.02141560000001 -2.59961691875000 
 N -2.38930524375001 -6.35969360000001 -3.62828291875000 
 N -2.89185224375001 -6.92526760000001 0.187002081250000 
 N -0.240450243750011 -3.60954160000001 -2.16162391875000 
 N -2.44920024375001 -3.06765860000001 -3.39275991875000 
 N -3.13095824375001 -3.36044360000001 0.399827081250000 
 S -0.803534243750011 -6.65107560000001 -4.08877791875000 
 S -3.77823424375001 -6.48889160000001 -1.19115091875000 
 S -1.29450524375001 -7.16514960000001 3.140508125000041E-002
 S -0.821520243750011 -3.21931160000001 -3.71451091875000 
 S -3.91878024375001 -3.11651360000001 -1.03463491875000 
 S -1.43736924375001 -3.57095760000001 0.425103081250000 
