16

 C -2.32021849062501 -6.61036575937500 -2.50482352500000 
 C -1.11737649062501 -7.09777875937500 -1.83426252500000 
 C -2.35801849062501 -2.94871175937500 -2.54237852500000 
 C -1.16406349062501 -3.43440075937500 -1.86817352500000 
 N -2.574349062500580E-002 -7.16632275937500 -2.59926352500000 
 N -2.13352749062501 -6.33863275937500 -3.79802552500000 
 N -3.01016049062501 -6.87760975937500 -1.200052500000170E-002
 N -9.763649062500601E-002 -3.56008875937500 -2.61321452500000 
 N -2.24285449062501 -2.83119475937500 -3.86841152500000 
 N -3.05843749062501 -3.21248875937500 -2.560052500000154E-002
 S -0.565747490625006 -6.64076875937500 -4.12821352500000 
 S -3.72883749062501 -6.47194975937500 -1.48243852500000 
 S -1.42733749062501 -7.39217275937500 -3.619252500000192E-002
 S -0.638601490625006 -3.17844775937500 -4.22382952500000 
 S -3.74041049062501 -2.61244075937500 -1.43919352500000 
 S -1.46163249062501 -3.74880875937500 -9.491152500000188E-002
