16

 C -2.48103331250000 -6.57744992187500 -2.50921272500000 
 C -1.30483831250000 -7.11643292187500 -1.86481572500000 
 C -2.68785731250000 -2.78561592187500 -2.50142772500000 
 C -1.55365231250000 -3.43484592187500 -1.83520472500000 
 N -0.272413312500004 -7.24894592187500 -2.63770572500000 
 N -2.32426531250000 -6.29495192187500 -3.80603572500000 
 N -2.99311831250000 -6.84918592187500 -6.831372499999944E-002
 N -0.518522312500004 -3.68944192187500 -2.64059472500000 
 N -2.52759931250000 -2.67067192187500 -3.81118872500000 
 N -3.47655231250000 -3.25875892187500 -9.008672499999948E-002
 S -0.733006312500004 -6.59133192187500 -4.09877872500000 
 S -3.82983831250000 -6.32544592187500 -1.49725272500000 
 S -1.41632631250000 -7.36885992187500 -0.139577724999999 
 S -0.995341312500004 -3.15337492187500 -4.18721172500000 
 S -4.08838431250000 -2.44169592187500 -1.44314872500000 
 S -1.85282131250000 -3.65896492187500 -0.129666724999999 
