16

 C -2.27744502500000 -6.25673753437500 -2.68980782500000 
 C -1.16359702500000 -6.73876153437500 -1.88568782500000 
 C -2.46339902500000 -2.81767553437500 -2.58217482500000 
 C -1.22706202500000 -3.08113453437500 -1.92415582500000 
 N -8.366702500000311E-002 -6.96169953437500 -2.64951382500000 
 N -2.03187302500000 -5.94947453437500 -3.97153682500000 
 N -3.05658502500000 -6.33159853437500 -0.216242825000001 
 N -9.700402500000305E-002 -3.13286553437500 -2.65836182500000 
 N -2.33653802500000 -2.77229653437500 -3.92262482500000 
 N -3.12589102500000 -3.01262553437500 -6.789882500000033E-002
 S -0.447642025000003 -6.41676053437500 -4.16789782500000 
 S -3.61550602500000 -5.80008853437500 -1.68601582500000 
 S -1.46054202500000 -6.80219853437500 -0.206863825000001 
 S -0.705470025000003 -2.94590553437500 -4.17754082500000 
 S -3.85850602500000 -2.66444553437500 -1.50750582500000 
 S -1.41836402500000 -3.27062753437500 -0.160733825000000 
