16

 C -2.27941147187500 -6.34729870312499 -2.44277370312500 
 C -1.09910247187500 -6.83837170312499 -1.73954170312500 
 C -2.81807847187500 -2.57426270312499 -2.50001670312500 
 C -1.55109447187500 -2.80810170312499 -1.85735670312500 
 N 1.031852812499690E-002 -7.01329270312499 -2.48138770312500 
 N -2.00294047187500 -6.14400170312499 -3.74102670312500 
 N -2.91956647187500 -6.54125770312499 6.479129687499841E-002
 N -0.519102471875002 -2.91160170312499 -2.69017570312500 
 N -2.67254447187500 -2.31408370312499 -3.79027070312500 
 N -3.34218747187500 -2.88829970312499 -3.286070312500167E-002
 S -0.435039471875003 -6.57062870312499 -4.02378070312500 
 S -3.66519047187500 -6.17012370312499 -1.38641270312500 
 S -1.37153647187500 -7.07239170312499 -5.514570312500178E-002
 S -1.09856047187500 -2.47194370312499 -4.26952470312500 
 S -4.15886847187500 -2.47759470312499 -1.39351870312500 
 S -1.67861347187500 -2.97632770312499 -0.114025703125002 
