16

 C -2.68846480000001 -6.47002045625000 -2.29104055000000 
 C -1.41122580000001 -6.91154345625000 -1.77530055000000 
 C -2.32289680000001 -2.94400145625000 -2.36010155000000 
 C -1.22556280000001 -3.49488245625000 -1.69243755000000 
 N -0.438302800000006 -7.08039745625000 -2.69157655000000 
 N -2.65239780000001 -6.17239345625000 -3.59138055000000 
 N -3.06263980000001 -6.76361845625000 0.253362450000001 
 N -0.189300800000006 -3.73943745625000 -2.47406155000000 
 N -2.16603680000001 -2.71695045625000 -3.65455555000000 
 N -2.97912480000001 -2.96009945625000 0.131305450000001 
 S -1.13454780000001 -6.61322345625000 -4.17356955000000 
 S -3.87778680000001 -6.23454145625000 -1.07502955000000 
 S -1.49636480000001 -7.17988545625000 -2.298154999999924E-002
 S -0.618309800000007 -3.20632345625000 -4.03689255000000 
 S -3.76511180000001 -2.81065245625000 -1.36308155000000 
 S -1.48805080000001 -3.74745545625000 -3.234454999999925E-002
