16

 C -2.34503444375000 -6.52787536250000 -2.43772697812500 
 C -1.12921644375000 -6.88163136250001 -1.74882697812500 
 C -2.49586744375000 -3.19911536250001 -2.29033297812500 
 C -1.23852244375000 -3.48720536250001 -1.64179297812500 
 N -6.834144375000406E-002 -6.97263336250001 -2.52642397812500 
 N -2.22663944375000 -6.43883336250001 -3.74647897812500 
 N -3.05748544375000 -6.69011436250001 8.474021874997018E-003
 N -0.242918443750003 -3.64363636250000 -2.47627297812500 
 N -2.40551644375000 -3.15188536250001 -3.63899997812500 
 N -2.96640544375000 -3.33469336250001 0.246875021874997 
 S -0.676008443750003 -6.82470736250001 -4.10922797812500 
 S -3.72020744375000 -6.34742536250001 -1.43294697812500 
 S -1.39284844375000 -6.95114336250001 1.486502187499728E-002
 S -0.804334443750004 -3.42622536250001 -4.02897397812500 
 S -3.86622244375000 -3.35714736250001 -1.18684097812500 
 S -1.29827744375000 -3.56607536250001 5.861802187499721E-002
