16

 C -2.49790541875000 -6.55154297187500 -2.40343796562500 
 C -1.24946141875000 -6.70869097187500 -1.73155096562500 
 C -2.48460741875000 -2.24276597187500 -2.83781696562500 
 C -1.38604241875000 -2.86931997187500 -2.11704196562500 
 N -0.235842418749999 -6.68483997187500 -2.54812096562500 
 N -2.42769041875000 -6.26865197187500 -3.69495596562500 
 N -3.06339441875000 -6.49704897187500 8.238303437499916E-002
 N -0.314616418749999 -3.13957097187500 -2.88459396562500 
 N -2.20258741875000 -2.04290497187500 -4.13397996562500 
 N -3.31885541875000 -2.73658497187500 -0.480851965625001 
 S -0.799847418750000 -6.40167197187500 -4.09425196562500 
 S -3.86206941875000 -6.48540997187500 -1.32418296562500 
 S -1.38187341875000 -6.85707397187500 -4.320696562500093E-002
 S -0.605278418749999 -2.47787497187500 -4.35089296562500 
 S -3.95577141875000 -2.05732397187500 -1.88982996562500 
 S -1.74352941875000 -3.19954797187500 -0.423380965625001 
