16

 C -2.35303638750000 -6.07954352500000 -2.20290753750000 
 C -1.16946838749999 -6.67912052500000 -1.64714153750000 
 C -2.66550538750000 -2.41699752500000 -2.60125653750000 
 C -1.41343138749999 -2.85385352500000 -1.95113053750000 
 N -0.190528387499995 -6.90197652500000 -2.50376853750000 
 N -2.19893538750000 -5.85114752500000 -3.49642953750000 
 N -2.67012938749999 -6.26472152500000 0.397390462499997 
 N -0.425717387499995 -2.96810852500000 -2.84493653750000 
 N -2.59824238749999 -2.41573852500000 -3.93686953750000 
 N -3.13991938749999 -2.44923652500000 -6.997953750000274E-002
 S -0.694028387499995 -6.44705552500000 -4.01310053750000 
 S -3.56255538750000 -5.80821952500000 -0.985486537500003 
 S -1.17318738750000 -6.88751852500000 0.104788462499997 
 S -1.01906638750000 -2.80227152500000 -4.30845853750000 
 S -3.96060638750000 -2.01232252500000 -1.49072653750000 
 S -1.56977038749999 -2.88845552500000 -0.224860537500003 
