16

 C -2.33507705625000 -6.39288476875000 -2.29878226250000 
 C -1.08942505625000 -6.95772476875000 -1.78041026250000 
 C -2.38512905625000 -2.97224976875000 -2.42564926250000 
 C -1.14383105625000 -3.28433676875000 -1.82903326250000 
 N -0.127835056250000 -7.04791876875000 -2.67587126250000 
 N -2.28592905625000 -6.13831376875000 -3.58734426250000 
 N -2.80658105625000 -6.82837676875000 0.150962737500002 
 N -8.475405625000043E-002 -3.32704176875000 -2.63465326250000 
 N -2.33664905625000 -2.79120976875000 -3.77325126250000 
 N -2.99940005625000 -3.42059176875000 2.796737500001756E-003
 S -0.734726056250000 -6.46680676875000 -4.12163726250000 
 S -3.64331305625000 -6.35821576875000 -1.25045126250000 
 S -1.23497805625000 -7.28330376875000 -6.287526249999797E-002
 S -0.751429056250001 -3.04125376875000 -4.19281226250000 
 S -3.73211605625000 -2.89991076875000 -1.36062726250000 
 S -1.35208205625000 -3.64937476875000 -0.140795262499998 
