16

 C -2.42593816875000 -6.37093865312500 -2.53105170312500 
 C -1.26581916875000 -6.73176765312500 -1.79141470312500 
 C -2.75418216875000 -2.92375765312500 -2.53768570312500 
 C -1.59259016875000 -3.53529065312500 -1.91114170312500 
 N -0.217485168750001 -6.96609365312500 -2.57545270312500 
 N -2.33548816875000 -6.30334065312500 -3.83277670312500 
 N -3.11501816875000 -6.63625565312500 -9.985470312500033E-002
 N -0.515306168750001 -3.68817065312500 -2.68548670312500 
 N -2.50824716875000 -2.60063665312500 -3.82706670312500 
 N -3.34327516875000 -3.32126165312500 1.282296874999700E-003
 S -0.754490168750001 -6.68849265312500 -4.14280470312500 
 S -3.82541416875000 -6.21600165312500 -1.60296470312500 
 S -1.53820416875000 -7.05744965312500 -0.185187703125000 
 S -1.00744516875000 -3.09593765312500 -4.19872370312500 
 S -4.08299816875000 -2.67925165312500 -1.37297970312500 
 S -1.75974616875000 -3.82751165312500 -0.173829703125000 
