16

 C -2.18291971562500 -6.43278347500001 -2.38067370000000 
 C -0.907157715624999 -6.72676547500001 -1.78866870000000 
 C -2.56219571562500 -2.64141247500001 -2.43616170000000 
 C -1.30573171562500 -3.04408447500001 -1.73714670000000 
 N 0.101922284375001 -6.73677747500001 -2.65954170000000 
 N -2.12106971562500 -6.28250547500001 -3.70347170000000 
 N -2.64610771562500 -6.78959447500001 0.159739300000001 
 N -0.234607715624999 -3.21665347500001 -2.51876570000000 
 N -2.44102071562500 -2.64052447500001 -3.76761570000000 
 N -3.15554771562500 -2.94226247500001 7.044330000000065E-002
 S -0.539678715624999 -6.49728547500001 -4.16570370000000 
 S -3.51463471562500 -6.34872747500001 -1.22573070000000 
 S -1.02700971562500 -7.09303247500001 -7.081569999999937E-002
 S -0.848050715624999 -3.02376047500001 -4.06162570000000 
 S -3.92183471562500 -2.51891347500001 -1.33559570000000 
 S -1.59075271562500 -3.39126447500001 -3.346999999993550E-004
