16

 C -2.68570866562500 -6.28009847812500 -2.29143378437500 
 C -1.47893866562500 -6.78228447812500 -1.67919878437500 
 C -2.36388766562500 -2.67239047812500 -2.44239478437500 
 C -1.13753666562500 -3.07889747812500 -1.73792678437500 
 N -0.478709665624997 -6.96804747812500 -2.54475678437500 
 N -2.60923366562500 -6.17959747812500 -3.61468978437500 
 N -3.16337366562500 -6.34642447812500 0.178059215625002 
 N -0.128669665624997 -3.22817247812500 -2.58320378437500 
 N -2.24639866562500 -2.64813547812500 -3.76468078437500 
 N -3.03934166562500 -2.80314147812500 -4.433278437499855E-002
 S -1.06405466562500 -6.69219247812500 -4.06674378437500 
 S -3.94063766562500 -5.90834547812500 -1.23347278437500 
 S -1.58860366562500 -6.95187147812500 7.958121562500176E-002
 S -0.663304665624997 -3.03038347812500 -4.06618578437500 
 S -3.76309966562500 -2.32341647812500 -1.45204878437500 
 S -1.37680366562500 -3.16374747812500 -8.662784374998234E-003
