16

 C -2.58016480000001 -6.19584449375000 -2.29400917812500 
 C -1.40150280000001 -6.87507149375000 -1.74700217812500 
 C -2.23783880000001 -2.34501949375000 -2.46187317812500 
 C -1.10563480000001 -2.93694849375000 -1.84213917812500 
 N -0.421227800000007 -7.22191049375000 -2.58356517812500 
 N -2.42355180000001 -5.99573549375000 -3.60765017812500 
 N -3.15076480000001 -6.67760949375000 0.218458821875003 
 N -7.273680000000660E-002 -3.10468949375000 -2.65204017812500 
 N -2.17291580000001 -2.22719349375000 -3.81286417812500 
 N -2.87452080000001 -2.57718949375000 -2.785178124997678E-003
 S -0.909733800000007 -6.54808749375000 -4.00212417812500 
 S -3.89989580000001 -6.06811149375000 -1.12694217812500 
 S -1.54656980000001 -7.23796949375000 -2.422117812499769E-002
 S -0.696375800000006 -2.70364449375000 -4.26294517812500 
 S -3.55706980000001 -2.03260449375000 -1.42649417812500 
 S -1.35267880000001 -3.23592049375000 -0.154219178124997 
