16

 C -2.33628250312500 -6.53746886562500 -2.42147842187500 
 C -1.11352950312500 -6.87809686562500 -1.72477342187500 
 C -2.48373750312500 -3.19768086562500 -2.29109642187500 
 C -1.21863750312500 -3.49693486562500 -1.65613942187500 
 N -7.682550312499892E-002 -6.96145886562500 -2.53689442187500 
 N -2.21706850312500 -6.44643886562500 -3.73928842187500 
 N -3.05733250312500 -6.68071386562500 7.815578125000666E-003
 N -0.234881503124998 -3.63312586562500 -2.48892642187500 
 N -2.40474150312500 -3.17679286562500 -3.63583742187500 
 N -2.96252250312500 -3.34171786562500 0.263486578125001 
 S -0.663528503124999 -6.83882286562500 -4.11357842187500 
 S -3.71931050312500 -6.34362586562500 -1.43819142187500 
 S -1.38742250312500 -6.94882486562500 3.655781250007095E-004
 S -0.785539503124999 -3.44824186562500 -4.00897742187500 
 S -3.86159050312500 -3.35838686562500 -1.18065942187500 
 S -1.30158550312500 -3.55838386562500 6.836157812500088E-002
