16

 C -2.32884720312499 -6.27553365937500 -2.37662391875000 
 C -1.10776120312499 -6.87858065937500 -1.73818891875000 
 C -2.62739020312499 -2.73835365937500 -2.63715591875000 
 C -1.38675420312499 -3.02184665937500 -1.95821291875000 
 N -0.128026203124989 -7.20164165937500 -2.56397091875000 
 N -2.22194020312499 -6.26030565937500 -3.70133891875000 
 N -2.72975120312499 -6.17084265937500 0.138762081249999 
 N -0.323300203124989 -3.08297365937500 -2.76014191875000 
 N -2.53790320312499 -2.64064365937500 -3.97969191875000 
 N -3.15970720312499 -2.83509765937500 -8.362291875000150E-002
 S -0.664746203124989 -6.77021965937500 -4.05704391875000 
 S -3.61924020312499 -6.04740265937500 -1.32044691875000 
 S -1.24354520312499 -6.97361065937500 4.248508124999861E-002
 S -0.937337203124989 -3.00910765937500 -4.27278691875000 
 S -3.89354520312499 -2.38294865937500 -1.50974491875000 
 S -1.54203520312499 -3.18936465937500 -0.190477918750001 
