16

 C -2.47617325625000 -6.82026162812500 -2.29182346562500 
 C -1.18498625625000 -7.15169462812500 -1.76062046562500 
 C -2.60264825625000 -2.77735062812500 -2.43028046562500 
 C -1.42194025625000 -3.28772062812500 -1.86859046562500 
 N -0.253191256250000 -7.34491062812500 -2.68888146562500 
 N -2.55331725625000 -6.70419162812500 -3.64066246562500 
 N -2.74873825625000 -7.06176162812500 0.334138534375001 
 N -0.373650256250000 -3.54732462812500 -2.68438446562500 
 N -2.51126425625000 -2.42526562812500 -3.72063446562500 
 N -3.16881825625000 -3.24616062812500 0.120566534375000 
 S -1.03675025625000 -7.08312162812500 -4.14541946562500 
 S -3.65260825625000 -6.76097262812500 -0.979842465625000 
 S -1.14919125625000 -7.30372262812500 -1.835146562499945E-002
 S -0.976318256250000 -2.95294062812500 -4.17219746562500 
 S -3.90875825625000 -2.61600562812500 -1.20415446562500 
 S -1.55105425625000 -3.43898562812500 -0.105136465624999 
