16

 C -2.66718918125000 -6.43966875000000 -2.45731967812500 
 C -1.53574718125000 -7.00169975000000 -1.72952067812500 
 C -2.33990518125000 -2.71666275000000 -2.51674667812500 
 C -1.13145318125000 -3.20968375000000 -1.76667267812500 
 N -0.454382181249998 -7.33419975000000 -2.42459767812500 
 N -2.40342118125000 -6.32987275000000 -3.75394867812500 
 N -3.20161818125000 -6.35908875000000 8.967232187500085E-002
 N -4.830418124999802E-002 -3.37214075000000 -2.55197167812500 
 N -2.17153718125000 -2.59588975000000 -3.82196467812500 
 N -2.95873918125000 -2.91972975000000 -4.793267812499913E-002
 S -0.883648181249998 -6.91647375000000 -3.98287567812500 
 S -3.97806418125000 -5.98625175000000 -1.39279967812500 
 S -1.68154418125000 -7.01281275000000 4.161132187500094E-002
 S -0.609582181249998 -3.00288375000000 -4.15340967812500 
 S -3.75661718125000 -2.54128075000000 -1.50658867812500 
 S -1.34636018125000 -3.32576275000000 -6.210767812499896E-002
