16

 C -2.27813470312501 -6.49588650000000 -2.57116468437500 
 C -1.07278570312501 -7.00129050000000 -1.99176768437500 
 C -2.67052270312501 -2.44144850000000 -2.35373168437500 
 C -1.52827370312501 -2.92769450000000 -1.64095068437500 
 N -4.763270312500634E-002 -7.28167850000000 -2.80481668437500 
 N -2.10685470312501 -6.25718450000000 -3.86790768437500 
 N -2.80369270312501 -6.47085450000000 -0.112676684374999 
 N -0.465163703125007 -3.23602450000000 -2.37504268437500 
 N -2.58167470312501 -2.54350250000000 -3.68027368437500 
 N -3.44461370312501 -2.78879750000000 0.113419315625001 
 S -0.597687703125007 -6.78362150000000 -4.32189568437500 
 S -3.58762470312501 -6.10697250000000 -1.53993568437500 
 S -1.23056170312501 -6.98449550000000 -0.228481684374999 
 S -1.00836470312501 -2.93701150000000 -3.95838268437500 
 S -4.14953970312501 -2.20099250000000 -1.30243068437500 
 S -1.81494170312501 -3.09267650000000 8.554631562500092E-002
