16

 C -2.29408258750000 -6.81371110625000 -2.41012204375000 
 C -1.10119258750000 -7.26948410625000 -1.70694904375000 
 C -2.58004158750000 -2.66750210625000 -2.32477204375000 
 C -1.58499058750000 -3.52252210625000 -1.79795704375000 
 N -8.570587500004834E-003 -7.48513810625000 -2.44172404375000 
 N -2.15817858750000 -6.72474910625000 -3.73834404375000 
 N -3.00422858750000 -6.88590410625000 0.108423956249997 
 N -0.733422587500004 -4.02810310625000 -2.65892104375000 
 N -2.57347158750000 -2.49892810625000 -3.62616104375000 
 N -3.14995658750000 -2.88197110625000 0.222771956249997 
 S -0.543241587500004 -7.12937310625000 -3.99244304375000 
 S -3.71786558750000 -6.50167610625000 -1.38062604375000 
 S -1.48248158750000 -7.51485510625000 -8.612043750002796E-003
 S -1.16440858750000 -3.27567410625000 -4.10979904375000 
 S -3.77592358750000 -2.20620510625000 -1.15097004375000 
 S -1.78728958750000 -3.78462010625000 -0.112788043750003 
