16

 C -2.67278424687500 -6.61838938437500 -2.31719406562500 
 C -1.36277724687500 -6.79532538437500 -1.71456906562500 
 C -2.33248624687500 -3.07668438437500 -2.47558406562500 
 C -1.05341524687500 -3.30287738437500 -1.88486906562500 
 N -0.290917246875003 -6.75577738437500 -2.53326506562500 
 N -2.59918624687500 -6.44131738437500 -3.61334506562500 
 N -3.15429224687500 -6.92893538437500 0.204692934374999 
 N -8.727624687500324E-002 -3.52050038437500 -2.78556406562500 
 N -2.36263424687500 -2.98824738437500 -3.80275506562500 
 N -2.69919124687500 -3.04394538437500 6.869793437499916E-002
 S -0.964250246875003 -6.67348838437500 -4.09252006562500 
 S -3.98042524687500 -6.82002338437500 -1.20564506562500 
 S -1.49350924687500 -7.16710738437500 2.985293437499914E-002
 S -0.758874246875004 -3.26166938437500 -4.24418906562500 
 S -3.66329424687500 -2.88806438437500 -1.32257406562500 
 S -1.10753524687500 -3.33351538437500 -0.189948065625001 
