16

 C -2.31766625312500 -6.39767421875000 -2.36541851875000 
 C -1.18221525312500 -7.09296321875000 -1.77541551875000 
 C -2.47348825312500 -2.98982521875000 -2.34584551875000 
 C -1.23272825312500 -3.13863921875000 -1.70526751875000 
 N -0.150789253124998 -7.25822421875000 -2.59899351875000 
 N -2.13048325312500 -6.11714321875000 -3.67165551875000 
 N -2.80390725312500 -6.95571321875000 7.073948124999840E-002
 N -0.179701253124998 -3.34009121875000 -2.50027451875000 
 N -2.47296125312500 -3.08872421875000 -3.68090451875000 
 N -2.90797725312500 -2.69091721875000 0.187987481249998 
 S -0.637393253124998 -6.68676421875000 -4.09861651875000 
 S -3.62789925312500 -6.15550621875000 -1.25081751875000 
 S -1.21836325312500 -7.24186421875000 -7.482551875000154E-002
 S -0.854919253124998 -3.20484821875000 -4.03887551875000 
 S -3.75197925312500 -2.76413321875000 -1.23086951875000 
 S -1.32946425312500 -3.08294621875000 4.650481249998561E-003
