16

 C -2.21458149374999 -6.18890421562500 -2.46274965937500 
 C -1.11309949374999 -6.85738321562500 -1.85654665937500 
 C -2.27343249374999 -2.91408021562500 -2.36720465937500 
 C -1.04304249374999 -3.49264321562500 -1.87959765937500 
 N -0.127300493749993 -7.11685521562500 -2.70156865937500 
 N -2.07491249374999 -5.98658821562500 -3.76864765937500 
 N -2.96271949374999 -6.78141021562500 -0.136513659375000 
 N -2.876649374999296E-002 -3.61605221562500 -2.72546065937500 
 N -2.17397049374999 -2.51340921562500 -3.61862565937500 
 N -2.63196249374999 -3.16417421562500 0.193059340625000 
 S -0.592478493749993 -6.58974321562500 -4.19509765937500 
 S -3.61758349374999 -6.09865821562500 -1.48696065937500 
 S -1.36101849374999 -7.14681721562500 -0.195446659375000 
 S -0.684535493749993 -3.01770621562500 -4.17913165937500 
 S -3.56066649374999 -2.70552321562500 -1.16361765937500 
 S -1.06611649374999 -3.71974521562500 -8.973165937499994E-002
