16

 C -2.35901570937499 -6.21414583750001 -2.23590655625000 
 C -1.16662170937499 -6.76678183750001 -1.68576355625000 
 C -2.47310570937499 -2.81096983750001 -2.72998455625000 
 C -1.17249670937499 -3.04211083750001 -2.04420755625000 
 N -0.185316709374994 -6.97881783750001 -2.54897555625000 
 N -2.17905870937499 -5.81268883750001 -3.50442755625000 
 N -2.86454270937499 -6.72780583750001 0.269252443750000 
 N -0.178928709374994 -2.88085083750001 -2.89914955625000 
 N -2.41587170937499 -2.51083683750001 -4.02780655625000 
 N -2.90816470937499 -3.02886383750001 -0.205123556250000 
 S -0.675860709374994 -6.31043583750001 -4.00038955625000 
 S -3.66747470937499 -6.19159083750001 -1.11051955625000 
 S -1.29082370937499 -7.10615783750001 5.449044374999956E-002
 S -0.796743709374994 -2.58509583750001 -4.40720855625000 
 S -3.80825770937499 -2.97505283750001 -1.56274455625000 
 S -1.24745570937499 -3.34398783750001 -0.328834556250001 
