16

 C -2.49865587499999 -6.31085515000000 -2.33524137812500 
 C -1.21896387499999 -6.76395615000000 -1.74304137812500 
 C -2.47636287499999 -2.78498915000000 -2.92585037812500 
 C -1.22794587499999 -2.88092315000000 -2.22896237812500 
 N -0.109076874999994 -6.69383615000000 -2.50587037812500 
 N -2.36331487499999 -6.08590315000000 -3.65901437812500 
 N -2.97192587499999 -6.66906515000000 0.248875621875001 
 N -0.188776874999994 -2.76223015000000 -3.00726337812500 
 N -2.45778087499999 -2.53961115000000 -4.21617137812500 
 N -2.93312487499999 -3.14763715000000 -0.309838378124999 
 S -0.713520874999994 -6.25490215000000 -3.97455737812500 
 S -3.73332587499999 -6.16741915000000 -1.10627237812500 
 S -1.31090887499999 -7.15334115000000 1.518362187500122E-002
 S -0.777101874999994 -2.63094815000000 -4.59473237812500 
 S -3.77208387499999 -2.86598915000000 -1.74557337812500 
 S -1.27506987499999 -3.04828615000000 -0.512183378124999 
