16

 C -2.56145433437500 -6.33416183750000 -2.52533799375000 
 C -1.30459133437500 -6.68697483750000 -1.90472299375000 
 C -2.67104633437500 -2.87969483750000 -2.31106899375000 
 C -1.42678133437500 -3.31608783750000 -1.67753499375000 
 N -0.296837334375001 -6.84707583750000 -2.74831899375000 
 N -2.50409433437500 -6.25808583750000 -3.85566299375000 
 N -2.94873233437500 -6.41652483750000 5.172000624999984E-002
 N -0.465937334375001 -3.47536883750000 -2.57598999375000 
 N -2.56093733437500 -2.72434083750000 -3.61566099375000 
 N -3.17223333437500 -3.02769283750000 0.222950006250000 
 S -0.939670334375000 -6.53088283750000 -4.22468799375000 
 S -3.81613833437500 -6.17008383750000 -1.33966399375000 
 S -1.32623133437500 -6.67076083750000 -0.160428993750000 
 S -1.03647833437500 -3.18287883750000 -4.07012799375000 
 S -3.91537233437500 -2.64203783750000 -1.21722599375000 
 S -1.56811533437500 -3.43118483750000 2.820900624999978E-002
