16

 C -2.39642625312500 -6.65418354062501 -2.47033217187500 
 C -1.13028725312500 -6.93493654062501 -1.81226117187500 
 C -2.39554625312500 -2.73916254062501 -2.48381217187500 
 C -1.27101725312501 -3.12167054062501 -1.69450117187500 
 N -4.795325312500509E-002 -6.82746254062501 -2.60878617187500 
 N -2.25546225312501 -6.42737654062501 -3.77140917187500 
 N -2.96828625312500 -7.08500454062501 9.775282812499975E-002
 N -0.103022253125005 -3.22427554062501 -2.36213817187500 
 N -2.21224625312500 -2.71816054062501 -3.81001917187500 
 N -3.16753225312500 -2.65647854062501 3.370582812499956E-002
 S -0.663397253125005 -6.52415754062501 -4.12665317187500 
 S -3.80093925312501 -6.54664454062501 -1.30659117187500 
 S -1.28100825312500 -7.30154754062501 -0.110279171875000 
 S -0.561645253125005 -3.06006154062501 -3.98554917187500 
 S -3.84409825312501 -2.37933354062501 -1.45429317187500 
 S -1.58364725312500 -3.20589054062501 0.106220828125000 
