16

 C -2.58618029375000 -6.37242758437499 -2.20441065312500 
 C -1.39173329375000 -6.84925658437500 -1.63929465312500 
 C -2.48776329375000 -3.07533158437499 -2.30825565312500 
 C -1.22526829375000 -3.30457358437500 -1.63090065312500 
 N -0.352580293749999 -7.06403858437499 -2.42060165312500 
 N -2.52191229375000 -6.19940358437499 -3.50268465312500 
 N -3.08274329375000 -6.57530458437500 0.254168346875000 
 N -0.212007293749999 -3.37743158437500 -2.46614165312500 
 N -2.45465729375000 -2.91685058437499 -3.63289265312500 
 N -3.00940029375000 -3.16249058437500 0.229082346875000 
 S -0.943357293749999 -6.58960658437500 -3.88475265312500 
 S -3.84739229375000 -6.17598358437500 -1.12025165312500 
 S -1.48812229375000 -7.10770958437500 6.168434687500013E-002
 S -0.869975293749999 -3.25939658437500 -4.01045465312500 
 S -3.74971729375000 -2.85634758437500 -1.20118665312500 
 S -1.36424329375000 -3.33619058437499 0.100417346875000 
