16

 C -2.40158837500000 -6.64401322187500 -2.27230154687500 
 C -1.17341737500000 -6.95965322187500 -1.62566354687500 
 C -2.39737137500000 -2.63211422187500 -2.51534154687500 
 C -1.11756037500000 -3.10497122187500 -2.03657354687500 
 N -0.126842375000000 -6.97501822187500 -2.42401254687500 
 N -2.33945737500000 -6.37232522187500 -3.57718054687500 
 N -2.87551637500000 -6.71268522187500 0.249275453125001 
 N -0.208365375000000 -3.39228122187500 -2.92654054687500 
 N -2.36733837500000 -2.42984322187500 -3.82562754687500 
 N -2.62011537500000 -2.98403022187500 -9.804546874999209E-003
 S -0.688692375000000 -6.60133122187500 -3.94626654687500 
 S -3.77427937500000 -6.59649022187500 -1.14691754687500 
 S -1.25023537500000 -7.10428622187500 8.254245312500075E-002
 S -0.908535375000000 -2.89609322187500 -4.36595754687500 
 S -3.54928537500000 -2.41401422187500 -1.21933454687500 
 S -1.06281137500000 -3.50149222187500 -0.361631546874999 
