16

 C -2.45791208750000 -6.51295957812500 -2.44506750937500 
 C -1.25042008750000 -6.74610657812500 -1.72675050937500 
 C -2.69806008750000 -2.84834857812500 -2.53591550937500 
 C -1.41357308750000 -3.28263657812500 -1.88786850937500 
 N -0.214759087499999 -6.90264557812500 -2.50737550937500 
 N -2.32955608750000 -6.56145357812500 -3.77579850937500 
 N -3.03245108750000 -6.43615157812500 0.102951490624999 
 N -0.365591087499999 -3.46617857812500 -2.72132450937500 
 N -2.53563308750000 -2.65012657812500 -3.84844950937500 
 N -3.17978508750000 -2.89068957812500 3.553749062499878E-002
 S -0.716465087499999 -6.82651357812500 -4.07205950937500 
 S -3.80751908750000 -6.23211957812500 -1.34543350937500 
 S -1.45286408750000 -6.89812257812500 -1.706450937500148E-002
 S -0.976372087499999 -3.05219357812499 -4.21969050937500 
 S -3.93802708750000 -2.43600157812500 -1.41282850937500 
 S -1.56302608750000 -3.40978957812499 -0.133399509375001 
