16

 C -2.52469075312499 -6.70001225312500 -2.36074600312500 
 C -1.38580075312499 -7.28581625312500 -1.66813800312500 
 C -2.50147275312499 -2.45740925312500 -2.47499400312500 
 C -1.30779675312499 -3.02988325312500 -1.78635100312500 
 N -0.360004753124994 -7.58070125312500 -2.45709100312500 
 N -2.33263075312499 -6.63537125312500 -3.69231000312500 
 N -3.07071175312499 -6.54049325312500 8.953999687500080E-002
 N -0.317862753124994 -3.31133425312500 -2.62203400312500 
 N -2.37868175312499 -2.28015025312500 -3.78271500312500 
 N -3.17866975312499 -3.05149025312500 -1.779200312499918E-002
 S -0.791461753124994 -7.12782625312500 -4.00611900312500 
 S -3.80380275312499 -6.14213625312500 -1.30562700312500 
 S -1.54147675312499 -7.22923925312500 8.819099687500098E-002
 S -0.858293753124994 -2.90813725312500 -4.14634100312500 
 S -3.82224075312499 -2.21656925312500 -1.33380200312500 
 S -1.56510575312499 -3.37179325312500 -3.473100312499899E-002
