16

 C -2.52622122812500 -6.31988823437499 -2.28610703437500 
 C -1.34108522812500 -6.91234123437499 -1.66563403437500 
 C -2.29257022812500 -2.32305523437499 -2.50778103437500 
 C -1.10095222812500 -2.76845923437499 -1.86196603437500 
 N -0.287066228124998 -7.08641823437499 -2.48649803437500 
 N -2.34187222812500 -6.00159023437499 -3.56485803437500 
 N -3.15200822812500 -6.67787023437499 0.141667965625001 
 N -0.117281228124998 -3.00753423437499 -2.72245903437500 
 N -2.21081522812500 -2.23364023437499 -3.81847703437500 
 N -2.86161222812500 -2.46920323437499 -1.004503437499871E-002
 S -0.843010228124998 -6.57465123437499 -4.01369003437500 
 S -3.80119722812500 -5.99365123437499 -1.21740503437500 
 S -1.58345222812500 -7.22123823437499 3.454996562500146E-002
 S -0.662664228124997 -2.71311123437499 -4.23769203437500 
 S -3.61053722812500 -1.84767523437499 -1.37352403437500 
 S -1.37469822812500 -3.15026323437499 -0.192011034374999 
