16

 C -2.53830101875000 -6.26715159062501 -2.36900119687500 
 C -1.36882701875000 -6.89173859062501 -1.88903119687500 
 C -2.62394201875000 -2.95813859062501 -2.36031619687500 
 C -1.47219001875000 -3.36753759062501 -1.65841719687500 
 N -0.440036018750003 -7.23507459062501 -2.75519019687500 
 N -2.49616901875000 -6.16945659062501 -3.68938419687500 
 N -3.01484501875000 -6.64062859062501 4.141880312499979E-002
 N -0.381131018750002 -3.60249859062501 -2.42007319687500 
 N -2.48780601875000 -2.83140659062501 -3.67838719687500 
 N -3.27104001875000 -2.70486459062501 8.245480312499964E-002
 S -1.05246701875000 -6.78114359062501 -4.23150519687500 
 S -3.78197801875000 -6.07012559062501 -1.27495119687500 
 S -1.46945201875000 -7.28550059062501 -0.194802196875000 
 S -0.916130018750002 -3.32284559062501 -3.97583919687500 
 S -3.99486601875000 -2.43871059062501 -1.36889519687500 
 S -1.74664001875000 -3.40842159062501 1.975480312499966E-002
