16

 C -2.30028858437501 -6.37911078437500 -2.64403720000000 
 C -1.09626958437501 -6.81209778437500 -1.99801720000000 
 C -2.77325158437501 -2.71828378437500 -2.33467620000000 
 C -1.61046458437501 -2.99068978437500 -1.64043020000000 
 N -7.853858437500527E-002 -7.10954878437500 -2.80638720000000 
 N -2.18441358437501 -6.35486678437500 -3.97377820000000 
 N -2.80429758437501 -6.43637378437500 -7.637520000000197E-002
 N -0.567677584375006 -3.12054878437500 -2.42583020000000 
 N -2.63727158437501 -2.61209778437500 -3.65008620000000 
 N -3.44773758437501 -2.87299478437500 0.130608799999998 
 S -0.656600584375005 -6.79250878437500 -4.33236120000000 
 S -3.55152158437501 -6.08402478437500 -1.49991720000000 
 S -1.18677058437501 -6.88573578437500 -0.205335200000002 
 S -1.05969458437501 -3.03177278437500 -3.95970720000000 
 S -4.07473658437501 -2.27268078437500 -1.25997020000000 
 S -1.80580458437501 -3.10671578437500 8.096579999999798E-002
