16

 C -2.16021590625000 -6.77321090312500 -2.49616457812500 
 C -1.05102990625000 -7.38654690312500 -1.79482657812500 
 C -2.55877390625000 -2.65272390312500 -2.58426157812500 
 C -1.34127690625000 -3.02530090312500 -1.86194757812500 
 N -5.364090625000273E-002 -7.74731590312500 -2.62256357812500 
 N -2.07408790625000 -6.69863090312500 -3.80082157812500 
 N -2.74270590625000 -6.67816490312500 6.113842187499885E-002
 N -0.331202906250002 -3.35328190312500 -2.64045657812500 
 N -2.38018690625000 -2.55013990312500 -3.90708257812500 
 N -3.20503590625000 -2.83716290312500 -0.151174578125001 
 S -0.577017906250003 -7.43731190312500 -4.21520757812500 
 S -3.47287690625000 -6.41892190312500 -1.34535257812500 
 S -1.28630790625000 -7.47272190312500 -7.438357812500129E-002
 S -0.944248906250003 -3.19425290312500 -4.20956457812500 
 S -3.94049790625000 -2.41159090312500 -1.58131257812500 
 S -1.51360090625000 -3.08806490312500 -9.380457812500120E-002
