16

 C -2.42081351875001 -6.31881505625000 -2.53369223750000 
 C -1.25815251875001 -6.88011105625000 -1.91432323750000 
 C -2.18559751875001 -2.84028505625000 -2.31106623750000 
 C -0.972565518750006 -3.44134405625000 -1.83835123750000 
 N -0.165185518750007 -7.05187905625000 -2.66535523750000 
 N -2.22526251875001 -6.09403805625000 -3.81822423750000 
 N -3.07295351875001 -6.52010705625000 -9.164723750000214E-002
 N 3.281048124999320E-002 -3.50878605625000 -2.70783423750000 
 N -2.18905251875001 -2.49051205625000 -3.59832423750000 
 N -2.57662251875001 -3.37498405625000 0.190285762499998 
 S -0.639489518750007 -6.52748105625000 -4.19795323750000 
 S -3.70959751875001 -5.92919205625000 -1.49667923750000 
 S -1.52898651875001 -7.03705505625000 -0.209565237500002 
 S -0.638323518750006 -2.86984405625000 -4.14321723750000 
 S -3.53716351875001 -2.94676805625000 -1.08259423750000 
 S -1.02923551875001 -3.93317905625000 -0.174009237500002 
