16

 C -2.61430232187500 -6.69910218437500 -2.27073929062500 
 C -1.36272532187500 -7.02195818437500 -1.61986929062500 
 C -2.68388232187500 -2.39621018437500 -2.31692429062500 
 C -1.53842432187500 -2.97243318437500 -1.70482929062500 
 N -0.344112321875000 -7.06800718437500 -2.48383529062500 
 N -2.49346532187500 -6.45077518437500 -3.57925429062500 
 N -3.24099332187500 -6.78977318437500 0.173231709375000 
 N -0.518012321874999 -3.20502518437500 -2.51761429062500 
 N -2.52637132187500 -2.23793718437500 -3.61807729062500 
 N -3.46544632187500 -2.84487418437500 4.511070937499984E-002
 S -0.917037321874999 -6.66038418437500 -4.00316929062500 
 S -4.00116332187500 -6.52977118437500 -1.23699329062500 
 S -1.61072932187500 -7.17361318437500 0.107604709375000 
 S -0.968475321874999 -2.76345418437500 -4.06345629062500 
 S -4.06491932187500 -2.05432918437500 -1.28028229062500 
 S -1.84704032187500 -3.31381818437500 -2.357290625000230E-003
