16

 C -2.49273550000000 -6.55768479062500 -2.28024979062500 
 C -1.28406250000000 -7.17578979062500 -1.76227979062500 
 C -2.66273250000000 -2.56055779062500 -2.40393279062500 
 C -1.65350550000000 -3.22711679062500 -1.65716279062500 
 N -0.262995500000002 -7.34412679062500 -2.63373279062500 
 N -2.40528650000000 -6.26849779062500 -3.57899779062500 
 N -3.00370050000000 -6.96185479062500 0.239197209375001 
 N -0.604400500000002 -3.66411679062500 -2.37946479062500 
 N -2.40933750000000 -2.32663079062500 -3.70360879062500 
 N -3.43920450000000 -2.50358279062500 0.102654209375000 
 S -0.871720500000002 -6.79225979062500 -4.07354179062500 
 S -3.74753750000000 -6.48765179062500 -1.13347179062500 
 S -1.43956350000000 -7.46101279062500 -7.660279062499953E-002
 S -0.937729500000002 -3.00731979062500 -3.93419479062500 
 S -4.03887450000000 -2.01189179062500 -1.32912479062500 
 S -1.99711750000000 -3.35616079062500 5.418820937500035E-002
