16

 C -2.40624471875000 -6.60577040937500 -2.44075659062500 
 C -1.21957371875000 -7.20752640937500 -1.86884859062500 
 C -2.73618371875000 -2.80818340937500 -2.56528659062500 
 C -1.60790371875000 -3.31320240937500 -1.82820559062500 
 N -0.204333718750004 -7.27214140937500 -2.72522059062500 
 N -2.27826271875000 -6.24670140937500 -3.72733859062500 
 N -3.00130471875000 -6.92206440937500 0.107470409375001 
 N -0.580371718750003 -3.63087040937500 -2.58459659062500 
 N -2.51870971875000 -2.57196040937500 -3.83750959062500 
 N -3.45404171875000 -3.09287840937500 -0.124309590624999 
 S -0.775939718750004 -6.72282640937500 -4.18081259062500 
 S -3.74877971875000 -6.41916540937500 -1.26793259062500 
 S -1.46861371875000 -7.52691540937500 -0.156366590624999 
 S -0.929799718750004 -3.19291440937500 -4.09521159062500 
 S -4.05680371875000 -2.51342040937500 -1.54887059062500 
 S -1.82578271875000 -3.50155940937500 -0.163441590624999 
