16

 C -2.41657082812501 -6.57432910312500 -2.40699973125000 
 C -1.13569482812501 -6.89784810312500 -1.76279773125000 
 C -2.20718282812501 -3.28676410312500 -2.27008873125000 
 C -0.989137828125006 -3.61369010312500 -1.56845673125000 
 N -0.182741828125006 -7.24967010312500 -2.65005973125000 
 N -2.40623682812501 -6.57102010312500 -3.76018373125000 
 N -2.84077782812501 -6.60522010312500 0.177367268750001 
 N 0.104245171874994 -3.84307710312500 -2.31505473125000 
 N -2.06162682812501 -3.25497210312500 -3.58602973125000 
 N -2.75154682812501 -3.21014010312500 0.243409268750002 
 S -0.844779828125006 -6.95462310312500 -4.14247573125000 
 S -3.66720582812501 -6.39263610312500 -1.22487673125000 
 S -1.19213382812501 -6.94026210312500 -2.969573124999858E-002
 S -0.493651828125006 -3.61489610312500 -3.92692473125000 
 S -3.57897682812501 -3.13644910312500 -1.20429573125000 
 S -1.13402882812501 -3.63217710312500 0.192685268750002 
