16

 C -2.38627790625000 -6.38472533125000 -2.23114732812500 
 C -1.16227090625000 -6.90854833125000 -1.69708832812500 
 C -2.52013790625000 -2.73723333125000 -2.43501932812500 
 C -1.45303690625000 -3.33581233125000 -1.74978932812500 
 N -0.182528906250000 -6.91916733125000 -2.59660732812500 
 N -2.36239390625000 -6.11664833125000 -3.52395132812500 
 N -2.80574590625000 -6.92021833125000 0.192043671875002 
 N -0.438832906250000 -3.72622233125000 -2.49879132812500 
 N -2.29746690625000 -2.57295433125000 -3.74687432812500 
 N -3.26112990625000 -3.00986333125000 4.950671875002310E-003
 S -0.874996906250000 -6.54835133125000 -4.05451932812500 
 S -3.75729390625000 -6.40937533125000 -1.10571732812500 
 S -1.20823290625000 -7.30088633125000 -7.515632812499762E-002
 S -0.772585906250000 -3.12430133125000 -4.02245932812500 
 S -3.91673590625000 -2.48770333125000 -1.47436932812500 
 S -1.72111190625000 -3.60234933125000 -8.019432812499749E-002
