16

 C -2.34568107812500 -6.08341610312499 -2.21309764062500 
 C -1.17349507812500 -6.66083910312499 -1.63555264062500 
 C -2.64379307812500 -2.44900210312499 -2.61873164062500 
 C -1.38219707812500 -2.85565210312499 -1.95730664062500 
 N -0.184552078125001 -6.91399010312499 -2.49676264062500 
 N -2.22877407812500 -5.82733910312500 -3.52131464062500 
 N -2.70100307812500 -6.24568810312499 0.399484359374999 
 N -0.393984078125000 -3.00120510312499 -2.83278464062500 
 N -2.58322407812500 -2.41144710312499 -3.93046064062500 
 N -3.15644207812500 -2.43153810312499 -3.953064062500045E-002
 S -0.715769078125001 -6.44660810312499 -4.00731264062500 
 S -3.58414707812500 -5.82294110312499 -0.979842640625000 
 S -1.17855707812500 -6.88576410312499 0.109281359374999 
 S -1.00857707812500 -2.80136910312499 -4.31351064062500 
 S -3.97020807812500 -2.01225910312500 -1.47256364062500 
 S -1.55681507812500 -2.90278810312499 -0.190471640625000 
