16

 C -2.29790550937501 -6.64463176249999 -2.38299157187500 
 C -1.14954050937501 -7.18946476249999 -1.70719057187500 
 C -2.48153150937501 -2.53980276249999 -2.32873357187500 
 C -1.49834250937501 -3.46199676249999 -1.78579357187500 
 N -0.105663509375006 -7.44546276249999 -2.48602257187500 
 N -2.18166350937501 -6.44636076249999 -3.68666957187500 
 N -3.07898550937501 -7.15200476249999 -5.375718750002534E-004
 N -0.517229509375006 -3.81593776249999 -2.59270357187500 
 N -2.30773850937501 -2.23892476249999 -3.59808057187500 
 N -2.96181050937501 -2.71688476249999 0.267507428125000 
 S -0.629455509375005 -7.00829276249999 -3.98064157187500 
 S -3.68647850937501 -6.48511076249999 -1.36166557187500 
 S -1.36967450937501 -7.37637676249999 1.327142812499971E-002
 S -0.954683509375005 -3.11714776249999 -4.10033657187500 
 S -3.59704450937501 -2.00827576249999 -1.13651957187500 
 S -1.69214050937501 -3.78222376249999 -4.919057187500031E-002
