16

 C -2.36128943750000 -6.53787083437500 -2.48288363750000 
 C -1.10288343750000 -6.80055883437500 -1.76369563750000 
 C -2.38939343750000 -3.40984983437500 -2.28515663750000 
 C -1.13850443750000 -3.47282883437500 -1.56145063750000 
 N -9.163437500003369E-003 -7.05729283437500 -2.52247263750000 
 N -2.20784343750000 -6.61196283437500 -3.82046463750000 
 N -2.95684343750000 -6.63197183437500 2.498436250000147E-002
 N -9.528143750000329E-002 -3.61034683437500 -2.33310663750000 
 N -2.30920143750000 -3.36864083437500 -3.59695963750000 
 N -2.94743443750000 -3.40638683437500 0.246827362500001 
 S -0.608117437500003 -6.86507583437500 -4.08451363750000 
 S -3.72071343750000 -6.29893283437500 -1.40007363750000 
 S -1.32080143750000 -6.93313383437500 -4.190363749999859E-002
 S -0.731981437500003 -3.55871383437500 -3.97847363750000 
 S -3.72437043750000 -3.28920383437500 -1.17409463750000 
 S -1.30291643750000 -3.52321683437500 0.147854362500002 
