16

 C -2.32187433437501 -6.41486271875000 -2.17307569375000 
 C -1.15679833437501 -6.97755671875000 -1.58889269375000 
 C -2.34573833437500 -2.75457171875000 -2.63647869375000 
 C -1.13151733437501 -3.18196271875000 -1.98337969375000 
 N -9.434933437500526E-002 -6.99619271875000 -2.39886269375000 
 N -2.14894633437501 -6.04929071875000 -3.44181269375000 
 N -2.87381633437501 -7.00402571875000 0.306575306250000 
 N -0.131519334375005 -3.39541371875000 -2.77688369375000 
 N -2.15125333437501 -2.59248671875000 -3.92511569375000 
 N -2.89032033437501 -2.68107471875000 -0.173057693750000 
 S -0.539357334375005 -6.24950471875000 -3.80337269375000 
 S -3.64382233437501 -6.31718671875000 -0.989787693749999 
 S -1.29213633437501 -7.33230271875000 0.101488306250000 
 S -0.627836334375005 -3.11593171875000 -4.34979469375000 
 S -3.66961133437501 -2.41821971875000 -1.63937669375000 
 S -1.30726533437501 -3.21735971875000 -0.280409693750000 
