16

 C -2.48904201250000 -6.36196503750000 -2.54821802812500 
 C -1.30584401250000 -6.96723103750000 -1.95699902812500 
 C -2.37661301250000 -2.58360503750000 -2.45540102812500 
 C -1.22651901250000 -3.17615303750000 -1.77486202812500 
 N -0.245452012499996 -7.08860403750000 -2.76054402812500 
 N -2.27799601250000 -6.05455603750000 -3.82818802812500 
 N -3.24006501250000 -6.76157103750000 -6.936702812500073E-002
 N -0.285387012499996 -3.55589503750000 -2.61840502812500 
 N -2.24292601250000 -2.45370303750000 -3.76810802812500 
 N -2.98471301250000 -2.67422103750000 3.462097187499924E-002
 S -0.764590012499996 -6.46809903750000 -4.19674402812500 
 S -3.80886001250000 -6.11633003750000 -1.46418402812500 
 S -1.60253601250000 -7.25610603750000 -0.180981028125001 
 S -0.723837012499995 -3.01297503750000 -4.16863102812500 
 S -3.73112301250000 -2.16222603750000 -1.35240202812500 
 S -1.49520401250000 -3.44587503750000 -0.113706028125001 
