16

 C -2.45721690625001 -6.38846058750000 -2.46773490625000 
 C -1.16034190625001 -6.59684758750000 -1.73909290625000 
 C -2.24918890625001 -2.82851258750000 -2.42574790625000 
 C -0.958324906250007 -3.21731858750000 -1.78220890625000 
 N -6.827690625000660E-002 -6.74565458750000 -2.49297490625000 
 N -2.27238490625001 -6.35267058750000 -3.75552590625000 
 N -3.10403690625001 -6.44995158750000 2.358093749999846E-003
 N -9.531906250007438E-003 -3.33113758750000 -2.66281290625000 
 N -2.21068990625001 -2.75126758750000 -3.76216590625000 
 N -2.60053490625001 -3.26107158750000 0.151699093750000 
 S -0.624593906250007 -6.57286058750000 -4.04607090625000 
 S -3.84516190625001 -6.17773158750000 -1.44961690625000 
 S -1.41726290625001 -6.84156858750000 -1.416490625000022E-002
 S -0.615230906250007 -2.94413658750000 -4.15647790625000 
 S -3.56022290625001 -2.83191758750000 -1.20452890625000 
 S -0.964584906250007 -3.54986558750000 -7.368690625000007E-002
