16

 C -2.43423880937499 -6.53500494062500 -2.53808460312500 
 C -1.23861180937499 -6.81545894062500 -1.84377760312500 
 C -2.38316980937499 -3.20872094062500 -2.12599360312500 
 C -1.13800880937499 -3.61642694062500 -1.49929860312500 
 N -0.177241809374992 -6.89940494062500 -2.65745960312500 
 N -2.35543980937499 -6.54811494062500 -3.88289860312500 
 N -2.94129880937499 -6.57510994062500 -5.409760312500045E-002
 N -0.152452809374992 -3.80047294062500 -2.37659260312500 
 N -2.25202980937499 -2.95343694062500 -3.40609760312500 
 N -2.88626380937499 -3.55872494062500 0.345757396874999 
 S -0.743650809374993 -6.80115794062500 -4.16616160312500 
 S -3.77976180937499 -6.36799194062500 -1.43106260312500 
 S -1.31533680937499 -6.77367894062500 -0.188793603125000 
 S -0.699231809374992 -3.35100994062500 -3.88404960312500 
 S -3.71449180937499 -3.30832694062500 -1.08092760312500 
 S -1.20743380937499 -3.72856194062500 0.201318396874999 
