16

 C -2.42562659687500 -6.46752376562500 -2.53814951562500 
 C -1.16566559687500 -6.86146476562500 -1.94299351562500 
 C -2.51530059687500 -2.51883676562500 -2.35627751562500 
 C -1.44949359687500 -3.12256476562500 -1.64439451562500 
 N -0.110222596875003 -6.94229876562500 -2.74183751562500 
 N -2.26257759687500 -6.22592776562500 -3.83196451562500 
 N -2.98747759687500 -6.86131376562500 -8.907151562500060E-002
 N -0.373313596875003 -3.39795376562500 -2.36706251562500 
 N -2.31693559687500 -2.44667276562500 -3.68044551562500 
 N -3.26860559687500 -2.85675076562500 1.748848437499939E-002
 S -0.651154596875003 -6.55930276562500 -4.24033651562500 
 S -3.81201859687500 -6.54506176562500 -1.50514851562500 
 S -1.30060259687500 -7.25472876562500 -0.219780515625001 
 S -0.838030596875003 -3.04921276562500 -3.94288751562500 
 S -3.95419259687500 -2.23955276562500 -1.36568351562500 
 S -1.64868759687500 -3.22325576562500 8.445048437499936E-002
