16

 C -2.49643980625001 -6.46695126250000 -2.38795815937500 
 C -1.23767380625001 -6.82006826250000 -1.82946915937500 
 C -2.32360280625001 -2.91577826250000 -2.44429915937500 
 C -1.04807980625001 -3.32963926250000 -1.78266215937500 
 N -0.248325806250010 -6.98110726250000 -2.71529315937500 
 N -2.45611580625001 -6.31413026250000 -3.69858915937500 
 N -2.93423580625001 -6.51772126250000 0.185744840625003 
 N -3.599080625000983E-002 -3.48581326250000 -2.64591215937500 
 N -2.24282580625001 -2.89077126250000 -3.78820115937500 
 N -2.83102880625001 -3.19139526250000 0.113033840625003 
 S -0.940867806250010 -6.71997826250000 -4.21191715937500 
 S -3.77678780625001 -6.27808226250000 -1.22847015937500 
 S -1.34858080625001 -6.93007126250000 -2.271115937499646E-002
 S -0.655545806250010 -3.19745426250000 -4.14118815937500 
 S -3.64163880625001 -2.70671726250000 -1.26403815937500 
 S -1.22021880625001 -3.49505926250000 -8.490515937499676E-002
