16

 C -2.26412917187500 -6.47332817500000 -2.43569434375000 
 C -1.12671417187500 -6.96089017500000 -1.73641434375000 
 C -2.59404317187500 -2.69470417500000 -2.59636734375000 
 C -1.31995817187500 -3.01578217500000 -1.93226334375000 
 N -0.100161171875004 -7.24297917500000 -2.52804134375000 
 N -2.15381417187500 -6.28713317500000 -3.75961134375000 
 N -2.92074517187500 -6.31914617500000 0.106819656250001 
 N -0.268383171875004 -3.20207717500000 -2.77768834375000 
 N -2.50428617187500 -2.59399817500000 -3.93284434375000 
 N -3.13232417187500 -2.90895717500000 -2.786334374999910E-002
 S -0.605656171875005 -6.89180917500000 -4.08494934375000 
 S -3.66471417187500 -6.02186817500000 -1.35129834375000 
 S -1.35673617187500 -6.78273217500000 1.438465625000074E-002
 S -0.885208171875004 -2.78983017500000 -4.24742234375000 
 S -3.96972917187500 -2.61389517500000 -1.47638734375000 
 S -1.47731017187500 -3.07791917500000 -0.189593343749999 
