16

 C -2.19977131562500 -6.42583354375001 -2.41030360937500 
 C -0.952014315624996 -6.83273654375001 -1.79568960937500 
 C -2.56902531562500 -2.94381154375001 -2.54467260937500 
 C -1.42165731562500 -3.36205554375001 -1.85085060937500 
 N 3.731268437500290E-002 -6.94098554375001 -2.66877460937500 
 N -2.09929931562500 -6.19875654375001 -3.73696560937500 
 N -2.72452731562500 -6.76923154375001 0.105086390625000 
 N -0.320650315624997 -3.59444454375001 -2.55459660937500 
 N -2.31088631562500 -2.72490454375001 -3.82244160937500 
 N -3.30755431562500 -2.88369654375001 -5.142760937499991E-002
 S -0.553501315624997 -6.51990154375001 -4.17660360937500 
 S -3.58444731562500 -6.36089754375001 -1.27160360937500 
 S -1.08935831562500 -6.93741054375001 -8.578960937499969E-002
 S -0.767720315624997 -3.14015554375001 -4.09604360937500 
 S -3.92864431562500 -2.42800854375001 -1.57627560937500 
 S -1.70176131562500 -3.31210054375001 -9.873560937500003E-002
