16

 C -2.43144443125000 -6.36705974687500 -2.52068641250000 
 C -1.26599643125000 -6.85158074687500 -1.83152541250000 
 C -2.38661843125000 -2.54429574687500 -2.48628841250000 
 C -1.35949143125000 -3.28536774687500 -1.85697241250000 
 N -0.223562431249996 -7.06767174687500 -2.60016941250000 
 N -2.27334143125000 -6.16965574687500 -3.82548141250000 
 N -3.20740543125000 -6.77566974687500 -0.117750412500002 
 N -0.295779431249996 -3.56991374687500 -2.59639841250000 
 N -2.16207143125000 -2.29969974687500 -3.77752141250000 
 N -2.97584343125000 -2.77118874687500 5.533758749999795E-002
 S -0.650041431249996 -6.53503874687500 -4.19744541250000 
 S -3.84257343125000 -6.12519774687500 -1.55346341250000 
 S -1.60741343125000 -7.06345874687500 -0.105349412500002 
 S -0.687354431249997 -3.07607474687500 -4.10677741250000 
 S -3.64867743125000 -2.22287074687500 -1.35946141250000 
 S -1.43027543125000 -3.36626674687500 -0.107231412500002 
