16

 C -2.60558973437499 -6.79891675937500 -2.32555830937500 
 C -1.33722373437499 -7.15079975937500 -1.77764930937500 
 C -2.38479473437499 -3.09531975937500 -2.31110630937500 
 C -1.13796473437499 -3.54881875937500 -1.79207630937500 
 N -0.311555734374991 -7.28745775937500 -2.60237630937500 
 N -2.53303673437499 -6.62764975937500 -3.64740230937500 
 N -2.92341373437499 -6.78880475937500 0.238740690625000 
 N -0.140762734374992 -3.73092175937500 -2.63347630937500 
 N -2.31838973437499 -2.90272175937500 -3.64850430937500 
 N -2.73378073437499 -3.32310575937500 0.170756690625000 
 S -0.986501734374992 -7.02050875937500 -4.12755830937500 
 S -3.85934373437499 -6.44291875937500 -1.13960430937500 
 S -1.35268973437499 -7.18454475937500 -2.660530937500027E-002
 S -0.790091734374991 -3.29138875937500 -4.17690930937500 
 S -3.55095373437499 -2.79909075937500 -1.13534130937500 
 S -1.20477973437499 -3.90721375937500 -0.120059309375000 
