16

 C -2.54208334062500 -6.66460196250001 -2.37485123437500 
 C -1.34992734062500 -7.09944296250001 -1.71801923437500 
 C -2.47243534062500 -2.86614196250001 -2.37439023437500 
 C -1.30430634062500 -3.49421996250001 -1.80934923437500 
 N -0.311833340625003 -7.32698896250001 -2.51727023437500 
 N -2.46063634062500 -6.47578396250001 -3.67488823437500 
 N -3.10217434062500 -6.78360596250001 0.166069765625003 
 N -0.313796340625003 -3.67668696250001 -2.69106123437500 
 N -2.42836834062500 -2.65700596250001 -3.66880023437500 
 N -2.88720034062500 -3.33790296250001 0.165453765625003 
 S -0.908985340625002 -6.89406796250001 -4.06158923437500 
 S -3.94191834062500 -6.59742596250001 -1.28244923437500 
 S -1.54658634062500 -7.30961996250001 6.026765625003261E-003
 S -0.951244340625003 -3.15604996250001 -4.23995623437500 
 S -3.72536534062500 -2.70440396250001 -1.14222823437500 
 S -1.21177534062500 -3.60805596250001 -0.119443234374997 
