16

 C -2.47764453437500 -6.61234009375000 -2.47391184062500 
 C -1.29499853437500 -7.16225209375000 -1.84411584062500 
 C -2.69180853437500 -2.75261309375000 -2.51368384062500 
 C -1.57293753437500 -3.35926709375000 -1.84900284062500 
 N -0.247715534374997 -7.27103509375000 -2.69896784062500 
 N -2.31321853437500 -6.27602409375000 -3.72532384062500 
 N -3.04706653437500 -6.87075409375000 7.329159374999783E-003
 N -0.543104534374996 -3.72322309375000 -2.59313684062500 
 N -2.52188753437500 -2.67656009375000 -3.83838784062500 
 N -3.44782853437500 -3.21940209375000 -0.130292840625000 
 S -0.745703534374996 -6.63431809375000 -4.14517384062500 
 S -3.80555353437500 -6.35618209375000 -1.42204684062500 
 S -1.38635653437500 -7.46791909375000 -0.131136840625000 
 S -0.989236534374997 -3.15078409375000 -4.10596184062500 
 S -4.08214853437500 -2.46032209375000 -1.49944484062500 
 S -1.83502553437500 -3.57198709375000 -0.172552840625000 
