16

 C -2.44882336250000 -6.51222160937500 -2.43378760000000 
 C -1.20586636250000 -6.76533060937500 -1.73520860000000 
 C -2.18723236250000 -2.97701060937500 -2.25688060000000 
 C -0.892198362500002 -3.30989760937500 -1.69719660000000 
 N -8.055036250000214E-002 -6.76833660937500 -2.48483360000000 
 N -2.25097336250000 -6.39836260937500 -3.75797860000000 
 N -3.03637636250000 -6.51281660937500 4.996839999999958E-002
 N 3.762963749999848E-002 -3.30557060937500 -2.65352460000000 
 N -2.18766836250000 -2.65322960937500 -3.54943560000000 
 N -2.60858436250000 -3.23081660937500 0.261525400000000 
 S -0.638084362500002 -6.50003860937500 -4.02144260000000 
 S -3.77975136250000 -6.33658060937500 -1.42208060000000 
 S -1.45074436250000 -6.86068960937500 4.579399999999678E-003
 S -0.655445362500002 -2.98294460937500 -4.07890560000000 
 S -3.45294236250000 -2.85360360937500 -1.06981460000000 
 S -1.04201736250000 -3.52476660937500 -3.378560000000030E-002
