16

 C -2.59440940937500 -6.69585165000000 -2.39725517812500 
 C -1.35146140937500 -7.12396565000000 -1.71793917812500 
 C -2.47930340937500 -2.84892265000000 -2.35600617812500 
 C -1.24354140937500 -3.36364665000000 -1.80090617812500 
 N -0.275096409375003 -7.19045965000000 -2.50200717812500 
 N -2.44949240937500 -6.48921265000000 -3.73323017812500 
 N -3.06931940937500 -6.91298165000000 0.170712821875001 
 N -0.299625409375003 -3.60597365000000 -2.65750517812500 
 N -2.47473640937500 -2.65557965000000 -3.67855717812500 
 N -2.95953640937500 -3.15721265000000 0.169149821875001 
 S -0.831287409375003 -6.76793165000000 -4.03037017812500 
 S -3.93061740937500 -6.51884165000000 -1.24140717812500 
 S -1.48149240937500 -7.25979265000000 -1.878817812499856E-002
 S -0.953424409375002 -3.12643265000000 -4.15575317812500 
 S -3.75658140937500 -2.64374665000000 -1.17642717812500 
 S -1.35476540937500 -3.51742965000000 -6.124817812499872E-002
