16

 C -2.34544339687500 -6.62206769062500 -2.34153107187500 
 C -1.07313439687500 -7.05724469062500 -1.72120007187500 
 C -2.87049239687500 -3.19699369062500 -2.19751907187500 
 C -1.62986039687500 -3.53968769062500 -1.48469507187500 
 N -5.150639687499670E-002 -7.34529669062500 -2.52794207187500 
 N -2.27151639687500 -6.59746669062500 -3.65482107187500 
 N -2.91165639687500 -6.95540069062500 0.150434928125001 
 N -0.614447396874998 -3.75982369062500 -2.29462807187500 
 N -2.81227539687500 -3.08384869062500 -3.51351507187500 
 N -3.51363939687500 -3.32876769062500 0.262240928125001 
 S -0.717037396874997 -7.05197369062500 -4.03974107187500 
 S -3.69802839687500 -6.50213869062500 -1.30549107187500 
 S -1.32551739687500 -7.20755969062500 3.296792812500104E-002
 S -1.19788239687500 -3.34153569062500 -3.83490007187500 
 S -4.23859539687500 -3.10835769062500 -1.16708207187500 
 S -1.91354539687500 -3.73026869062500 0.154921928125001 
