16

 C -2.38318499375000 -6.53968874062500 -2.47328181875000 
 C -1.17014099375000 -6.88853774062500 -1.86305181875000 
 C -2.67725099375000 -2.60417374062500 -2.35788581875000 
 C -1.55889099375000 -3.23259574062500 -1.73453781875000 
 N -0.134716993750000 -6.99860974062500 -2.68869981875000 
 N -2.35554899375000 -6.44688474062500 -3.80306281875000 
 N -2.89380699375000 -6.66934174062500 9.988918125000024E-002
 N -0.494666993749999 -3.41177174062500 -2.52230481875000 
 N -2.53165199375000 -2.45540374062500 -3.66475981875000 
 N -3.23821399375000 -2.81348774062500 0.153502181250000 
 S -0.753172993750000 -6.80834474062500 -4.23013781875000 
 S -3.68340799375000 -6.27072374062500 -1.35750381875000 
 S -1.32928199375000 -7.14576174062500 -0.174930818750000 
 S -1.02575599375000 -2.92201374062500 -4.04230781875000 
 S -3.94255299375000 -2.24792874062500 -1.26229181875000 
 S -1.73438799375000 -3.46515874062500 -3.163818749999825E-003
