16

 C -2.61382421875000 -6.70156561250000 -2.33144101562500 
 C -1.36316921875000 -7.12200061250000 -1.72850601562500 
 C -2.36610021875000 -3.08862561250000 -2.38359101562500 
 C -1.10146021875000 -3.53783661250000 -1.82024201562500 
 N -0.393628218750003 -7.32940961250000 -2.61679601562500 
 N -2.53271921875000 -6.63600561250000 -3.65081301562500 
 N -2.97766021875000 -6.80871361250000 0.203221984375001 
 N -0.186021218750002 -3.66449161250000 -2.77990401562500 
 N -2.38076821875000 -2.84688261250000 -3.66397401562500 
 N -2.72628021875000 -3.31138861250000 0.181346984375001 
 S -0.953018218750003 -7.01681461250000 -4.10877501562500 
 S -3.86375021875000 -6.48666661250000 -1.14767301562500 
 S -1.38355321875000 -7.20044761250000 -3.888401562499899E-002
 S -0.821931218750003 -3.26341361250000 -4.17998701562500 
 S -3.59616521875000 -2.76709261250000 -1.13106101562500 
 S -1.22464121875000 -3.91072461250000 -9.559801562499892E-002
