16

 C -2.60614836562501 -6.70662212187499 -2.26513693750000 
 C -1.36931236562501 -7.02455712187500 -1.63459093750000 
 C -2.68106236562501 -2.38582112187499 -2.30828993750000 
 C -1.54571136562501 -2.99828412187499 -1.67607193750000 
 N -0.333247365625006 -7.07698912187499 -2.48563493750000 
 N -2.48394536562501 -6.46037812187499 -3.56790393750000 
 N -3.23180336562501 -6.79993512187500 0.169421062499999 
 N -0.536185365625006 -3.19929212187500 -2.52224493750000 
 N -2.53867736562501 -2.25525712187499 -3.61964293750000 
 N -3.47562436562501 -2.83202812187499 5.846206249999852E-002
 S -0.932372365625006 -6.67323212187500 -3.99836693750000 
 S -3.97662836562501 -6.52523212187499 -1.22619193750000 
 S -1.62006836562501 -7.18960012187499 0.103003062499998 
 S -0.960997365625006 -2.76751212187499 -4.05349393750000 
 S -4.05606136562501 -2.05134312187499 -1.28837293750000 
 S -1.86578036562501 -3.32060512187500 -7.800937500001659E-003
