16

 C -2.48457177500000 -6.61390934687500 -2.34190777187500 
 C -1.20832777500000 -7.00208034687500 -1.75542877187500 
 C -2.15259077500000 -3.18390034687500 -2.22405677187500 
 C -0.956309775000005 -3.65496534687500 -1.62997777187500 
 N -0.273205775000005 -7.15871634687500 -2.66780977187500 
 N -2.43989177500000 -6.53937134687500 -3.68024477187500 
 N -2.79937377500000 -6.73864834687500 0.209346228125001 
 N 3.316122499999530E-002 -3.91241734687500 -2.51261577187500 
 N -2.08917577500000 -3.06533634687500 -3.58320377187500 
 N -2.77259177500000 -3.28703934687500 0.248286228125001 
 S -0.913715775000004 -7.04188734687500 -4.16059377187500 
 S -3.74420477500000 -6.38565734687500 -1.14625177187500 
 S -1.21191777500000 -6.99656434687500 -6.739777187499918E-002
 S -0.546342775000005 -3.56502334687500 -3.96075077187500 
 S -3.51821677500000 -3.05793234687500 -1.21608677187500 
 S -1.14804877500000 -3.68965034687500 0.132370228125001 
