16

 C -2.59758464375001 -6.66365790625000 -2.28287710312500 
 C -1.35493864375001 -7.05364390625000 -1.64696610312500 
 C -2.67851264375001 -2.40602390625000 -2.36321110312500 
 C -1.58449164375001 -3.03915590625000 -1.68864710312500 
 N -0.307872643750008 -7.11673190625000 -2.46068210312500 
 N -2.52434164375001 -6.47391290625000 -3.59519710312500 
 N -3.15957364375001 -6.83557790625000 0.223642896875001 
 N -0.523400643750008 -3.25060090625000 -2.45078710312500 
 N -2.55733564375001 -2.28517490625000 -3.67978310312500 
 N -3.45883264375001 -2.75924590625000 9.703489687500055E-002
 S -0.950533643750008 -6.73273790625000 -3.96980410312500 
 S -3.90381064375001 -6.50525590625000 -1.21313410312500 
 S -1.60989664375001 -7.27262790625000 7.131889687500048E-002
 S -0.990290643750008 -2.78062390625000 -3.96511110312500 
 S -4.00747064375001 -2.04335490625000 -1.32210310312500 
 S -1.93901664375001 -3.36126790625000 -2.990103124999477E-003
