16

 C -2.42615812500000 -6.73707005625000 -2.39584742500000 
 C -1.10005212500000 -7.03259905625000 -1.94054342500000 
 C -2.55189912500000 -2.90205605625000 -2.45452242500000 
 C -1.35965512500000 -3.45380505625000 -1.76638742500000 
 N -0.208695124999997 -7.09910405625000 -2.90351442500000 
 N -2.54908312500000 -6.54048005625000 -3.70552442500000 
 N -2.62726912500000 -7.14225505625000 8.857857500000077E-002
 N -0.327000124999996 -3.60824505625000 -2.58245842500000 
 N -2.35348712500000 -2.74220405625000 -3.77708642500000 
 N -3.15628312500000 -3.12441605625000 -2.207342499999920E-002
 S -1.01019812500000 -6.74355405625000 -4.35228242500000 
 S -3.68865212500000 -6.73850905625000 -1.18200542500000 
 S -1.02874112500000 -7.36094905625000 -0.244582424999999 
 S -0.754683124999996 -3.16933605625000 -4.05392942500000 
 S -3.88476512500000 -2.59336405625000 -1.45201942500000 
 S -1.61958012500000 -3.75606605625000 -8.293242499999942E-002
