16

 C -2.47860826250001 -6.69046715625000 -2.46572538750000 
 C -1.17720126250001 -7.00249815625000 -1.87890138750000 
 C -2.58505826250001 -2.92392115625000 -2.24164838750000 
 C -1.35449526250001 -3.33631615625000 -1.67593238750000 
 N -0.201257262500006 -7.21252115625000 -2.73672738750000 
 N -2.44913326250001 -6.68742815625000 -3.77570238750000 
 N -2.93356826250001 -6.88102115625000 0.127149612499998 
 N -0.356298262500006 -3.38340515625000 -2.56564138750000 
 N -2.51876926250001 -2.64396115625000 -3.53852438750000 
 N -3.02805826250001 -3.05886815625000 0.297471612499998 
 S -0.853126262500006 -6.94279715625000 -4.24804438750000 
 S -3.69110226250001 -6.40447415625000 -1.28683138750000 
 S -1.31053326250001 -7.12683915625000 -0.107979387500002 
 S -0.989269262500006 -3.02061815625000 -4.03450538750000 
 S -3.82923226250001 -2.45869415625000 -1.02585038750000 
 S -1.40740226250001 -3.46781215625000 4.869061249999818E-002
