16

 C -2.21865439062500 -6.41193007187500 -2.18604021250000 
 C -1.05476839062500 -6.99253907187500 -1.54843221250000 
 C -2.45790739062500 -2.68467007187500 -2.31302621250000 
 C -1.18319639062500 -3.28843807187500 -1.72849021250000 
 N -4.493739062500168E-002 -7.22098607187500 -2.38014121250000 
 N -2.09758339062500 -6.18558007187500 -3.51646521250000 
 N -2.73987839062500 -6.82116207187500 0.325865787499999 
 N -0.225044390625001 -3.53438107187500 -2.61939121250000 
 N -2.28320739062500 -2.29495807187500 -3.57739221250000 
 N -2.94193339062500 -3.16216907187500 0.201728787499999 
 S -0.570974390625001 -6.77969607187500 -3.87709021250000 
 S -3.63574939062500 -6.41031407187500 -1.07190721250000 
 S -1.14156339062500 -7.27406807187500 0.147027787499999 
 S -0.810537390625002 -2.79606107187500 -4.04214321250000 
 S -3.71277739062500 -2.57189007187500 -1.17055021250000 
 S -1.33248539062500 -3.60286807187500 1.967078749999862E-002
