16

 C -2.61521817812500 -6.67124926250000 -2.37393295000000 
 C -1.40926417812500 -7.07116526250000 -1.72320595000000 
 C -2.51490617812500 -2.90068326250000 -2.35081995000000 
 C -1.25872317812500 -3.38606026250000 -1.83149595000000 
 N -0.391547178124998 -7.27794726250000 -2.54088795000000 
 N -2.45021717812500 -6.53769126250000 -3.67823895000000 
 N -3.12009317812500 -6.83643726250000 0.134877050000002 
 N -0.320559178124999 -3.64978326250000 -2.78512395000000 
 N -2.43843117812500 -2.62122726250000 -3.66765995000000 
 N -2.89337517812500 -3.27601226250000 0.166715050000002 
 S -0.816909178124998 -6.81359026250000 -4.03027095000000 
 S -3.91146417812500 -6.56182826250000 -1.25623995000000 
 S -1.50431217812500 -7.29567926250000 -1.135694999999792E-002
 S -0.926088178124998 -3.15780326250000 -4.18974495000000 
 S -3.76103317812500 -2.67193326250000 -1.14158395000000 
 S -1.29498317812500 -3.54129626250000 -5.983994999999798E-002
