16

 C -2.22867881249999 -6.50950887187500 -2.25518668125000 
 C -1.04280381249999 -7.15237887187500 -1.76224168125000 
 C -2.27201381249999 -2.67802987187500 -2.38653368125000 
 C -1.07779581249999 -3.13966387187500 -1.72740068125000 
 N -0.107767812499993 -7.36010287187500 -2.66554368125000 
 N -2.16644381249999 -6.28617687187500 -3.55502868125000 
 N -2.57753481249999 -6.55160287187500 0.231997318750002 
 N -7.066981249999227E-002 -3.36219187187500 -2.54881468125000 
 N -2.08991181249999 -2.45805087187500 -3.66893068125000 
 N -2.90215281249999 -2.91430287187500 -3.446868124999836E-002
 S -0.723198812499993 -6.75537087187500 -4.12575968125000 
 S -3.46114081249999 -6.04141987187500 -1.13834168125000 
 S -1.11997281249999 -7.38789387187500 -1.645268124999855E-002
 S -0.485085812499992 -2.82033287187500 -4.06807668125000 
 S -3.66766881249999 -2.37552187187500 -1.45826968125000 
 S -1.36747781249999 -3.51452287187500 -6.162468124999854E-002
