16

 C -2.31230131562500 -6.71514722500001 -2.32905960625000 
 C -1.13309831562500 -7.38129622500001 -1.80174560625000 
 C -2.65465431562500 -2.82509222500001 -2.61152060625000 
 C -1.53004031562500 -3.21323822500001 -1.84617760625000 
 N -0.183120315625004 -7.53684022500001 -2.68693660625000 
 N -2.27243631562500 -6.40452722500001 -3.64695760625000 
 N -2.83076531562500 -7.09913522500001 0.108048393750000 
 N -0.383265315625004 -3.41767922500001 -2.52080860625000 
 N -2.44773331562500 -2.78781822500001 -3.92694860625000 
 N -3.33634931562500 -2.66579722500001 -0.137659606250000 
 S -0.795043315625004 -6.99904522500001 -4.16276460625000 
 S -3.57793831562500 -6.38004022500001 -1.19206360625000 
 S -1.29959331562500 -7.67512722500001 -0.129600606250000 
 S -0.893402315625004 -3.09277522500001 -4.10399260625000 
 S -4.02651531562500 -2.50421622500001 -1.65757360625000 
 S -1.79725231562500 -3.27690622500001 -0.143144606250000 
