16

 C -2.42139112187499 -6.53078647812499 -2.33472717187500 
 C -1.22655112187499 -7.02295147812499 -1.60010217187500 
 C -2.45735612187499 -2.60128747812499 -2.53966617187500 
 C -1.23843412187499 -3.06556247812499 -1.85732717187500 
 N -0.262102121874994 -7.46052347812499 -2.42912117187500 
 N -2.37262812187499 -6.61251847812499 -3.67949317187500 
 N -2.94238612187499 -6.58171847812499 0.197740828125000 
 N -0.129297121874994 -3.04648847812499 -2.60325417187500 
 N -2.23469912187499 -2.25847947812500 -3.81713017187500 
 N -3.05221112187499 -2.76102747812500 4.952828125000197E-003
 S -0.846403121874994 -7.19476247812499 -3.95526417187500 
 S -3.82826112187499 -6.23417647812500 -1.24104117187500 
 S -1.46695412187499 -7.30070247812499 8.957882812500029E-002
 S -0.633601121874994 -2.60514347812499 -4.11766317187500 
 S -3.75264812187499 -2.29256247812499 -1.41708717187500 
 S -1.47941712187499 -3.36311447812500 -0.146677171875000 
