16

 C -2.48999742812500 -6.58155588124999 -2.44779280937500 
 C -1.17419342812500 -6.95058788124999 -1.92937880937500 
 C -2.62589042812500 -2.78375388124999 -2.48771680937500 
 C -1.48652842812500 -3.24163988124999 -1.81358380937500 
 N -0.251852428124995 -6.93838388124999 -2.86656080937500 
 N -2.58310142812500 -6.35500588124999 -3.73307880937500 
 N -2.85435442812500 -6.87748188124999 7.612719062500273E-002
 N -0.403281428124996 -3.53404888124999 -2.52216180937500 
 N -2.42208442812499 -2.73472288124999 -3.79127080937500 
 N -3.28411142812500 -2.67682988124999 -8.107380937499720E-002
 S -1.04769042812500 -6.55421088124999 -4.32869680937500 
 S -3.74073642812500 -6.46402888124999 -1.27421780937500 
 S -1.29005542812500 -7.41853088124999 -0.257205809374997 
 S -0.849796428124995 -3.28400888124999 -4.08203680937500 
 S -3.91282142812500 -2.12352588124999 -1.51973080937500 
 S -1.71807942812500 -3.24100788124999 -5.935380937499724E-002
