16

 C -2.38882769375000 -6.34633934062500 -2.42234130000000 
 C -1.14019869375000 -6.73498334062500 -1.79756430000000 
 C -2.34989969375000 -2.96276234062500 -2.43472230000000 
 C -1.06813569375000 -3.21590534062500 -1.80675930000000 
 N -0.162261693750005 -6.98243734062500 -2.65627330000000 
 N -2.39000669375000 -6.34235134062500 -3.72838330000000 
 N -2.90759569375000 -6.39503234062500 9.132369999999979E-002
 N -6.311269375000439E-002 -3.35007634062500 -2.64225430000000 
 N -2.27006769375000 -2.86684334062500 -3.75080930000000 
 N -2.75254369375000 -3.06305334062500 8.440769999999986E-002
 S -0.833385693750005 -6.72411334062500 -4.22417630000000 
 S -3.77045369375000 -6.27513334062500 -1.31664130000000 
 S -1.29660369375000 -6.90307734062500 -5.234730000000010E-002
 S -0.686983693750005 -3.21012634062500 -4.20531830000000 
 S -3.58250969375000 -2.70689234062500 -1.28082030000000 
 S -1.14267669375000 -3.49306134062500 -9.506430000000021E-002
