16

 C -2.51123327187500 -6.57535957500000 -2.63655499062500 
 C -1.31266127187500 -7.12211957500000 -1.96822699062500 
 C -2.22969827187500 -2.48864857500000 -2.32215599062500 
 C -1.02472627187500 -3.11885957500000 -1.89191199062500 
 N -0.309036271874995 -7.20454257500000 -2.82178599062500 
 N -2.39728527187500 -6.36215157500000 -3.96526999062500 
 N -2.87256127187500 -6.61215957500000 -1.389099062499821E-002
 N -0.147765271874995 -3.38231957500000 -2.88904899062500 
 N -2.27956527187500 -2.14342257500000 -3.59472199062500 
 N -2.74863127187500 -3.17927157500000 8.827900937500188E-002
 S -0.836327271874995 -6.79098857500000 -4.32503999062500 
 S -3.71247727187500 -6.33733657500000 -1.43327599062500 
 S -1.42835827187500 -7.26656457500000 -0.262829990624998 
 S -0.790150271874995 -2.58921057500000 -4.28676299062500 
 S -3.54120627187500 -2.48942757500000 -1.18442599062500 
 S -1.20156727187500 -3.60809257500000 -0.216896990624998 
