16

 C -2.23483348749999 -6.50111562187500 -2.47102671562500 
 C -1.10681348749999 -7.12961362187500 -1.85556571562500 
 C -2.34939748749999 -2.98896362187500 -2.30352371562500 
 C -1.17595948749999 -3.51527062187500 -1.65096671562500 
 N -4.544248749999369E-002 -7.23012862187500 -2.66361771562500 
 N -2.06417248749999 -6.21991262187500 -3.75629271562500 
 N -2.87227148749999 -6.79227562187500 2.840284375001056E-003
 N -0.179951487499993 -3.67577962187500 -2.45966271562500 
 N -2.28565148749999 -2.77537362187500 -3.60228271562500 
 N -2.92196348749999 -2.94866162187500 0.162522284375001 
 S -0.544892487499993 -6.82906462187500 -4.21091071562500 
 S -3.56690348749999 -6.20736562187500 -1.40717371562500 
 S -1.35354148749999 -7.38641562187500 -0.133032715624999 
 S -0.753223487499993 -3.17466762187500 -4.02055171562500 
 S -3.74827448749999 -2.75885062187500 -1.28614371562500 
 S -1.34238448749999 -3.52053262187500 8.802128437500123E-002
