16

 C -2.30355239375000 -6.37305916250000 -2.47659428437500 
 C -1.12706239375000 -6.74932016250000 -1.77122028437500 
 C -2.57964539375000 -2.66865416250000 -2.43676828437500 
 C -1.32640639375000 -2.91780616250000 -1.78983028437500 
 N -2.582239374999595E-002 -6.93145916250000 -2.50208028437500 
 N -2.16267939375000 -6.45278616250000 -3.76548828437500 
 N -3.07011539375000 -6.41173016250000 -4.411728437499973E-002
 N -0.297202393749996 -3.05278816250000 -2.59170828437500 
 N -2.43525739375000 -2.58705016250000 -3.74999128437500 
 N -3.19790139375000 -2.84174916250000 -2.416528437499976E-002
 S -0.613318393749996 -6.90289216250000 -4.07850828437500 
 S -3.70829139375000 -6.14723216250000 -1.53734928437500 
 S -1.43701639375000 -6.83189116250000 -2.999428437499962E-002
 S -0.823491393749996 -2.75808716250000 -4.15286128437500 
 S -3.99293439375000 -2.67756816250000 -1.48569028437500 
 S -1.56373739375000 -3.18958016250000 -0.119698284375000 
