16

 C -2.35803667812500 -6.42387551874999 -2.17790090312500 
 C -1.07137467812500 -6.84856351874999 -1.73217790312500 
 C -2.45745767812500 -2.78935051874999 -2.49210490312500 
 C -1.34246867812500 -3.32390351874999 -1.80600990312500 
 N -9.840067812499598E-002 -6.94477651874999 -2.63315290312500 
 N -2.38186167812500 -6.19074251874999 -3.49369390312500 
 N -2.62121367812500 -6.63705651874999 0.360439096875001 
 N -0.231870678124996 -3.43727151874999 -2.51932790312500 
 N -2.27236867812500 -2.57499851874999 -3.79401190312500 
 N -3.03028167812500 -2.75434451874999 5.494309687500087E-002
 S -0.832828678124995 -6.43887251874999 -4.06626590312500 
 S -3.46947567812500 -6.07817351874999 -0.976375903124999 
 S -1.04439467812500 -7.13074451874999 8.595309687500086E-002
 S -0.744196678124996 -3.05810851874999 -4.07167190312500 
 S -3.76740067812500 -2.34562051874999 -1.38900090312500 
 S -1.48246367812500 -3.39274351874999 -0.148712903124999 
