16

 C -2.48442259375000 -6.44687039687500 -2.20363106250000 
 C -1.21419259375000 -6.93447639687500 -1.75140206250000 
 C -2.53557059375000 -2.77162739687500 -2.51931006250000 
 C -1.39231259375000 -3.39704139687500 -1.78114606250000 
 N -0.188200593750002 -7.02480239687500 -2.60463606250000 
 N -2.43037759375000 -6.18294239687500 -3.51575206250000 
 N -2.85268059375000 -7.04623739687500 0.291999937500001 
 N -0.329045593750003 -3.63838239687500 -2.54179706250000 
 N -2.34137159375000 -2.59883239687500 -3.83885306250000 
 N -3.27849059375000 -3.07854339687500 -3.558906249999927E-002
 S -0.864569593750002 -6.55426939687500 -4.03993306250000 
 S -3.73238459375000 -6.36926339687500 -0.973632062499999 
 S -1.18681159375000 -7.37221239687500 -4.081906249999934E-002
 S -0.781500593750002 -3.15395339687500 -4.05411606250000 
 S -3.83536559375000 -2.39445839687500 -1.42079206250000 
 S -1.68871459375000 -3.60954039687500 -3.377306249999923E-002
