16

 C -2.31406153437500 -6.73441063125000 -2.32581770312500 
 C -1.12988453437500 -7.39102363125000 -1.81945270312500 
 C -2.65234353437500 -2.82728663125000 -2.62148170312500 
 C -1.53440353437500 -3.22352663125000 -1.83880870312500 
 N -0.175869534375003 -7.54790663125000 -2.69756970312500 
 N -2.26048653437500 -6.41231063125000 -3.64356970312500 
 N -2.84814153437500 -7.09662063125000 0.116028296874997 
 N -0.381831534375002 -3.39385963125000 -2.51887870312500 
 N -2.44849153437500 -2.78854663125000 -3.93567070312500 
 N -3.33967553437500 -2.66731763125000 -0.140502703125003 
 S -0.786872534375002 -7.00542763125000 -4.16925570312500 
 S -3.55834153437500 -6.38369363125000 -1.18366670312500 
 S -1.30659153437500 -7.66465063125000 -0.124079703125003 
 S -0.889670534375002 -3.09753863125000 -4.10225570312500 
 S -4.02536653437500 -2.49342363125000 -1.65601170312500 
 S -1.78334453437500 -3.26851863125000 -0.142194703125003 
