16

 C -2.36236426562500 -6.24187403750000 -2.38813417812500 
 C -1.27237626562500 -6.91763103750000 -1.76150417812500 
 C -2.50818726562500 -2.33201103750000 -2.50895817812500 
 C -1.42243926562500 -2.95216103750000 -1.74698017812500 
 N -0.231479265625000 -7.25006903750000 -2.57702117812500 
 N -2.14039726562500 -5.92357203750000 -3.67492617812500 
 N -3.15850926562500 -6.58588303750000 1.760282187500017E-002
 N -0.407150265625000 -3.35306003750000 -2.47989917812500 
 N -2.26805126562500 -2.17508403750000 -3.78028617812500 
 N -3.14021226562500 -2.44084903750000 1.579982187499995E-002
 S -0.675265265625000 -6.52192703750000 -4.02502317812500 
 S -3.75896326562500 -5.97620503750000 -1.41189017812500 
 S -1.63645126562500 -7.22407403750000 -1.705117812500001E-002
 S -0.800777265624999 -2.83144903750000 -4.08923617812500 
 S -3.87395126562500 -2.07805503750000 -1.41182017812500 
 S -1.59662926562500 -3.09574903750000 -7.705917812499985E-002
