16

 C -2.66273147499999 -6.42592580937500 -2.62973906875000 
 C -1.46742847499999 -6.82833880937500 -1.89804606875000 
 C -2.32612947499999 -2.89969280937500 -2.37559006875000 
 C -1.09115447500000 -3.26087180937500 -1.81462306875000 
 N -0.449208474999995 -6.96779880937500 -2.73354106875000 
 N -2.50612447499999 -6.13677680937500 -3.90595206875000 
 N -3.33894447499999 -6.63826580937500 -0.101170068750000 
 N -6.290847499999508E-002 -3.28913980937500 -2.63570806875000 
 N -2.27764247500000 -2.72193580937500 -3.68795806875000 
 N -2.72647847500000 -3.03287980937500 0.143311931250000 
 S -0.925338474999995 -6.43646080937500 -4.26433506875000 
 S -4.08329147499999 -6.36781680937500 -1.59368406875000 
 S -1.79808047500000 -7.27451080937500 -0.268254068750000 
 S -0.705551474999995 -3.06513180937500 -4.18510306875000 
 S -3.59494047500000 -2.68986580937500 -1.19644606875000 
 S -1.12465547499999 -3.53057380937500 -8.765006875000059E-002
