16

 C -2.41660583749999 -6.35177898125000 -2.54182355937500 
 C -1.25031783749999 -6.73568598125000 -1.77381455937500 
 C -2.75657683749999 -2.92907598125000 -2.53067455937500 
 C -1.58159183749999 -3.50523898125000 -1.90736255937500 
 N -0.237353837499991 -6.95637498125000 -2.57981455937500 
 N -2.32442483749999 -6.30898298125000 -3.85259055937500 
 N -3.11581283749999 -6.62616298125000 -0.129085559375001 
 N -0.525972837499991 -3.71682098125000 -2.69507955937500 
 N -2.51951183749999 -2.62519498125000 -3.80740355937500 
 N -3.32939983749999 -3.31823698125000 -4.745559375000763E-003
 S -0.744267837499991 -6.69060598125000 -4.14819155937500 
 S -3.83799983749999 -6.22570198125000 -1.61211455937500 
 S -1.53030983749999 -7.07709498125000 -0.174333559375001 
 S -1.00378883749999 -3.09167798125000 -4.18485955937500 
 S -4.10232283749999 -2.64296398125000 -1.37634755937500 
 S -1.75973083749999 -3.84218598125000 -0.184550559375001 
