16

 C -2.58282681562500 -6.34069653437500 -2.54870087812500 
 C -1.41479281562500 -6.88105253437500 -1.89475187812500 
 C -2.71465881562500 -2.57206953437500 -2.48642787812500 
 C -1.59942681562500 -3.17338753437500 -1.80625887812500 
 N -0.375846815624998 -6.89895953437500 -2.69357787812500 
 N -2.44680381562500 -6.03115953437500 -3.81437087812500 
 N -3.23108981562500 -6.57755153437500 -6.347787812499872E-002
 N -0.475576815624998 -3.35333453437500 -2.56450187812500 
 N -2.45291681562500 -2.34830853437500 -3.77037787812500 
 N -3.41337281562500 -2.80417153437500 1.332512187500123E-002
 S -0.876620815624998 -6.48794853437500 -4.24239287812500 
 S -3.89268581562500 -6.02236353437500 -1.47549587812500 
 S -1.65142381562500 -7.21500353437500 -0.205457878124999 
 S -0.835942815624998 -2.85787253437500 -4.02435987812500 
 S -4.12615881562500 -2.47768253437500 -1.46081187812500 
 S -1.89710581562500 -3.44187653437500 -0.104261878124999 
