16

 C -2.44285400000000 -6.39610558437500 -2.58112089375000 
 C -1.29928900000000 -6.85737258437500 -1.82612089375000 
 C -2.51978000000000 -2.46996958437500 -2.43846989375000 
 C -1.34197700000000 -2.87011758437500 -1.73638289375000 
 N -0.132523999999997 -7.07897458437500 -2.46054889375000 
 N -2.15039700000000 -6.23118458437500 -3.89391589375000 
 N -3.23862600000000 -6.59914258437500 -8.390989374999958E-002
 N -0.252828999999997 -2.96088958437500 -2.48178489375000 
 N -2.40445900000000 -2.42095658437500 -3.78499589375000 
 N -3.16973800000000 -2.58250258437500 0.107610106250001 
 S -0.571300999999997 -6.70740658437500 -4.05604689375000 
 S -3.87291900000000 -6.08788458437500 -1.54827189375000 
 S -1.62424000000000 -6.95657358437500 -0.110119893749999 
 S -0.809245999999996 -2.71000158437500 -4.11304389375000 
 S -3.92494000000000 -2.31423758437500 -1.34737189375000 
 S -1.53877100000000 -3.05793858437500 -4.006893749999296E-003
