16

 C -2.44578798437500 -6.48651019375001 -2.62783415312500 
 C -1.20602398437500 -6.96310919375001 -2.03892115312500 
 C -2.28504098437500 -2.56836019375000 -2.47901615312500 
 C -1.12336398437500 -3.21625119375001 -2.00956415312500 
 N -0.228628984374999 -7.27693519375001 -2.87790215312500 
 N -2.35078998437500 -6.36468019375001 -3.93466615312500 
 N -2.92452898437500 -6.50802919375000 -3.766715312499835E-002
 N -0.165542984375000 -3.23103619375000 -2.94046915312500 
 N -2.26077198437500 -2.07154319375000 -3.71659415312500 
 N -2.67524698437500 -3.15930619375001 1.894084687500164E-002
 S -0.781366984375000 -6.82263819375000 -4.40884315312500 
 S -3.73556498437500 -6.29830219375000 -1.42954115312500 
 S -1.38659798437500 -7.24638819375000 -0.275352153124998 
 S -0.768976984374999 -2.46511719375000 -4.22519215312500 
 S -3.50860298437500 -2.52369919375001 -1.26141915312500 
 S -1.11775798437500 -3.62534819375001 -0.330943153124998 
