16

 C -2.50088328437500 -6.75974139687500 -2.38297768750000 
 C -1.24333928437500 -6.99213739687500 -1.73476468750000 
 C -2.25090528437500 -3.00186939687500 -2.46401868750000 
 C -1.02503028437500 -3.36619539687500 -1.81136568750000 
 N -0.248630284374998 -6.88150939687500 -2.57021068750000 
 N -2.44263728437500 -6.44146039687500 -3.68854668750000 
 N -3.03931828437500 -7.16252339687500 0.162477312499999 
 N 6.178671562500249E-002 -3.56594939687500 -2.56743368750000 
 N -2.03560828437500 -2.72884139687500 -3.73415168750000 
 N -2.81489828437500 -2.99542739687500 6.398231249999897E-002
 S -0.852479284374997 -6.52058139687500 -4.08775568750000 
 S -3.90210528437500 -6.91428039687500 -1.27992668750000 
 S -1.42915328437500 -7.15129239687500 2.325631249999893E-002
 S -0.471729284374997 -3.26596139687500 -4.12761568750000 
 S -3.62433428437500 -2.73751639687500 -1.40774968750000 
 S -1.21910228437500 -3.45314439687500 -4.576868750000118E-002
