16

 C -2.43878218125000 -6.48725936562500 -2.43318320937500 
 C -1.17290218125000 -6.66765036562500 -1.75873320937500 
 C -2.56094718125000 -2.78391236562500 -2.47972020937500 
 C -1.42143718125000 -3.30225936562500 -1.86028220937500 
 N -7.909818124999557E-002 -6.90166936562500 -2.53206220937500 
 N -2.29079018125000 -6.51096136562500 -3.75364020937500 
 N -3.00164418125000 -6.47040036562500 0.113952790625000 
 N -0.394959181249996 -3.41846036562500 -2.67475520937500 
 N -2.45318418125000 -2.62405436562500 -3.77600220937500 
 N -3.18007618125000 -2.90782136562500 -5.699820937500055E-002
 S -0.690307181249996 -6.79778236562500 -4.09252620937500 
 S -3.77770018125000 -6.24701536562500 -1.33680820937500 
 S -1.42096618125000 -6.90406636562500 -4.894020937500043E-002
 S -0.958366181249996 -3.13964736562500 -4.21096520937500 
 S -3.95964318125000 -2.44341036562500 -1.44869520937500 
 S -1.63293018125000 -3.40089936562500 -0.173473209375000 
