16

 C -2.32254569062500 -6.35821643750000 -2.51755764375000 
 C -1.15439369062500 -6.80453343750000 -1.74345564375000 
 C -2.69990569062500 -2.50958243750000 -2.44570064375000 
 C -1.45380169062500 -2.80392143750000 -1.78004664375000 
 N -4.238369062499903E-002 -7.02558043750000 -2.44385464375000 
 N -2.08729869062500 -6.18801143749999 -3.81339964375000 
 N -3.09510669062500 -6.46284943750000 -5.710964374999961E-002
 N -0.367671690624999 -2.85955043749999 -2.55546064375000 
 N -2.57289869062500 -2.33222843750000 -3.76889064375000 
 N -3.27810369062500 -2.83257843750000 2.881135625000031E-002
 S -0.531594690624999 -6.63268643749999 -4.01877864375000 
 S -3.74238469062500 -6.17180343750000 -1.57768564375000 
 S -1.51609569062500 -7.06622843750000 -8.821643749999719E-003
 S -1.01337469062500 -2.58843743750000 -4.13706564375000 
 S -4.02352569062500 -2.42989543750000 -1.39679364375000 
 S -1.60836169062500 -2.95614543750000 -0.116256643750000 
