16

 C -2.30616925624999 -6.05281109062500 -2.26374492500000 
 C -1.14540925624999 -6.71911009062500 -1.75328592500000 
 C -2.69668525624999 -2.42582209062500 -2.71119992500000 
 C -1.50257125624999 -2.86268709062500 -2.08333492500000 
 N -0.268861256249994 -7.06888109062500 -2.70008592500000 
 N -2.24718225624999 -5.87554309062500 -3.57964692500000 
 N -2.68604625624999 -6.38661609062500 0.277492074999998 
 N -0.522236256249994 -3.08967009062500 -2.94333192500000 
 N -2.66350725624999 -2.33004309062500 -4.01542292500000 
 N -3.16381425624999 -2.38157109062500 -0.187153925000002 
 S -0.828142256249994 -6.56345209062500 -4.14984092500000 
 S -3.49913825624999 -5.75574509062500 -1.04656592500000 
 S -1.21067025624999 -7.05782409062500 -0.109951925000002 
 S -1.09381625624999 -2.75592609062500 -4.39881192500000 
 S -3.99519425624999 -2.16935509062500 -1.62822092500000 
 S -1.58017625624999 -2.84778709062500 -0.375826925000002 
