16

 C -2.43405181875000 -6.54771252812499 -2.33921010000000 
 C -1.22443781875000 -7.02013852812499 -1.59061910000000 
 C -2.45794181875000 -2.59178752812499 -2.53467510000000 
 C -1.24247981875000 -3.06320552812499 -1.84867810000000 
 N -0.268123818750002 -7.45443052812499 -2.42899710000000 
 N -2.37580681875000 -6.60161952812499 -3.67720210000000 
 N -2.94834981875000 -6.59377452812499 0.207243900000001 
 N -0.143334818750002 -3.04427552812499 -2.60407710000000 
 N -2.22078481875000 -2.25649852812499 -3.82013710000000 
 N -3.04390481875000 -2.74320052812499 1.999900000001498E-003
 S -0.839579818750002 -7.18700552812499 -3.95249010000000 
 S -3.82612781875000 -6.23126252812499 -1.23374210000000 
 S -1.45198081875000 -7.29968152812499 8.205890000000138E-002
 S -0.615629818750002 -2.59729552812499 -4.12701510000000 
 S -3.74930481875000 -2.30487352812499 -1.42577910000000 
 S -1.47137681875000 -3.36317152812499 -0.140251099999999 
