16

 C -2.19288507500000 -6.57251362500001 -2.46379750312500 
 C -1.02856807500000 -7.12987062500001 -1.84705950312500 
 C -2.55115507500000 -2.34311862500001 -2.37976750312500 
 C -1.42525307500000 -2.90474362500001 -1.79590150312500 
 N 3.019892499999965E-002 -7.31317462500001 -2.61950950312500 
 N -1.99734107500000 -6.39730962500001 -3.76175150312500 
 N -2.69935507500000 -6.58756262500001 9.103049687499887E-002
 N -0.447010075000001 -3.25751162500001 -2.65020650312500 
 N -2.53070507500000 -2.33000962500001 -3.72879250312500 
 N -3.23151307500000 -2.67223562500001 6.179549687499897E-002
 S -0.466668075000000 -6.86257162500001 -4.13325350312500 
 S -3.47376307500000 -6.12832962500001 -1.30827150312500 
 S -1.16912407500000 -7.27006462500001 -0.103772503125001 
 S -1.04534007500000 -2.82924562500000 -4.14643050312500 
 S -3.90051207500000 -1.99356062500001 -1.28073950312500 
 S -1.64447407500000 -3.13684762500001 -7.840350312500122E-002
