16

 C -2.59326112812499 -6.66600446562500 -2.43773200312500 
 C -1.42199712812499 -7.21315946562500 -1.76955600312500 
 C -2.51923012812499 -2.56885246562500 -2.40313600312500 
 C -1.40831212812499 -3.23049446562500 -1.78456100312500 
 N -0.358472128124993 -7.57401646562500 -2.51020800312500 
 N -2.37946112812499 -6.47665646562500 -3.73924300312500 
 N -3.06983512812499 -6.60934346562500 0.180174996874999 
 N -0.404436128124993 -3.55730946562500 -2.58672500312500 
 N -2.34113212812499 -2.34901046562500 -3.70031400312500 
 N -3.19035012812499 -2.83385546562500 6.974199687499927E-002
 S -0.832380128124993 -7.03172246562500 -3.99269500312500 
 S -3.80660512812499 -6.10808146562500 -1.30555100312500 
 S -1.53748912812499 -7.22007246562500 -3.677500312500093E-002
 S -0.910855128124993 -3.03434346562500 -4.08307600312500 
 S -3.90987212812499 -2.34219146562500 -1.35519800312500 
 S -1.61221012812499 -3.32586746562500 -9.299400312500095E-002
