16

 C -2.28806269062500 -6.47077944062500 -2.24531012812500 
 C -1.08186669062500 -6.99095944062500 -1.62351012812500 
 C -2.34931869062500 -2.60686344062500 -2.50579412812500 
 C -1.13989969062500 -3.24926644062500 -2.03663412812500 
 N -0.128561690624998 -7.19179344062500 -2.54539112812500 
 N -2.29045669062500 -6.21929744062500 -3.55149512812500 
 N -2.83033769062500 -6.67630444062500 0.339905871874999 
 N -0.153609690624998 -3.40131744062500 -2.96669212812500 
 N -2.29981669062500 -2.27204944062500 -3.80928212812500 
 N -2.73547369062500 -3.14879144062500 1.931787187499912E-002
 S -0.756386690624998 -6.73240244062500 -4.01774812812500 
 S -3.61535269062500 -6.45968544062500 -1.14224412812500 
 S -1.24023569062500 -7.16305544062500 8.594087187499921E-002
 S -0.891193690624998 -2.79176944062500 -4.36916312812500 
 S -3.51678469062500 -2.42314644062500 -1.21233812812500 
 S -1.14592469062500 -3.48937944062500 -0.247044128125001 
