16

 C -2.43034019062500 -6.28579840312499 -2.28944490625000 
 C -1.30959819062500 -6.90990640312499 -1.62863390625000 
 C -2.35460219062500 -2.26276240312499 -2.56066490625000 
 C -1.21525119062500 -2.82143340312499 -1.88238790625000 
 N -0.265087190625002 -7.06430540312499 -2.47134290625000 
 N -2.27395719062500 -6.12818140312499 -3.60960190625000 
 N -3.14256619062500 -6.65409040312499 0.144428093750000 
 N -0.194093190625002 -3.07703540312499 -2.67795890625000 
 N -2.29788019062500 -2.19214240312499 -3.85787590625000 
 N -2.93059119062500 -2.41948040312499 1.838093750000436E-003
 S -0.710168190625002 -6.57372540312499 -3.98949290625000 
 S -3.75460419062500 -5.95027640312499 -1.28773090625000 
 S -1.60163819062500 -7.22479940312499 4.384309375000051E-002
 S -0.710122190625002 -2.72392740312499 -4.17273990625000 
 S -3.61150519062500 -1.83440440312499 -1.38756490625000 
 S -1.39040519062500 -3.03538440312499 -0.173735906250000 
