16

 C -2.21508950312500 -6.40729771875000 -2.18449152187500 
 C -1.05470650312500 -6.99030971875000 -1.54895352187500 
 C -2.45389550312500 -2.68810371875000 -2.30919752187500 
 C -1.18697650312500 -3.28691271875000 -1.72996952187500 
 N -4.077050312500408E-002 -7.22349871875000 -2.37142952187500 
 N -2.10137750312500 -6.18194171875000 -3.51165452187500 
 N -2.74571750312500 -6.81573771875000 0.324562478125001 
 N -0.223095503125005 -3.52631671875000 -2.61585052187500 
 N -2.28544250312500 -2.29239071875000 -3.57200652187500 
 N -2.93983850312500 -3.16099271875000 0.204105478125001 
 S -0.570854503125005 -6.78252471875000 -3.87399852187500 
 S -3.63717750312500 -6.40986871875000 -1.07630352187500 
 S -1.14974850312500 -7.27379271875000 0.147611478125001 
 S -0.805957503125004 -2.79364971875000 -4.04205252187500 
 S -3.71023250312500 -2.57507571875000 -1.17439552187500 
 S -1.33477950312500 -3.60446171875000 1.523747812500109E-002
