16

 C -2.37590009687500 -6.47626288125001 -2.52730722812500 
 C -1.13920609687500 -6.61953688125001 -1.81125822812500 
 C -2.46802609687500 -2.06772488125001 -2.70667022812500 
 C -1.45667209687500 -2.89196788125001 -1.99425322812500 
 N -4.244309687499914E-002 -6.58974188125001 -2.59475622812500 
 N -2.29061809687500 -6.43331588125001 -3.88932922812500 
 N -2.95191909687500 -6.61574888125001 2.404577187499979E-002
 N -0.392453096874999 -3.24682388125001 -2.69437522812500 
 N -2.10551809687500 -1.86988688125001 -3.97968522812500 
 N -3.44921809687500 -2.61696688125001 -0.401691228125000 
 S -0.663193096874999 -6.58032688125001 -4.12786722812500 
 S -3.81916109687500 -6.37344788125001 -1.43762522812500 
 S -1.36435609687500 -6.77141488125001 -0.101689228125000 
 S -0.555381096874999 -2.50605788125001 -4.21051922812500 
 S -3.97451409687500 -1.86567988125001 -1.80709722812500 
 S -1.99884509687500 -3.43512688125001 -0.442947228125000 
