16

 C -2.36694603750000 -6.77533273437500 -2.35113988125000 
 C -1.02867603750000 -6.98858273437500 -1.88819788125000 
 C -2.51484603750000 -2.78726973437500 -2.42401288125000 
 C -1.39231803750000 -3.26888073437500 -1.73752388125000 
 N -0.109287037500003 -6.97794573437500 -2.85990988125000 
 N -2.46614003750000 -6.57457273437500 -3.65928388125000 
 N -2.54212903750000 -7.02590573437500 0.177562118750000 
 N -0.387302037500004 -3.60206273437500 -2.51730388125000 
 N -2.34704203750000 -2.57698473437500 -3.71194188125000 
 N -3.18325503750000 -2.96280873437500 5.930511875000000E-002
 S -0.939971037500004 -6.69377073437500 -4.29538688125000 
 S -3.52542003750000 -6.78697673437500 -1.15206888125000 
 S -0.911722037500003 -7.06587073437500 -0.130309881250000 
 S -0.747083037500004 -3.07848773437500 -4.05366088125000 
 S -3.93697403750000 -2.50655073437500 -1.39409788125000 
 S -1.59635203750000 -3.41524473437500 -1.720988125000011E-002
