16

 C -2.52461864687500 -6.25844234062500 -2.50242802500000 
 C -1.32359764687500 -6.73698134062500 -1.86217402500000 
 C -2.38309764687500 -3.04906634062500 -2.55179002500000 
 C -1.20584764687500 -3.39392834062500 -1.89837402500000 
 N -0.295211646875001 -6.94912434062500 -2.72832802500000 
 N -2.41749864687500 -5.96757934062500 -3.82090402500000 
 N -2.94999664687500 -6.25937234062500 0.153925974999998 
 N -8.408664687500078E-002 -3.46552134062500 -2.62138902500000 
 N -2.21440764687500 -2.90003634062500 -3.87877402500000 
 N -2.98451764687500 -2.92936734062500 -4.526002500000170E-002
 S -0.889147646875001 -6.50869234062500 -4.22464702500000 
 S -3.73795064687500 -5.93460034062500 -1.30952902500000 
 S -1.40066664687500 -6.70461434062500 -0.105125025000002 
 S -0.641826646875001 -3.25476434062500 -4.12894902500000 
 S -3.73996964687500 -2.90771934062500 -1.48081002500000 
 S -1.35202664687500 -3.33815934062500 -0.214516025000002 
