16

 C -2.44510497187500 -6.39914542812499 -2.33549589687500 
 C -1.22629797187500 -6.71862442812499 -1.67075889687500 
 C -2.51781897187500 -2.75839142812499 -2.88572689687500 
 C -1.20721097187500 -2.84851542812499 -2.26773289687500 
 N -0.207482971874998 -6.71107342812499 -2.50717189687500 
 N -2.35702297187500 -6.11433042812499 -3.64677389687500 
 N -2.94168197187500 -6.81289142812499 0.249466103125001 
 N -0.127142971874997 -2.72546342812499 -3.04689289687500 
 N -2.40802697187500 -2.50035442812499 -4.21336889687500 
 N -2.97901497187500 -3.10751342812499 -0.387373896874999 
 S -0.745457971874997 -6.25916542812499 -4.01084189687500 
 S -3.77257497187500 -6.17122642812499 -1.13344189687500 
 S -1.34610597187500 -7.08272442812499 1.229910312500082E-002
 S -0.792623971874997 -2.64664542812499 -4.55587789687500 
 S -3.75945297187500 -2.79321642812499 -1.76133289687500 
 S -1.34028197187500 -3.02815542812499 -0.546555896874999 
