16

 C -2.50837689062500 -6.60387758437500 -2.45493972500000 
 C -1.17992589062500 -6.79429458437500 -1.79425272500000 
 C -2.45866289062500 -2.19542958437500 -2.81205672500000 
 C -1.47154489062500 -2.89513658437500 -2.09231572500000 
 N -0.118729890624999 -6.65368758437500 -2.60351372500000 
 N -2.40336289062500 -6.43575758437500 -3.79291072500000 
 N -2.97652589062500 -6.48683858437500 6.591127499999772E-002
 N -0.351185890624999 -3.13783258437500 -2.77491272500000 
 N -2.18021589062500 -1.84481158437500 -4.08287472500000 
 N -3.45224389062500 -2.73022858437500 -0.492573725000002 
 S -0.802303890624999 -6.37815358437500 -4.09465172500000 
 S -3.86290689062500 -6.42069758437500 -1.40143472500000 
 S -1.38186989062500 -6.81571858437500 2.640427499999776E-002
 S -0.632307890624999 -2.48851258437500 -4.31371272500000 
 S -3.82938989062500 -1.97738858437500 -1.89334072500000 
 S -1.86995589062500 -3.23489058437500 -0.427655725000002 
