16

 C -2.42845988437500 -6.65596089687500 -2.46160544375000 
 C -1.13806588437500 -6.93899489687500 -1.80777644375000 
 C -2.40089688437500 -2.76330889687500 -2.48507244375000 
 C -1.25009088437500 -3.11734989687500 -1.68456144375000 
 N -4.492488437500164E-002 -6.83870789687500 -2.59256344375000 
 N -2.24935388437500 -6.43650189687500 -3.76112344375000 
 N -2.95504188437500 -7.09891389687500 0.110211556250000 
 N -0.108344884375001 -3.22222289687500 -2.36938544375000 
 N -2.21405588437500 -2.72142689687500 -3.80861444375000 
 N -3.14749788437500 -2.66205089687500 4.426055624999981E-002
 S -0.659993884375002 -6.52707489687500 -4.11889044375000 
 S -3.80175088437500 -6.54572589687500 -1.29987444375000 
 S -1.27066688437500 -7.30236289687500 -9.970844374999999E-002
 S -0.548063884375002 -3.06292689687500 -3.97738244375000 
 S -3.84228288437500 -2.38826589687500 -1.47084344375000 
 S -1.57032688437500 -3.20570589687500 9.277955624999978E-002
