16

 C -2.28113375625000 -6.31303312187501 -2.17876431875000 
 C -1.02241875625000 -6.78591512187501 -1.63944331875000 
 C -2.50749075625000 -2.77300212187501 -2.47189531875000 
 C -1.29068975625000 -3.20181212187501 -1.78127631875000 
 N -0.122265756249996 -6.88186812187501 -2.63124931875000 
 N -2.32846475625000 -6.13996012187501 -3.49526331875000 
 N -2.63496175625000 -6.66743712187501 0.448898681249999 
 N -0.189607756249996 -3.43569012187501 -2.49079531875000 
 N -2.28301775625000 -2.67368012187501 -3.78273631875000 
 N -3.00993575625000 -2.73343612187501 5.615368124999875E-002
 S -0.821124756249995 -6.38173112187501 -4.05360631875000 
 S -3.49210075625000 -6.10175212187501 -0.901322318750001 
 S -1.11718175625000 -7.18066112187501 0.121174681249999 
 S -0.696832756249996 -3.06472212187501 -4.01740631875000 
 S -3.75212775625000 -2.33351112187501 -1.39327631875000 
 S -1.51879075625000 -3.40802312187501 -0.107181318750001 
