16

 C -2.58849761875000 -6.38059118750001 -2.20083242500000 
 C -1.39242661875000 -6.84996918750001 -1.64172742500000 
 C -2.48613361875000 -3.06809918750001 -2.30475742500000 
 C -1.22524261875000 -3.30732318750001 -1.62843642500000 
 N -0.346852618750002 -7.06450018750001 -2.42287542500000 
 N -2.51821061875000 -6.20007118750001 -3.49882042500000 
 N -3.08265561875000 -6.57642418750001 0.256008575000001 
 N -0.214394618750002 -3.37365318750001 -2.46497842500000 
 N -2.45649061875000 -2.90938418750001 -3.63011342500000 
 N -3.00612961875000 -3.16030318750001 0.237254575000001 
 S -0.945492618750002 -6.58780918750001 -3.88045642500000 
 S -3.85363561875000 -6.17611518750001 -1.12344542500000 
 S -1.48546061875000 -7.10836818750001 6.176157500000090E-002
 S -0.864069618750002 -3.26385318750001 -4.01120942500000 
 S -3.74583861875000 -2.85368218750001 -1.19510942500000 
 S -1.36557461875000 -3.33383718750001 0.102994575000001 
