16

 C -2.50544811874999 -6.51846475000001 -2.43374918750000 
 C -1.24552211874999 -6.93116775000001 -1.95371618750000 
 C -2.61845511874999 -2.70489475000001 -2.51824618750000 
 C -1.48765811874999 -3.23581575000001 -1.70432418750000 
 N -0.286492118749994 -6.91516875000001 -2.88453618750000 
 N -2.51427511874999 -6.34552475000001 -3.74684618750000 
 N -2.74564311874999 -6.86908975000001 7.269281249999837E-002
 N -0.504217118749994 -3.64593475000001 -2.47784018750000 
 N -2.41603511874999 -2.70128475000001 -3.82218718750000 
 N -3.32343311874999 -2.66100375000001 -3.777218750000166E-002
 S -0.987818118749994 -6.56431675000001 -4.32767718750000 
 S -3.75267611874999 -6.46118875000001 -1.22456018750000 
 S -1.21696811874999 -7.50238775000001 -0.253378187500002 
 S -0.901207118749994 -3.33363575000001 -4.06420518750000 
 S -3.88648011874999 -2.04599875000001 -1.50647118750000 
 S -1.77290711874999 -3.22751275000001 -2.097318750000166E-002
