16

 C -2.40101174687500 -6.23830434687500 -2.44644075312500 
 C -1.19000574687500 -6.61528234687500 -1.77855075312500 
 C -2.28538774687500 -2.90366134687500 -2.48428675312500 
 C -0.997623746875004 -3.25661634687500 -1.88249175312500 
 N -0.168039746875005 -6.94489034687500 -2.59561075312500 
 N -2.34000774687500 -6.13308734687500 -3.76548175312500 
 N -3.04518074687500 -6.41059134687500 4.266924687499984E-002
 N 2.394625312499521E-002 -3.32939934687500 -2.73541075312500 
 N -2.19756074687500 -2.80766434687500 -3.80811375312500 
 N -2.85833774687500 -3.16413134687500 4.010924687499995E-002
 S -0.763028746875005 -6.57056234687500 -4.11564375312500 
 S -3.82110774687500 -5.99227034687500 -1.40814575312500 
 S -1.40932874687500 -6.70818134687500 -8.153775312500011E-002
 S -0.650709746875004 -3.09357534687500 -4.24613275312500 
 S -3.63637374687500 -2.90855134687500 -1.40774875312500 
 S -1.21107474687500 -3.47976834687500 -0.118059753125000 
