16

 C -2.49134936875000 -6.60575198437500 -2.45977205312500 
 C -1.17058036875000 -6.79710498437500 -1.78414105312500 
 C -2.46219436875000 -2.19286698437500 -2.80711605312500 
 C -1.47952136875000 -2.89409598437500 -2.09950705312500 
 N -0.131598368750000 -6.65228398437500 -2.60300805312500 
 N -2.39809336875000 -6.45493998437500 -3.79810305312500 
 N -2.97165936875000 -6.48850298437500 6.785694687500143E-002
 N -0.341177368750000 -3.13523498437500 -2.77181405312500 
 N -2.16184836875000 -1.82666098437500 -4.06987605312500 
 N -3.46138536875000 -2.73163998437500 -0.484842053124999 
 S -0.797956368750000 -6.37688198437500 -4.10021905312500 
 S -3.85988536875000 -6.41408098437500 -1.40968305312500 
 S -1.38179536875000 -6.81106698437500 2.325094687500129E-002
 S -0.639402368750000 -2.49242998437500 -4.30545205312500 
 S -3.82508236875000 -1.96534498437500 -1.89302705312500 
 S -1.88617136875000 -3.24133098437500 -0.428154053124999 
