16

 C -2.05800313437501 -6.44502511562500 -2.34710890937500 
 C -0.876820134375008 -6.97375611562500 -1.70374590937500 
 C -2.66648213437501 -2.53485711562500 -2.44022590937500 
 C -1.43199513437501 -2.98733411562500 -1.83111890937500 
 N 6.616686562499119E-002 -7.25518611562500 -2.59347090937500 
 N -2.00656813437501 -6.36754311562500 -3.68349090937500 
 N -2.67419513437501 -6.75832611562500 0.153210090625003 
 N -0.409073134375008 -3.14507711562500 -2.65867090937500 
 N -2.50425913437501 -2.35991511562500 -3.75255890937500 
 N -3.08741013437501 -2.69682211562500 8.360109062500265E-002
 S -0.536581134375009 -6.88028511562500 -4.09280390937500 
 S -3.42844713437501 -6.28552011562500 -1.26127990937500 
 S -1.06018113437501 -7.18280711562500 1.567309062500266E-002
 S -0.966559134375008 -2.79159111562500 -4.16204690937500 
 S -3.96546813437501 -2.27607211562500 -1.32384990937500 
 S -1.47298913437501 -3.03020511562500 -6.817090937499715E-002
