16

 C -2.44890879062500 -6.37227196250000 -2.57218653437500 
 C -1.24729479062500 -6.71624496250000 -1.89379953437500 
 C -2.36429179062500 -2.91389696250000 -2.50491153437500 
 C -1.12877479062500 -3.21195396250000 -1.87896753437500 
 N -0.132933790625001 -6.81640496250000 -2.62259453437500 
 N -2.25793879062500 -6.20415996250000 -3.87300153437500 
 N -3.13926479062500 -6.38743896250000 -7.131853437499891E-002
 N -0.122731790625001 -3.23249396250000 -2.74137453437500 
 N -2.32520979062500 -2.76185196250000 -3.80468353437500 
 N -2.92975979062500 -2.82481196250000 -3.962653437499908E-002
 S -0.680786790625001 -6.55717696250000 -4.16683353437500 
 S -3.80860179062500 -6.22118196250000 -1.54433653437500 
 S -1.47991779062500 -6.78744096250000 -0.138400534374999 
 S -0.752963790625001 -3.00154096250000 -4.23905853437500 
 S -3.73932679062500 -2.52269396250000 -1.49598353437500 
 S -1.31110579062500 -3.15924996250000 -0.176275534374999 
