16

 C -2.45065593750000 -6.47149377812500 -2.33254792187500 
 C -1.19738693750000 -6.88956977812500 -1.71763892187500 
 C -2.36955493750000 -3.00235077812500 -2.21449192187500 
 C -1.05835793750000 -3.37279077812500 -1.72919392187500 
 N -0.190714937499999 -7.03663477812500 -2.58306492187500 
 N -2.42040793750000 -6.35485677812500 -3.66497392187500 
 N -2.90815193750000 -6.73205177812500 9.539707812499798E-002
 N -6.235993749999924E-002 -3.44539677812500 -2.61522592187500 
 N -2.36666993750000 -2.73232777812500 -3.53971492187500 
 N -2.66115493750000 -3.37004777812500 0.344789078124998 
 S -0.850458937499999 -6.62760577812500 -4.06723792187500 
 S -3.73487793750000 -6.34715677812500 -1.27402892187500 
 S -1.23670293750000 -7.02004177812500 1.473807812499794E-002
 S -0.853562937500000 -3.11206177812500 -4.06355492187500 
 S -3.61458393750000 -3.11130577812500 -0.991523921875002 
 S -1.01485793750000 -3.57436577812500 -4.404921875002188E-003
