16

 C -2.51241217187500 -6.28046291875001 -2.28816092187500 
 C -1.23715317187500 -6.62357291875001 -1.68004692187500 
 C -2.42835517187500 -2.52967691875001 -2.89453792187500 
 C -1.22478917187500 -2.77424291875001 -2.16628292187500 
 N -0.226161171875000 -6.73590791875001 -2.55083692187500 
 N -2.40341317187500 -6.05022491875001 -3.58929092187500 
 N -3.00224517187500 -6.88960191875000 0.172720078125001 
 N -0.188068171875000 -2.85549191875001 -2.99339592187500 
 N -2.34925817187500 -2.39923591875000 -4.24738492187500 
 N -3.13510217187500 -2.84347891875001 -0.413468921874999 
 S -0.871269171875000 -6.40491691875001 -4.04505892187500 
 S -3.85789917187500 -6.40992091875001 -1.28727592187500 
 S -1.37852017187500 -6.94117891875001 3.990907812500066E-002
 S -0.743477171875000 -2.57268191875001 -4.54347292187500 
 S -3.85828517187500 -2.51782891875001 -1.88799192187500 
 S -1.45844417187500 -3.10028891875001 -0.443715921874999 
