16

 C -2.58164250937500 -6.41869850625000 -2.26731140625000 
 C -1.33935450937500 -6.90205050625000 -1.66158440625000 
 C -2.41941350937500 -2.92447550625000 -2.21448040625000 
 C -1.19599350937500 -3.36634050625000 -1.58439340625000 
 N -0.330524509375001 -7.09874750625000 -2.47751840625000 
 N -2.48398350937500 -6.27913450625000 -3.56047640625000 
 N -3.12460250937500 -6.74808350625000 0.165085593750002 
 N -0.185360509375001 -3.42091750625000 -2.43376440625000 
 N -2.35800050937500 -2.67265150625000 -3.53941940625000 
 N -2.84768450937500 -2.89238950625000 0.338512593750002 
 S -0.917383509375002 -6.70438150625000 -3.98229140625000 
 S -3.94317550937500 -6.37219250624999 -1.22032240625000 
 S -1.46115450937500 -7.15436650625000 -8.044062499983351E-004
 S -0.860981509375002 -3.08048350625000 -3.93647540625000 
 S -3.64513750937500 -2.58908150625000 -1.05673640625000 
 S -1.27046650937500 -3.43166950625000 0.161316593750002 
