16

 C -2.51878709375000 -6.36296972187500 -2.28206683125000 
 C -1.31973109375000 -6.90478572187500 -1.72345583125000 
 C -2.64718009375000 -3.11800372187500 -2.54015383125000 
 C -1.42279209375000 -3.36994072187500 -1.82129783125000 
 N -0.301207093749998 -7.10110972187500 -2.54177983125000 
 N -2.44591509375000 -6.19212472187500 -3.57352383125000 
 N -3.03219309375000 -6.61272672187500 0.130175168749999 
 N -0.343021093749997 -3.38549472187500 -2.60282183125000 
 N -2.48942009375000 -2.82233772187500 -3.84933383125000 
 N -3.11815309375000 -3.05691172187500 0.120754168749999 
 S -0.938782093749998 -6.65217072187500 -4.04265683125000 
 S -3.82480809375000 -6.13682872187500 -1.26265483125000 
 S -1.48070409375000 -7.03121272187500 -1.594683125000063E-002
 S -0.905717093749997 -3.17155872187500 -4.15541783125000 
 S -3.91470809375000 -3.01627672187500 -1.30326183125000 
 S -1.56482409375000 -3.56162972187500 -9.331883125000062E-002
