16

 C -2.49756387500000 -6.29584699062500 -2.27382580312500 
 C -1.35422787500000 -6.91270799062500 -1.67076280312500 
 C -2.29211687500000 -2.33740799062500 -2.46940580312500 
 C -1.06546187500000 -2.78739599062500 -1.86987080312500 
 N -0.352606874999996 -7.10118999062500 -2.48828680312500 
 N -2.36261587500000 -6.01240199062500 -3.54846180312500 
 N -3.12251487500000 -6.69151999062500 0.159495196875002 
 N -8.637987499999600E-002 -3.00932699062500 -2.76897480312500 
 N -2.21652587500000 -2.22007599062500 -3.83003980312500 
 N -2.87007887500000 -2.47638299062500 -1.349080312499851E-002
 S -0.846489874999996 -6.56838899062500 -4.02466980312500 
 S -3.82801487500000 -6.00557599062500 -1.20019580312500 
 S -1.58696387500000 -7.21590699062500 7.929196875001487E-003
 S -0.655105874999996 -2.71810299062500 -4.23169480312500 
 S -3.61157487500000 -1.86856599062500 -1.38245980312500 
 S -1.37037487500000 -3.17530999062500 -0.178560803124999 
