16

 C -2.37917106875001 -6.33813308125000 -2.56662649375000 
 C -1.13402906875001 -6.67851208125000 -1.82602249375000 
 C -2.40742406875001 -2.79101508125000 -2.59610149375000 
 C -1.15653006875001 -3.14856308125000 -1.94289349375000 
 N -0.127682068750006 -6.91958208125000 -2.63441549375000 
 N -2.21517406875001 -6.27301108125000 -3.88047449375000 
 N -3.05341106875001 -6.31364108125000 -7.799249375000095E-002
 N -0.115971068750006 -3.24992408125000 -2.75459349375000 
 N -2.30749206875001 -2.60402908125000 -3.89001849375000 
 N -2.89699806875001 -2.95426708125000 -6.500549375000086E-002
 S -0.606215068750006 -6.60630408125000 -4.24763149375000 
 S -3.86401706875001 -6.22444708125000 -1.57712349375000 
 S -1.50430006875001 -6.83459908125000 -0.109053493750001 
 S -0.733117068750007 -2.85856008125000 -4.29917449375000 
 S -3.73437506875001 -2.54843308125000 -1.45140949375000 
 S -1.22384806875001 -3.22583508125000 -0.169171493750001 
