16

 C -2.49622829687500 -6.55747083125000 -2.28123017187500 
 C -1.28628629687500 -7.17233583125000 -1.76108017187500 
 C -2.66518529687500 -2.55778183125000 -2.40738917187500 
 C -1.65195429687500 -3.23319683125000 -1.65915417187500 
 N -0.260813296875000 -7.34172283125000 -2.62557017187500 
 N -2.40977629687500 -6.27097383125000 -3.58249517187500 
 N -3.00412129687500 -6.95799883125000 0.239752828125000 
 N -0.596620296875000 -3.65572783125000 -2.37799117187500 
 N -2.41045229687500 -2.32800283125000 -3.70588717187500 
 N -3.43910929687500 -2.50314983125000 0.107008828125000 
 S -0.869063296875000 -6.79626683125000 -4.06966317187500 
 S -3.75524229687500 -6.48746383125000 -1.12929017187500 
 S -1.44230129687500 -7.46046783125000 -7.546417187499976E-002
 S -0.938254296875000 -2.99962583125000 -3.93417717187500 
 S -4.04418029687500 -2.00861983125000 -1.32793817187500 
 S -1.99686829687500 -3.35970983125000 5.472582812500049E-002
