16

 C -2.47191222187500 -6.65264450312501 -2.43225460312500 
 C -1.21201022187500 -6.90442150312500 -1.73049060312500 
 C -2.12520622187500 -2.88380850312500 -2.34599460312500 
 C -0.936543221875000 -3.31984350312500 -1.63247660312500 
 N -0.169364221874999 -6.89481450312500 -2.58285760312500 
 N -2.39933022187500 -6.48645750312500 -3.76740160312500 
 N -2.95625122187500 -6.98327750312500 7.992039687500152E-002
 N 0.203613778125000 -3.32478050312500 -2.34997160312500 
 N -1.85713322187500 -2.65335150312500 -3.61941660312500 
 N -2.97530622187500 -3.13516050312500 5.654139687500148E-002
 S -0.751102221875000 -6.62890550312500 -4.09218360312500 
 S -3.81884622187500 -6.74117250312500 -1.27638060312500 
 S -1.28462122187500 -7.28417650312501 -0.102006603124999 
 S -0.312956221874999 -3.02082350312500 -3.95631460312500 
 S -3.49781322187500 -2.47304750312500 -1.38948160312500 
 S -1.35956722187500 -3.69338450312500 6.382639687500147E-002
