16

 C -2.24064259062500 -6.65974452812500 -2.57164925312500 
 C -1.00714559062500 -7.02616352812500 -1.92674425312500 
 C -2.51106959062500 -2.56929352812500 -2.52062925312500 
 C -1.31223959062500 -3.11171352812500 -1.99977425312500 
 N -0.120946590625003 -7.45903652812500 -2.79774125312500 
 N -2.25662659062500 -6.82341552812500 -3.89876425312500 
 N -2.64939259062500 -6.46170952812500 -4.446425312500280E-002
 N -0.345619590625003 -3.39951052812500 -2.89116225312500 
 N -2.57292759062500 -2.53467352812500 -3.83196225312500 
 N -2.94020359062500 -2.83597152812500 5.069774687499717E-002
 S -0.772728590625003 -7.36464152812500 -4.31884925312500 
 S -3.57474759062500 -6.26450452812500 -1.46598825312500 
 S -1.11168959062500 -6.92476252812500 -0.223290253125003 
 S -0.987592590625003 -2.94936552812500 -4.35528625312500 
 S -3.69200859062500 -2.21551652812500 -1.30109125312500 
 S -1.46049659062500 -3.42645152812500 -0.263347253125003 
