16

 C -2.37298806249999 -6.31913990000000 -2.58457074062500 
 C -1.18920906249999 -6.69213890000000 -1.88340474062500 
 C -2.38762006249999 -2.72762590000000 -2.61201974062500 
 C -1.16206706249999 -3.07007990000000 -1.95281274062500 
 N -8.287706249999172E-002 -6.94095290000000 -2.63407474062500 
 N -2.22154006249999 -6.28667590000000 -3.89511074062500 
 N -3.04637906249999 -6.30287290000000 -0.118528740625000 
 N -0.150214062499992 -3.25077090000000 -2.79581674062500 
 N -2.29254806249999 -2.54020790000000 -3.96633474062500 
 N -2.85257206249999 -3.01402890000000 -5.278874062499983E-002
 S -0.608971062499992 -6.63971590000000 -4.22104374062500 
 S -3.82982606249999 -6.22019690000000 -1.58498874062500 
 S -1.48249906249999 -6.85445590000000 -0.103529740625000 
 S -0.719744062499992 -2.81046890000000 -4.29931674062500 
 S -3.69993506249999 -2.57706690000000 -1.41921374062500 
 S -1.23742406249999 -3.26002090000000 -0.201318740625000 
