16

 C -2.62117989375000 -6.43530122500000 -2.35219480625000 
 C -1.40797289375000 -6.96329322500000 -1.72867580625000 
 C -2.39031689375000 -2.96180222500000 -2.42918380625000 
 C -1.18997389375000 -3.30878522500000 -1.78808880625000 
 N -0.359527893750000 -7.09120322500000 -2.54960480625000 
 N -2.52218289375000 -6.27957022500000 -3.65338680625000 
 N -3.11827789375000 -6.50101222500000 0.190470193750000 
 N -0.224673893749999 -3.55740322500000 -2.66778480625000 
 N -2.34660389375000 -2.80277422500000 -3.75797680625000 
 N -2.82877889375000 -2.93820622500000 0.163019193750000 
 S -0.957268893750000 -6.70051522500000 -4.07628180625000 
 S -3.89204789375000 -6.09015022500000 -1.25771780625000 
 S -1.58386989375000 -7.16073022500000 7.765619375000021E-002
 S -0.742069893750000 -3.09762122500000 -4.16482780625000 
 S -3.62794489375000 -2.55878022500000 -1.28006380625000 
 S -1.21318189375000 -3.36853122500000 -5.158080624999961E-002
