16

 C -2.53672857812499 -6.26598781875000 -2.36910067500000 
 C -1.38272857812499 -6.90344681875000 -1.89015067500000 
 C -2.62989757812499 -2.95065181875000 -2.35443967500000 
 C -1.46371857812499 -3.34926181875000 -1.65209367500000 
 N -0.447096578124990 -7.21434681875000 -2.75623267500000 
 N -2.50465157812499 -6.16029981875000 -3.69109967500000 
 N -2.99654957812499 -6.65495981875000 3.412032499999951E-002
 N -0.392323578124990 -3.59821581875000 -2.41619167500000 
 N -2.48764657812499 -2.86014181875000 -3.66493767500000 
 N -3.27329957812499 -2.70686781875000 7.442932499999944E-002
 S -1.05456257812499 -6.76921381875000 -4.23597267500000 
 S -3.77875157812499 -6.06441981875000 -1.26783167500000 
 S -1.46913357812499 -7.27589781875001 -0.213717675000000 
 S -0.914425578124990 -3.33563781875000 -3.97451467500000 
 S -4.00099857812499 -2.44778381875000 -1.37351667500000 
 S -1.74887357812499 -3.41699181875001 2.566932499999952E-002
