16

 C -2.66134674375000 -6.31877710624999 -2.31291797812500 
 C -1.46158874375000 -6.89449110624999 -1.75761197812500 
 C -2.39955974375000 -2.70316410624999 -2.45187597812500 
 C -1.19616274375000 -3.24636610624999 -1.83503997812500 
 N -0.434314743750003 -7.01550110624999 -2.60723097812500 
 N -2.60183674375000 -6.06684610624999 -3.63185997812500 
 N -3.07281174375000 -6.76612110624999 0.234474021875001 
 N -0.155661743750004 -3.40024810624999 -2.64492297812500 
 N -2.27801674375000 -2.48414610624999 -3.72794697812500 
 N -2.97707074375000 -3.12842510624999 5.502902187500069E-002
 S -1.06418874375000 -6.54554210624999 -4.05544697812500 
 S -3.89099774375000 -6.13210710624999 -1.06452797812500 
 S -1.48091674375000 -7.25264910624999 -4.059097812499957E-002
 S -0.770322743750004 -2.85558210624999 -4.19689097812500 
 S -3.71562674375000 -2.64990210624999 -1.37086597812500 
 S -1.35510174375000 -3.55471510624999 -0.115466978124999 
