16

 C -2.25828463125000 -6.50357272187499 -2.60680549062500 
 C -1.06911263125000 -7.02578572187499 -1.96470649062500 
 C -2.69789563125000 -2.42151772187499 -2.33613649062500 
 C -1.52743863125000 -2.93264272187499 -1.61151749062500 
 N -6.091963125000088E-002 -7.30301572187499 -2.79769449062500 
 N -2.05742063125000 -6.23504472187499 -3.88833749062500 
 N -2.80784563125000 -6.47716772187499 -0.122114490624997 
 N -0.500358631250001 -3.25444672187499 -2.42086049062500 
 N -2.53040063125000 -2.47795772187499 -3.65484749062500 
 N -3.45097463125000 -2.72210472187499 9.316750937500351E-002
 S -0.593195631250000 -6.78855272187499 -4.29438849062500 
 S -3.59746563125000 -6.11380472187499 -1.53040049062500 
 S -1.23333063125000 -7.02249972187499 -0.228261490624997 
 S -0.989369631250001 -2.91857172187499 -3.95044649062500 
 S -4.10555163125000 -2.20297072187499 -1.31734249062500 
 S -1.82215563125000 -3.08729672187499 5.914350937500346E-002
