16

 C -2.46872314375000 -6.23326720312501 -2.47305989062500 
 C -1.27624314375000 -6.68460320312501 -1.78523389062500 
 C -2.41244714375000 -2.25851820312501 -2.37221389062500 
 C -1.19332114375000 -2.87680520312501 -1.83205789062500 
 N -0.202414143750002 -6.94150320312501 -2.48131289062500 
 N -2.29655414375000 -6.17914820312501 -3.76319689062500 
 N -3.10451814375000 -6.47387520312501 -9.009890625001127E-003
 N -0.208018143750002 -3.17844020312501 -2.70686589062500 
 N -2.30154614375000 -1.97494220312501 -3.68090489062500 
 N -2.98164314375000 -2.90220320312501 9.303510937499904E-002
 S -0.701866143750003 -6.71011520312501 -4.02907889062500 
 S -3.79916214375000 -5.90974320312501 -1.37419589062500 
 S -1.48280214375000 -6.87098620312501 -9.274789062500099E-002
 S -0.829751143750003 -2.55399920312501 -4.13070889062500 
 S -3.77358114375000 -2.20632420312501 -1.22651889062500 
 S -1.39057314375000 -3.22150620312501 -0.111068890625001 
