16

 C -2.40611455312499 -6.36726426250000 -2.58120004062500 
 C -1.29041855312499 -6.70420526250000 -1.74660404062500 
 C -2.35096855312499 -2.70563726250000 -2.40124004062500 
 C -1.20277555312499 -3.23948626250000 -1.74985704062500 
 N -0.218581553124990 -6.97926226250000 -2.46787004062500 
 N -2.19349355312499 -6.39848426250000 -3.89523804062500 
 N -3.29912055312499 -6.43322126250000 -0.121650040625002 
 N -0.167081553124990 -3.52634126250000 -2.50555004062500 
 N -2.22474255312499 -2.57812826250000 -3.70336104062500 
 N -3.03658555312499 -2.87111726250000 8.132795937499804E-002
 S -0.588857553124990 -6.79788526250000 -4.07334904062500 
 S -3.90874155312499 -6.09923926250000 -1.59726004062500 
 S -1.67131055312499 -6.75779626250000 -6.184704062500179E-002
 S -0.701407553124990 -3.08015126250000 -4.11535104062500 
 S -3.65407755312499 -2.38116126250000 -1.36155204062500 
 S -1.43556855312499 -3.44534226250000 -2.830406250018402E-004
