16

 C -2.32306314062500 -6.39951402500000 -2.36973322187500 
 C -1.18105714062500 -7.10144602500000 -1.78492222187500 
 C -2.47092214062500 -2.98054902500000 -2.34446922187500 
 C -1.23665114062500 -3.12846602500000 -1.70319122187500 
 N -0.143093140625003 -7.26655102500000 -2.60086122187500 
 N -2.12794114062500 -6.11982902500000 -3.67238922187500 
 N -2.80749414062500 -6.94880702500000 7.667577812499893E-002
 N -0.181756140625003 -3.34662902500000 -2.49887322187500 
 N -2.48038214062500 -3.08282702500000 -3.68474522187500 
 N -2.90399014062500 -2.69293002500000 0.194397778124999 
 S -0.639080140625003 -6.68682702500000 -4.09679822187500 
 S -3.63043414062500 -6.15882402500000 -1.25004522187500 
 S -1.21663414062500 -7.24312502500000 -6.865622187500109E-002
 S -0.856954140625003 -3.20861502500000 -4.03985822187500 
 S -3.74352714062500 -2.76827702500000 -1.22731822187500 
 S -1.32832614062500 -3.08553502500000 5.698778124998860E-003
