16

 C -2.66219856562500 -6.39393470937500 -2.48517118750000 
 C -1.34729956562500 -6.81358370937500 -2.09194718750000 
 C -2.70541656562500 -3.03780270937500 -2.33529818750000 
 C -1.53580956562500 -3.47264670937500 -1.56150018750000 
 N -0.453393565625002 -6.91156170937500 -3.02809818750000 
 N -2.66807956562500 -6.15352770937500 -3.76749618750000 
 N -2.79111956562500 -6.61979370937500 2.029181250000045E-002
 N -0.523714565625002 -3.77412970937500 -2.39171018750000 
 N -2.49994456562500 -2.88297570937500 -3.64093718750000 
 N -3.36195156562500 -3.18395670937500 0.140633812500000 
 S -1.20222156562500 -6.60589670937500 -4.47539218750000 
 S -3.82010556562500 -6.20054670937500 -1.30526518750000 
 S -1.27568956562500 -7.16130970937500 -0.369284187499999 
 S -0.878455565625002 -3.18945670937500 -3.88331918750000 
 S -4.04788356562500 -2.69759670937500 -1.32857718750000 
 S -1.71005856562500 -3.33820370937500 0.136658812500001 
