16

 C -2.61389446250000 -6.34111488125000 -2.57026086875000 
 C -1.33774246250000 -6.84910888125000 -2.06184986875000 
 C -2.67195146250000 -2.98833388125000 -2.30638386875000 
 C -1.52891446250000 -3.43780888125000 -1.62807986875000 
 N -0.414806462500000 -6.94075188125000 -3.03731286875000 
 N -2.69430046250000 -6.19576788125000 -3.90674086875000 
 N -2.77585546250000 -6.57171188125000 2.001213124999945E-002
 N -0.483833462499999 -3.67714288125000 -2.38094286875000 
 N -2.47998346250000 -2.75015588125000 -3.59485886875000 
 N -3.33784246250000 -3.19563188125000 0.165019131249999 
 S -1.16147346250000 -6.65212588125000 -4.47839386875000 
 S -3.86085146250000 -6.28853588125000 -1.23169186875000 
 S -1.26518346250000 -7.15236188125000 -0.328820868750001 
 S -0.915027462499999 -3.16120088125000 -3.88385786875000 
 S -3.98698246250000 -2.68384388125000 -1.26480886875000 
 S -1.72633146250000 -3.38407388125000 0.113693131249999 
