16

 C -2.09820645937499 -6.45870695625000 -2.35982801562500 
 C -0.936146459374994 -7.02447895625000 -1.73066701562500 
 C -2.69608745937499 -2.53724995625000 -2.49500601562500 
 C -1.42193845937499 -2.95745095625000 -1.80435301562500 
 N 3.987654062500567E-002 -7.28877395625000 -2.59984501562500 
 N -2.04580645937499 -6.36859495625000 -3.69122701562500 
 N -2.68284645937499 -6.72770695625000 0.115581984375002 
 N -0.400556459374994 -3.16421995625000 -2.63302401562500 
 N -2.52006245937499 -2.28480295625000 -3.78952501562500 
 N -3.14151645937499 -2.68308095625000 7.273898437500170E-002
 S -0.518483459374995 -6.88299095625000 -4.10378401562500 
 S -3.40143245937499 -6.24713095625000 -1.29292901562500 
 S -1.07330445937499 -7.18748195625000 -1.223015624998380E-003
 S -1.00723945937499 -2.81191495625000 -4.14962101562500 
 S -3.94579445937499 -2.21421595625000 -1.30871501562500 
 S -1.49270745937499 -3.05503695625000 -5.161201562499840E-002
