16

 C -2.38174535312501 -6.58083415000000 -2.49953617812500 
 C -1.12195035312501 -7.02390215000000 -1.92595117812500 
 C -2.36179335312501 -2.87207115000000 -2.49296817812500 
 C -1.31426635312501 -3.54831315000000 -1.80485617812500 
 N -0.144767353125011 -7.09563015000000 -2.81027517812500 
 N -2.29111035312501 -6.30280515000000 -3.81181117812500 
 N -2.83140335312501 -7.12298315000000 -2.108178124998306E-003
 N -0.264317353125011 -3.85304315000000 -2.54395517812500 
 N -2.16174835312501 -2.70768415000000 -3.77950017812500 
 N -3.12738635312501 -3.15705815000000 -5.446017812499804E-002
 S -0.711139353125011 -6.58387515000000 -4.24493117812500 
 S -3.74412535312501 -6.68794215000000 -1.28946717812500 
 S -1.15898135312501 -7.35813915000000 -0.233320178124998 
 S -0.654435353125010 -3.27946815000000 -4.14440917812500 
 S -3.79462135312501 -2.70159715000000 -1.46951317812500 
 S -1.52839035312501 -3.70493615000000 -6.859817812499847E-002
