16

 C -2.17123551562500 -6.59958248125000 -2.46155195625000 
 C -0.991094515624996 -7.11435848125000 -1.78865995625000 
 C -2.61237551562500 -2.32985448125000 -2.37700295625000 
 C -1.42627651562500 -2.93547348125000 -1.78580895625000 
 N 3.053248437500411E-002 -7.31784248125000 -2.60954395625000 
 N -1.99694251562500 -6.36784348125000 -3.77659995625000 
 N -2.68022251562500 -6.62316548125000 9.574604375000084E-002
 N -0.464625515624996 -3.22048948125000 -2.66817795625000 
 N -2.53826451562500 -2.34176148125000 -3.69048795625000 
 N -3.18666851562500 -2.68399148125000 7.797004375000083E-002
 S -0.485749515624996 -6.86924448125000 -4.12179695625000 
 S -3.46112651562500 -6.14438048125000 -1.29603795625000 
 S -1.14606751562500 -7.24387748125000 -8.539195624999918E-002
 S -1.02519351562500 -2.83036648125000 -4.15332495625000 
 S -3.88334051562500 -2.05498748125000 -1.29837595625000 
 S -1.63622551562500 -3.10771248125000 -9.039195624999907E-002
