16

 C -2.33292813125000 -6.71076254687499 -2.45142125625000 
 C -1.08009713125000 -6.97583154687499 -1.77820525625000 
 C -2.28591713125000 -3.47646354687499 -2.22049925625000 
 C -1.02381913125000 -3.54549754687499 -1.52607425625000 
 N -4.346213124999654E-002 -7.09176554687499 -2.58117525625000 
 N -2.27298513125000 -6.54345954687499 -3.77859325625000 
 N -2.87936513125000 -6.54199954687499 9.639474375000101E-002
 N 6.767586875000386E-002 -3.66114454687499 -2.26611725625000 
 N -2.15056813125000 -3.49915054687499 -3.56884925625000 
 N -2.85648513125000 -3.32082754687499 0.249293743750001 
 S -0.710365131249996 -6.90593154687499 -4.13078725625000 
 S -3.67894513125000 -6.30954754687499 -1.33910125625000 
 S -1.24089413125000 -6.89609154687499 -3.742025624999901E-002
 S -0.569073131249996 -3.60867654687499 -3.92058325625000 
 S -3.63875613125000 -3.18936054687499 -1.18473225625000 
 S -1.22014513125000 -3.55766554687499 0.197147743750001 
