16

 C -2.46022553125000 -6.57377776249999 -2.26289932187500 
 C -1.17821953125000 -6.78942176249999 -1.56618532187500 
 C -2.42375353125000 -2.79415776249999 -2.58483032187500 
 C -1.16831753125000 -3.26563876249999 -1.95785332187500 
 N -0.139367531250000 -6.87385076249999 -2.39255132187500 
 N -2.35007553125000 -6.46501676249999 -3.60420232187500 
 N -2.91651353125000 -6.79962076249999 0.239818678125001 
 N -0.158908531250000 -3.53649976249999 -2.78067032187500 
 N -2.26755653125000 -2.55969376249999 -3.88822132187500 
 N -2.81059053125000 -2.98093776249999 -2.707732187499912E-002
 S -0.746633531250000 -6.70773276249999 -3.89579432187500 
 S -3.80999453125000 -6.73807176249999 -1.16223232187500 
 S -1.29216153125000 -7.00098576249999 9.468567812500095E-002
 S -0.785748531249999 -3.09363876249999 -4.27941032187500 
 S -3.63192653125000 -2.40713376249999 -1.38410532187500 
 S -1.23377253125000 -3.40188976249999 -0.207858321874999 
