16

 C -2.42586393125000 -6.64019628750000 -2.41244904687500 
 C -1.17273293125000 -6.96796128750000 -1.76945804687500 
 C -2.53050593125000 -2.85431228750000 -2.25677004687500 
 C -1.32365593125000 -3.32574128750000 -1.68098804687500 
 N -0.174964931249995 -7.16643928750000 -2.58332704687500 
 N -2.28807593125000 -6.58541828750000 -3.70806904687500 
 N -2.80618793125000 -6.71711528750000 0.154203953124999 
 N -0.371062931249996 -3.56536628750000 -2.59899304687500 
 N -2.57538393125000 -2.75251128750000 -3.60820504687500 
 N -2.91123293125000 -3.13112828750000 0.273402953124999 
 S -0.735670931249995 -7.01673228750000 -4.14607104687500 
 S -3.72368593125000 -6.39890428750000 -1.29788604687500 
 S -1.29487593125000 -7.29376328750000 -8.594004687500068E-002
 S -0.993344931249996 -3.03034328750000 -4.05298904687500 
 S -3.73247393125000 -2.54932328750000 -1.06227504687500 
 S -1.28450793125000 -3.26953228750000 8.630495312499931E-002
