16

 C -2.66508747500000 -6.67190265625000 -2.25351508437500 
 C -1.44966947500000 -6.94000665625000 -1.57176808437500 
 C -2.29207947500000 -2.61748565625000 -2.47885208437500 
 C -1.16006647500000 -3.28486565625000 -1.77827808437500 
 N -0.354193475000001 -6.91005565625000 -2.34263008437500 
 N -2.47164947500000 -6.42580365625000 -3.55402808437500 
 N -3.20734447500000 -6.91915865625000 0.262611915624997 
 N -9.514347500000042E-002 -3.39657865625000 -2.57033508437500 
 N -2.11690147500000 -2.40315465625000 -3.78019108437500 
 N -3.01744847500000 -2.99713365625000 1.309091562499676E-002
 S -0.862494475000000 -6.57515165625000 -3.85683508437500 
 S -4.01222847500000 -6.65229465625000 -1.19867008437500 
 S -1.58610747500000 -7.20545665625000 0.148509915624997 
 S -0.582733475000000 -2.86273365625000 -4.08914808437500 
 S -3.63535647500000 -2.24755365625000 -1.38306608437500 
 S -1.48072547500000 -3.64577865625000 -6.502308437500326E-002
