16

 C -2.39236779687500 -6.65811740937500 -2.23344413437500 
 C -1.19249979687500 -7.08084840937500 -1.60595813437500 
 C -2.44017579687500 -2.75212340937500 -2.40885813437500 
 C -1.17595879687500 -3.14521240937500 -1.76862213437500 
 N -0.157825796875002 -7.23185540937500 -2.41234913437500 
 N -2.32670279687500 -6.44417540937500 -3.53989713437500 
 N -2.85289979687500 -6.90146240937500 0.335102865625000 
 N -0.152907796875002 -3.34656840937500 -2.61153713437500 
 N -2.34940179687500 -2.67840540937500 -3.73042313437500 
 N -2.95271179687500 -3.05355240937500 4.701486562499979E-002
 S -0.717241796875003 -6.77678240937500 -3.90334613437500 
 S -3.66333179687500 -6.72095040937500 -1.08852713437500 
 S -1.23328679687500 -7.34723840937500 8.133186562499994E-002
 S -0.739640796875003 -3.05570340937500 -4.08470413437500 
 S -3.75885979687500 -2.63752140937500 -1.35835013437500 
 S -1.33113679687500 -3.17401540937500 -9.132013437500031E-002
