16

 C -2.34885013437500 -6.65591700625000 -2.48764492500000 
 C -1.13497313437500 -7.10255900625000 -1.86436992500000 
 C -2.37318813437500 -2.98011100625000 -2.49052692500000 
 C -1.23772913437500 -3.47058300625000 -1.84724792500000 
 N -0.111020134375000 -7.11645300625000 -2.67600392500000 
 N -2.22940413437500 -6.26538400625000 -3.74397892500000 
 N -2.89975813437500 -6.96997600625000 -5.709250000005550E-004
 N -0.206075134375000 -3.68274400625000 -2.61347492500000 
 N -2.20520913437500 -2.74372000625000 -3.77891092500000 
 N -3.04873013437500 -3.22193900625000 -4.900792500000062E-002
 S -0.627793134375001 -6.59035400625000 -4.15476992500000 
 S -3.66623913437500 -6.59131900625000 -1.43759992500000 
 S -1.30905913437500 -7.36322500625000 -0.192128925000000 
 S -0.665534134375000 -3.26138900625000 -4.09947392500000 
 S -3.72815413437500 -2.65293800625000 -1.48676292500000 
 S -1.49026813437500 -3.71827300625000 -0.156538925000000 
