16

 C -2.47346175312500 -6.84583846875000 -2.26888559687500 
 C -1.14600875312500 -7.19687646874999 -1.82444559687500 
 C -2.58954275312500 -2.78169046875000 -2.36462059687500 
 C -1.43751575312500 -3.31296746875000 -1.78877159687500 
 N -0.296549753124998 -7.34411846875000 -2.81598559687500 
 N -2.58841175312500 -6.71757746875000 -3.59105759687500 
 N -2.62359375312500 -6.91696646875000 0.267307403125000 
 N -0.446010753124997 -3.54702646875000 -2.62296459687500 
 N -2.47375675312500 -2.53973846875000 -3.67114459687500 
 N -3.18377475312500 -3.28950346875000 -1.217259687499972E-002
 S -1.08892675312500 -7.00087546875000 -4.22838359687500 
 S -3.69915675312500 -6.80093946874999 -1.07263359687500 
 S -1.04039875312500 -7.34917646875000 -8.062159687499970E-002
 S -0.971704753124998 -2.98445246875000 -4.13391759687500 
 S -3.96433775312500 -2.59578446875000 -1.36034359687500 
 S -1.54004375312500 -3.55141446875000 -6.410959687499962E-002
