16

 C -2.58966185312500 -6.38456776875001 -2.24342007812500 
 C -1.37499285312500 -6.84605876875001 -1.71486807812500 
 C -2.47593285312500 -2.88985776875001 -2.44207107812500 
 C -1.16675285312500 -3.23656876875001 -1.85924507812500 
 N -0.415606853125001 -6.97226876875001 -2.62984007812500 
 N -2.56753185312500 -6.12195276875001 -3.55649707812500 
 N -3.05678585312500 -6.76311676875001 0.199085921875000 
 N -0.176106853125002 -3.31066376875001 -2.72637707812500 
 N -2.39260585312500 -2.62197076875001 -3.74054707812500 
 N -2.96113285312500 -3.18721976875001 6.514392187499984E-002
 S -1.02544185312500 -6.56375476875001 -4.08787707812500 
 S -3.88514785312500 -6.17307076875001 -1.09482807812500 
 S -1.47682385312500 -7.20141076875001 -5.222307812500038E-002
 S -0.796399853125002 -2.95249776875001 -4.16480907812500 
 S -3.83063485312500 -2.82607076875001 -1.32430007812500 
 S -1.40945185312500 -3.71725976875001 -0.138664078125000 
