16

 C -2.37985440937500 -6.46260229375000 -2.65811279062500 
 C -1.19692040937500 -6.93236429375000 -1.95740679062500 
 C -2.32818240937500 -2.63334529375000 -2.57600679062500 
 C -1.03650640937500 -3.12200629375000 -2.11457279062500 
 N -0.186669409374999 -7.14893929375000 -2.78603479062500 
 N -2.30271040937500 -6.29122529375000 -3.96397979062500 
 N -2.94254640937500 -6.58679329375000 -0.158328790625000 
 N -7.924740937499930E-002 -3.07962229375000 -3.02410979062500 
 N -2.25912540937500 -2.18771929375000 -3.82749079062500 
 N -2.69412940937500 -3.24612129375000 -6.383879062499997E-002
 S -0.778864409374999 -6.85680329375000 -4.29553979062500 
 S -3.63352040937500 -6.18136729375000 -1.55062679062500 
 S -1.32345840937500 -7.06830029375000 -0.258334790625000 
 S -0.686856409374999 -2.34265629375000 -4.33490279062500 
 S -3.57110540937500 -2.58220329375000 -1.28870479062500 
 S -1.13916840937500 -3.61722529375000 -0.451885790625000 
