16

 C -2.47566939375000 -6.76730414687500 -2.45808649062500 
 C -1.22424039375000 -7.04115214687500 -1.85508249062500 
 C -2.59264739375000 -2.74111314687500 -2.21043149062500 
 C -1.36257039375000 -3.23531914687500 -1.63831249062500 
 N -0.290457393749997 -7.17918614687500 -2.79337949062500 
 N -2.48348739375000 -6.59248214687500 -3.77936549062500 
 N -2.87333939375000 -6.86707914687500 8.243750937500094E-002
 N -0.324706393749997 -3.37688314687500 -2.48836349062500 
 N -2.57302139375000 -2.64714514687500 -3.55213649062500 
 N -3.03866339375000 -3.01226314687500 0.302254509375001 
 S -0.945595393749997 -6.88507014687500 -4.32578349062500 
 S -3.76140639375000 -6.38915914687500 -1.35010049062500 
 S -1.24024339375000 -7.08014314687500 -0.115695490624999 
 S -1.01369139375000 -3.03196714687500 -3.96287549062500 
 S -3.78760239375000 -2.51026314687500 -1.08058449062500 
 S -1.53564839375000 -3.55837214687500 1.301750937500090E-002
