16

 C -2.36023524375000 -6.34733341875000 -2.47381658125000 
 C -1.20764924375000 -6.86633541875000 -1.73339958125000 
 C -2.60245824374999 -2.74173441875000 -2.57359658125000 
 C -1.38852224375000 -3.03870041875000 -1.89240258125000 
 N -0.130943243749996 -7.20244841875000 -2.49999258125000 
 N -2.11657724374999 -6.40561341875000 -3.79183258125000 
 N -2.98847724374999 -6.37794541875000 6.783641875000224E-002
 N -0.367393243749995 -3.11296041875000 -2.70385858125000 
 N -2.46311324375000 -2.49579641875000 -3.86056858125000 
 N -3.12232624375000 -2.88819541875000 -3.781458124999793E-002
 S -0.546204243749995 -6.93042141875000 -4.07756558125000 
 S -3.70786524375000 -6.03406441875000 -1.38281258125000 
 S -1.32823424375000 -6.79493141875000 -8.634581249997941E-003
 S -0.841046243749995 -2.77307041875000 -4.27000158125000 
 S -3.91187824375000 -2.68699941875000 -1.47454858125000 
 S -1.49916624375000 -3.06441641875000 -0.155189581249998 
