16

 C -2.40815774375000 -6.53322130312500 -2.51485383750000 
 C -1.12157474375000 -6.94157830312500 -1.88991083750000 
 C -2.71038974375000 -2.66765130312500 -2.34635883750000 
 C -1.51220874375000 -3.21534830312500 -1.67653583750000 
 N -0.122873743749995 -7.05818230312500 -2.75930683750000 
 N -2.30124474375000 -6.40351530312500 -3.83400283750000 
 N -2.92829174375000 -6.71578130312500 -6.896983749999874E-002
 N -0.494445743749996 -3.44430530312500 -2.50637983750000 
 N -2.55860474375000 -2.37572730312500 -3.65201383750000 
 N -3.31663374375000 -2.82024530312500 0.137992162500001 
 S -0.765893743749996 -6.73059030312500 -4.24656783750000 
 S -3.73765174375000 -6.26729630312500 -1.41650383750000 
 S -1.29667474375000 -7.16362830312500 -0.154998837499999 
 S -1.04397374375000 -2.92277830312500 -3.99230583750000 
 S -3.98503474375000 -2.20004130312500 -1.29967083750000 
 S -1.69603174375000 -3.44998730312500 4.363716250000138E-002
