16

 C -2.46940269687500 -6.40974955312500 -2.29507301562500 
 C -1.22684269687500 -6.70378855312500 -1.66135201562500 
 C -2.45397669687500 -2.70537055312500 -2.89146101562500 
 C -1.17541669687500 -2.83141855312500 -2.24990901562500 
 N -0.231384696875002 -6.71932255312500 -2.50726701562500 
 N -2.35862369687500 -6.12555755312500 -3.59321901562500 
 N -2.95751169687500 -6.85536555312500 0.202504984375001 
 N -0.133861696875003 -2.73707555312500 -3.06313501562500 
 N -2.38156969687500 -2.51254955312500 -4.19628501562500 
 N -2.97542669687500 -3.07606755312500 -0.405751015624999 
 S -0.764361696875002 -6.27031355312500 -4.03064401562500 
 S -3.77711269687500 -6.19416255312500 -1.15335101562500 
 S -1.35693569687500 -7.04865855312500 1.112998437500079E-002
 S -0.800369696875002 -2.63803655312500 -4.54874501562500 
 S -3.80234169687500 -2.75377755312500 -1.77811001562500 
 S -1.36794569687500 -3.03025955312500 -0.549555015624999 
