16

 C -2.48064213750000 -6.48665040625000 -2.21534284062500 
 C -1.23016713750000 -6.92817040625000 -1.73427684062500 
 C -2.53070413750000 -2.79684340625000 -2.49637784062500 
 C -1.39476813750000 -3.40446940625000 -1.79636184062500 
 N -0.207116137500002 -7.06227240625000 -2.61590284062500 
 N -2.45029013750000 -6.20040740625000 -3.52331184062500 
 N -2.84897113750000 -7.07014840625000 0.316884159375000 
 N -0.318724137500002 -3.59820940625000 -2.54984784062500 
 N -2.33802913750000 -2.60901340625000 -3.81948384062500 
 N -3.27655613750000 -3.09353040625000 -4.575884062499980E-002
 S -0.868968137500002 -6.55065140625000 -4.03976384062500 
 S -3.70988213750000 -6.36476740625000 -0.944501840625000 
 S -1.20288413750000 -7.38716540625000 -2.397484062499977E-002
 S -0.773007137500002 -3.16457240625000 -4.08186084062500 
 S -3.81758513750000 -2.37003040625000 -1.40967184062500 
 S -1.67857913750000 -3.60811240625000 -3.448884062499968E-002
