16

 C -2.19754799062500 -6.60622935937500 -2.29374335937500 
 C -0.946386990625005 -6.98225435937500 -1.64285235937500 
 C -2.54445799062500 -2.62174835937500 -2.43916935937500 
 C -1.29602899062500 -2.97129835937500 -1.81527135937500 
 N 8.218200937499542E-002 -7.06947735937500 -2.45144635937500 
 N -2.10469099062500 -6.41154035937500 -3.60132435937500 
 N -2.64065299062500 -6.72889535937500 0.267979640624997 
 N -0.290458990625004 -2.98847235937500 -2.69323035937500 
 N -2.49134299062500 -2.50221035937500 -3.76658935937500 
 N -3.01794999062500 -2.74664235937500 4.259264062499701E-002
 S -0.486791990625004 -6.66812235937500 -3.96787935937500 
 S -3.48364499062500 -6.45740135937500 -1.14375735937500 
 S -1.07489999062500 -7.27699335937500 6.207664062499685E-002
 S -0.875952990625004 -2.84218735937500 -4.22583335937500 
 S -3.85236799062500 -2.47471735937500 -1.38412935937500 
 S -1.37706299062500 -3.06355035937500 -6.791035937500300E-002
