16

 C -2.30730645312500 -6.30265139687500 -2.46547598750000 
 C -1.14126645312500 -6.88751539687500 -1.83006098750000 
 C -2.27983745312500 -2.69076939687500 -2.38190098750000 
 C -1.03674545312500 -3.27376939687500 -1.78113198750000 
 N -0.166473453125001 -7.12796639687500 -2.68215398750000 
 N -2.14136745312500 -5.98813139687500 -3.72631698750000 
 N -3.00833845312500 -6.84088539687500 -3.852398750000052E-002
 N -4.815445312500088E-002 -3.56845739687500 -2.63759098750000 
 N -2.26013945312500 -2.67012939687500 -3.72436398750000 
 N -2.65517145312500 -3.00326139687500 0.168584012500000 
 S -0.630514453125001 -6.59646539687500 -4.21636198750000 
 S -3.66068245312500 -6.11128939687500 -1.39318398750000 
 S -1.40107845312500 -7.20492439687500 -0.100738987500001 
 S -0.697859453125001 -3.14364239687500 -4.14534898750000 
 S -3.49969745312500 -2.67218139687500 -1.19507598750000 
 S -1.18540545312500 -3.63588339687500 -8.351698750000036E-002
