16

 C -2.27136862812501 -6.43758215312500 -2.44760743437500 
 C -1.02629262812501 -6.75120715312500 -1.76053943437500 
 C -2.54820462812501 -2.69118515312500 -2.53611243437500 
 C -1.45452962812501 -3.24279915312500 -1.85008143437500 
 N -1.882162812500532E-002 -6.96471415312500 -2.60864543437500 
 N -2.21838062812501 -6.25561315312500 -3.77987243437500 
 N -2.83392762812501 -6.75854415312500 7.455056562499718E-002
 N -0.392432628125006 -3.55133915312500 -2.56790643437500 
 N -2.33964862812501 -2.66135715312500 -3.82756243437500 
 N -3.27703262812501 -2.93228015312500 -0.128259434375003 
 S -0.603122628125005 -6.61552215312500 -4.13894343437500 
 S -3.59213862812501 -6.30529715312500 -1.33593343437500 
 S -1.17302262812501 -6.88217515312500 -4.761243437500307E-002
 S -0.790104628125006 -3.25781715312500 -4.16190043437500 
 S -3.95225262812501 -2.44919715312500 -1.55577243437500 
 S -1.69775862812501 -3.35158115312500 -0.106152434375003 
