16

 C -2.24840131250000 -6.41262937187500 -2.27614752187500 
 C -1.01510331250000 -6.87754537187500 -1.82038952187500 
 C -2.65730431250000 -2.53170437187500 -2.48274952187500 
 C -1.56369831250000 -3.17074737187500 -1.80392252187500 
 N -2.979731250000217E-002 -6.88073337187500 -2.72104752187500 
 N -2.22921231250000 -6.09212537187500 -3.54891252187500 
 N -2.54503631250000 -6.67751837187500 0.249134478124997 
 N -0.506837312500003 -3.35430537187500 -2.62721752187500 
 N -2.47375231250000 -2.32232037187500 -3.78785152187500 
 N -3.34680531250000 -2.97739037187500 -3.015652187500306E-002
 S -0.713765312500002 -6.43612437187500 -4.14098152187500 
 S -3.48871031250000 -6.27439337187500 -1.09518852187500 
 S -1.01052631250000 -7.20080837187500 -0.117698521875003 
 S -0.924553312500002 -2.83742937187500 -4.13617152187500 
 S -4.06380031250000 -2.36339137187500 -1.43017252187500 
 S -1.71109031250000 -3.35825437187500 -0.105041521875003 
