16

 C -2.42359895312500 -6.30625751875000 -2.41007404062500 
 C -1.23117395312500 -6.80234851875000 -1.79644504062500 
 C -2.51225695312500 -2.48910651875000 -2.32176704062500 
 C -1.36728595312500 -3.05170351875000 -1.71894704062500 
 N -0.261108953124998 -6.95086851875000 -2.66986404062500 
 N -2.31643795312500 -5.98388251875000 -3.67088304062500 
 N -2.96064995312500 -6.32260651875000 7.370195937500057E-002
 N -0.344425953124998 -3.26607251875000 -2.54165404062500 
 N -2.39042995312500 -2.41856251875000 -3.65162904062500 
 N -3.08712595312500 -2.59492451875000 0.159568959375001 
 S -0.842530953124998 -6.43553251875000 -4.15658804062500 
 S -3.76458295312500 -6.08418851875000 -1.33833904062500 
 S -1.42456695312500 -7.04634251875000 -9.948104062499930E-002
 S -0.824021953124998 -2.83231351875000 -4.09468604062500 
 S -3.73357395312500 -1.95341751875000 -1.25774304062500 
 S -1.56494995312500 -3.25677051875000 -1.904004062499931E-002
