16

 C -2.49280009687500 -6.23558536562500 -2.48845984062500 
 C -1.29110309687500 -6.79029836562500 -1.81919484062500 
 C -2.42630409687500 -2.99990136562500 -2.59143284062500 
 C -1.16569509687500 -3.31961436562500 -1.87587784062500 
 N -0.330589096874999 -6.94882136562500 -2.69047884062500 
 N -2.41322109687500 -5.97902336562500 -3.80556384062500 
 N -3.00208709687500 -6.26169436562500 7.599015937499920E-002
 N -5.829609687499904E-002 -3.48168036562500 -2.61015184062500 
 N -2.23714209687500 -2.89611836562500 -3.89949084062500 
 N -2.92257809687500 -2.97639236562500 -3.487484062500079E-002
 S -0.860981096874999 -6.51959336562500 -4.20054084062500 
 S -3.74999409687500 -5.94075736562500 -1.34363284062500 
 S -1.35674309687500 -6.69657336562500 -8.258784062500091E-002
 S -0.638876096874999 -3.20391436562500 -4.16597684062500 
 S -3.72602109687500 -2.92327536562500 -1.48995384062500 
 S -1.30809209687500 -3.39097836562500 -0.161082840625001 
