16

 C -2.51021514999999 -6.61149812500000 -2.48756588125000 
 C -1.23455514999999 -6.88402512500000 -1.83576188125000 
 C -2.31325614999999 -3.18648412500000 -2.17946088125000 
 C -1.12809114999999 -3.68122612500000 -1.54646988125000 
 N -0.289605149999994 -7.05694912500000 -2.73722488125000 
 N -2.47452714999999 -6.62531312500000 -3.79836488125000 
 N -3.08034014999999 -6.63329012500000 6.730311875000217E-002
 N -9.077414999999434E-002 -3.80566512500000 -2.33960388125000 
 N -2.09090014999999 -2.90580312500000 -3.45400088125000 
 N -2.93109714999999 -3.43860212500000 0.280289118750002 
 S -0.911620149999994 -6.86957912500000 -4.28775888125000 
 S -3.85821014999999 -6.45139612500000 -1.39086388125000 
 S -1.41549614999999 -6.85113812500000 -5.530888124999800E-002
 S -0.528991149999994 -3.28821612500000 -3.87345688125000 
 S -3.66030214999999 -3.10211312500000 -1.14904888125000 
 S -1.32120214999999 -3.80660212500000 0.154988118750002 
