16

 C -2.47315200000001 -6.20738416875000 -2.40673594062500 
 C -1.24076000000001 -6.68608616875000 -1.79852494062500 
 C -2.30796700000000 -2.94120716875000 -2.52755694062500 
 C -1.09111700000000 -3.20407316875000 -1.84252894062500 
 N -0.270518000000005 -6.99052916875000 -2.65488094062500 
 N -2.32759300000001 -6.10355316875000 -3.73035094062500 
 N -2.96268700000001 -6.34735516875000 1.337059375001726E-003
 N -9.858100000000558E-002 -3.43737616875000 -2.70945294062500 
 N -2.24273300000001 -2.88158416875000 -3.87261894062500 
 N -2.87878400000000 -3.07773716875000 -4.183694062499832E-002
 S -0.825091000000005 -6.52699716875000 -4.13906294062500 
 S -3.82288100000001 -5.94984216875000 -1.41676194062500 
 S -1.35912200000001 -6.69608216875000 -7.001194062499838E-002
 S -0.611428000000005 -3.12325816875000 -4.25190994062500 
 S -3.71346900000001 -2.92159816875000 -1.46006794062500 
 S -1.23230600000001 -3.46529616875000 -7.696394062499823E-002
