16

 C -2.12460609062500 -6.78051271250000 -2.49487548750000 
 C -1.00101009062500 -7.33718571250000 -1.80455248750000 
 C -2.56073909062500 -2.59104271250000 -2.58169548750000 
 C -1.35690009062500 -3.08672571250000 -1.88488048750000 
 N -8.617709062500012E-002 -7.74201471250000 -2.66409948750000 
 N -2.06008909062500 -6.79947971250000 -3.85963448750000 
 N -2.73894209062500 -6.63275971250000 3.588851249999814E-002
 N -0.316568090625000 -3.38461571250000 -2.68764448750000 
 N -2.40189109062500 -2.52007371250000 -3.88934548750000 
 N -3.19159509062500 -2.79889271250000 -9.044648750000195E-002
 S -0.571363090625001 -7.45500871250000 -4.25478048750000 
 S -3.48731509062500 -6.39746471250000 -1.39517548750000 
 S -1.28481809062500 -7.42663371250000 -1.951748750000193E-002
 S -0.915570090625001 -3.17205471250000 -4.24249548750000 
 S -3.93079409062500 -2.41596071250000 -1.52622248750000 
 S -1.48953809062500 -3.10093671250000 -0.122755487500002 
