16

 C -2.31540154375000 -6.44813620937500 -2.45020678750000 
 C -1.08327654375000 -6.81066220937500 -1.84869778750000 
 C -2.48891154375000 -3.27254220937500 -2.09053178750000 
 C -1.13771554375000 -3.34523120937500 -1.53158078750000 
 N 6.944562500033058E-004 -6.86782820937500 -2.68739978750000 
 N -2.19680054375000 -6.38972820937500 -3.77884478750000 
 N -2.93623154375000 -6.55545320937500 1.945721250000054E-002
 N -0.233743543749997 -3.39582020937500 -2.49221378750000 
 N -2.51007554375000 -3.35688220937500 -3.42262678750000 
 N -2.72562254375000 -3.58578220937500 0.445002212500001 
 S -0.656383543749997 -6.68265520937500 -4.23998778750000 
 S -3.68347754375000 -6.22880520937500 -1.41886578750000 
 S -1.35028854375000 -6.85858820937500 -7.162978749999938E-002
 S -0.943575543749997 -3.33932420937500 -3.99576778750000 
 S -3.66411054375000 -3.33760820937500 -0.892953787500000 
 S -1.04484454375000 -3.62704420937500 0.161623212500001 
