16

 C -2.50565013749999 -6.50226347187500 -2.57803525625000 
 C -1.30807913749999 -6.77432647187500 -1.84269925625000 
 C -2.47113013749999 -2.54465147187500 -2.39195325625000 
 C -1.24551913749999 -3.04526447187500 -1.78066525625000 
 N -0.192116137499987 -6.76261647187500 -2.56633425625000 
 N -2.27891513749999 -6.32093347187500 -3.86335425625000 
 N -3.10432113749999 -6.61061147187500 -3.660825624999964E-002
 N -0.237840137499987 -3.23968747187500 -2.62133025625000 
 N -2.37069813749999 -2.56210447187500 -3.70685525625000 
 N -2.98791413749999 -2.72719147187500 0.111376743750000 
 S -0.641189137499987 -6.45710547187500 -4.14097625625000 
 S -3.95577013749999 -6.34171447187500 -1.50156525625000 
 S -1.49349213749999 -6.98838247187500 -0.160055256250000 
 S -0.769146137499987 -2.93810447187500 -4.19014425625000 
 S -3.79969013749999 -2.23172647187500 -1.32667825625000 
 S -1.38553213749999 -3.18589047187500 -6.266725624999969E-002
