16

 C -2.36158776249999 -6.36625126250000 -2.34352118437500 
 C -1.08162276249999 -6.75122626250000 -1.72232618437500 
 C -2.52510176249999 -2.72921126250000 -2.42292318437500 
 C -1.44705976249999 -3.40634726250000 -1.75847918437500 
 N -0.143686762499991 -6.94827726250000 -2.67142218437500 
 N -2.37321676249999 -6.09750726250000 -3.63841518437500 
 N -2.90586876249999 -6.71951426250000 0.182929815625003 
 N -0.370349762499991 -3.69373726250000 -2.50581318437500 
 N -2.25789576249999 -2.40712326250000 -3.70929318437500 
 N -3.31028776249999 -2.91122426250000 -1.207918437499700E-002
 S -0.823315762499991 -6.49304626250000 -4.12307318437500 
 S -3.66105476249999 -6.48121426250000 -1.25573118437500 
 S -1.29987976249999 -7.18903426250000 -1.118818437499702E-002
 S -0.772882762499991 -3.12068226250000 -4.00506918437500 
 S -4.02862576249999 -2.59373426250000 -1.45049318437500 
 S -1.76224176249999 -3.57913626250000 -5.103918437499688E-002
