16

 C -2.36824172812500 -6.52963032499999 -2.49857521875000 
 C -1.25813272812500 -7.02043332499999 -1.72369821875000 
 C -2.38021072812500 -2.85287232499999 -2.54313021875000 
 C -1.15742772812500 -3.38901432499999 -1.87427421875000 
 N -0.106212728124996 -7.20127532499999 -2.37875321875000 
 N -2.10455972812500 -6.40040132499999 -3.82166721875000 
 N -3.14939072812500 -6.82659532499999 -2.487121874999909E-002
 N -5.637472812499666E-002 -3.47030432499999 -2.60593821875000 
 N -2.22536872812500 -2.68854832499999 -3.84961621875000 
 N -2.93658872812500 -3.10402932499999 -7.814121874999902E-002
 S -0.547335728124996 -6.90622832499999 -3.95278921875000 
 S -3.77447172812500 -6.27366232499999 -1.48801121875000 
 S -1.59840672812500 -7.30989232499999 -7.076221874999922E-002
 S -0.653614728124996 -3.09559832499999 -4.15927621875000 
 S -3.72036272812500 -2.68308132499999 -1.49786921875000 
 S -1.38704472812500 -3.65361932499999 -0.206347218749999 
