16

 C -2.18249501562500 -6.19919656250000 -2.55409700312500 
 C -1.04464901562500 -6.71733256250000 -1.82715600312500 
 C -2.37965201562500 -2.86599556250000 -2.52375400312500 
 C -1.13429501562500 -3.25022156250000 -1.86795600312500 
 N 4.252898437499919E-002 -6.95668556250000 -2.54943000312500 
 N -2.02572101562500 -6.16634056250000 -3.87312100312500 
 N -3.01605301562500 -6.52778056250000 -0.175094003124998 
 N -0.124048015625000 -3.41939356250000 -2.71653800312500 
 N -2.30442501562500 -2.65899456250000 -3.84536600312500 
 N -2.79250001562500 -2.87318556250000 1.945499687500241E-002
 S -0.438572015625000 -6.59357356250000 -4.15078900312500 
 S -3.55713301562500 -5.90365056250000 -1.59435400312500 
 S -1.36128201562500 -6.73637056250000 -0.110812003124997 
 S -0.731348015625000 -3.07216556250000 -4.22585600312500 
 S -3.67842801562500 -2.79191956250000 -1.32527600312500 
 S -1.17061901562500 -3.28314656250000 -0.135613003124997 
