16

 C -2.36615640312500 -6.41778858437500 -2.46608409375000 
 C -1.16046540312500 -6.83083658437500 -1.79709709375000 
 C -2.53008740312500 -2.52472258437500 -2.17469409375000 
 C -1.23162540312500 -2.95705058437500 -1.62226909375000 
 N -0.147354403125000 -7.04860258437500 -2.63290709375000 
 N -2.21118040312500 -6.18990458437500 -3.76839409375000 
 N -2.92835940312500 -6.52492458437500 7.246990624999916E-002
 N -0.232371403125000 -3.09160358437500 -2.50808009375000 
 N -2.50228340312500 -2.37822158437500 -3.49791809375000 
 N -2.93504840312500 -2.91152058437500 0.405201906249999 
 S -0.648575403125000 -6.61941958437500 -4.14212609375000 
 S -3.76269440312500 -6.14927058437500 -1.34388809375000 
 S -1.36896240312500 -7.07369458437500 -8.358709375000073E-002
 S -0.965680403125000 -2.82434358437500 -3.96939609375000 
 S -3.78710940312500 -2.40331758437500 -0.990264093750001 
 S -1.34548640312500 -3.37974558437500 0.106221906249999 
