16

 C -2.47978687500000 -6.64374240937500 -2.42369769062500 
 C -1.19221587500000 -6.88765040937500 -1.82216669062500 
 C -2.07795287500000 -2.80316540937500 -2.30606169062500 
 C -0.936039874999996 -3.36376940937500 -1.61639469062500 
 N -0.125228874999996 -6.87876840937500 -2.57892269062500 
 N -2.36118387500000 -6.42089440937500 -3.73310869062500 
 N -2.92495287500000 -6.95257340937500 0.172031309374998 
 N 0.178595125000005 -3.33623540937500 -2.36610369062500 
 N -1.89175087500000 -2.57206340937500 -3.59583969062500 
 N -2.92087087500000 -3.17582140937500 8.359730937499821E-002
 S -0.721206874999996 -6.67355040937500 -4.16294769062500 
 S -3.81292187500000 -6.69880240937500 -1.25950469062500 
 S -1.33134387500000 -7.27570940937500 -8.778269062500188E-002
 S -0.309307874999996 -2.95198140937500 -3.90741669062500 
 S -3.48996787500000 -2.47378540937500 -1.34292269062500 
 S -1.38823987500000 -3.68737940937500 4.505430937499821E-002
