16

 C -2.53419527812500 -6.42798337500000 -2.37617009062500 
 C -1.38744227812500 -7.09626737500000 -1.80011009062500 
 C -2.60726727812500 -2.75886437500000 -2.41912709062500 
 C -1.50351127812500 -3.35433637500000 -1.71019709062500 
 N -0.380104278125000 -7.37199837500000 -2.64263109062500 
 N -2.37974627812500 -6.30180837500000 -3.65905609062500 
 N -3.04725027812500 -6.59526937500000 0.107000909375001 
 N -0.549844278125000 -3.69359237500000 -2.54789809062500 
 N -2.42689727812500 -2.56606137500000 -3.72275809062500 
 N -3.19108127812500 -2.69497437500000 5.566590937500115E-002
 S -0.925373278125000 -6.97407837500000 -4.18699709062500 
 S -3.80119627812500 -6.12380037500000 -1.28529009062500 
 S -1.56225227812500 -7.26868337500000 -1.887009062499878E-002
 S -0.863695278124999 -3.09591337500000 -4.05866309062500 
 S -3.93216527812500 -2.39630637500000 -1.36980509062500 
 S -1.63097027812500 -3.34586237500000 3.275390937500111E-002
