16

 C -2.22411751250000 -6.49744114375000 -2.28152310000000 
 C -1.07516251250000 -7.06618914375000 -1.73320410000000 
 C -2.30772251250000 -2.62334114375000 -2.46626010000000 
 C -1.11922051250000 -3.15725414375000 -1.85000610000000 
 N -0.109835512499996 -7.31632414375000 -2.63195310000000 
 N -2.21136951250000 -6.31621214375000 -3.60018610000000 
 N -2.57375351250000 -6.64132414375000 0.290168900000001 
 N -6.395551249999532E-002 -3.28060014375000 -2.66521910000000 
 N -2.15261651250000 -2.28300214375000 -3.74271810000000 
 N -2.88794951250000 -3.04860014375000 8.618090000000045E-002
 S -0.751562512499995 -6.83498814375000 -4.08616110000000 
 S -3.35169651250000 -6.05753214375000 -1.03930510000000 
 S -1.17083351250000 -7.34613914375000 2.458790000000044E-002
 S -0.565697512499995 -2.81185814375000 -4.15404210000000 
 S -3.57537151250000 -2.41986414375000 -1.32627410000000 
 S -1.37556351250000 -3.58420014375000 -0.178562099999999 
