16

 C -2.63542811875000 -6.31497736562500 -2.23683410625000 
 C -1.42718411875000 -6.89022436562500 -1.71996610625000 
 C -2.36776811875000 -2.71652436562500 -2.46189710625000 
 C -1.15470311875000 -3.21464036562500 -1.84990710625000 
 N -0.508278118750001 -7.11048936562500 -2.65378610625000 
 N -2.59502511875000 -6.09780136562500 -3.55369710625000 
 N -3.06819511875000 -6.74341936562500 0.210025893749999 
 N -0.192689118750001 -3.40068236562500 -2.72753410625000 
 N -2.26782111875000 -2.33440136562500 -3.76783510625000 
 N -2.93380111875000 -3.07788936562500 2.282889374999941E-002
 S -1.04445011875000 -6.50720236562500 -4.08525510625000 
 S -3.89688611875000 -6.12168636562500 -1.08371710625000 
 S -1.51700411875000 -7.25634636562500 -3.545110625000047E-002
 S -0.694139118750001 -2.84035236562500 -4.13636410625000 
 S -3.68076611875000 -2.53087636562500 -1.35207610625000 
 S -1.34139911875000 -3.44496236562500 -0.131896106250001 
