16

 C -2.61953641562499 -6.34208435000000 -2.56001835937500 
 C -1.34190641562499 -6.84789535000000 -2.06261835937500 
 C -2.67591041562499 -2.99559935000000 -2.30604135937500 
 C -1.53322641562499 -3.43857035000000 -1.62146135937500 
 N -0.416954415624991 -6.93440435000000 -3.03979535937500 
 N -2.69203241562499 -6.19072035000000 -3.89635935937500 
 N -2.77055441562499 -6.57599035000000 1.894064062499923E-002
 N -0.492911415624991 -3.68747835000000 -2.38426835937500 
 N -2.47924441562499 -2.76251235000000 -3.59870735937500 
 N -3.33677041562499 -3.19773635000000 0.163441640624999 
 S -1.16402841562499 -6.64941735000000 -4.48069035937500 
 S -3.86082041562499 -6.28123135000000 -1.23799235937500 
 S -1.26598141562499 -7.15357835000000 -0.330013359375001 
 S -0.911449415624991 -3.16198735000000 -3.88241135937500 
 S -3.98941441562499 -2.68582235000000 -1.27139135937500 
 S -1.72685541562499 -3.37852735000000 0.115640640624999 
