16

 C -2.43122973125000 -6.09790565937500 -2.18790631875000 
 C -1.21910273125000 -6.65406365937500 -1.61420931875000 
 C -2.55153073125000 -2.45844265937500 -2.52309831875000 
 C -1.33982573125000 -2.99346265937500 -1.85406431875000 
 N -0.287252731250000 -6.92323465937500 -2.53230731875000 
 N -2.42568373125000 -5.86773565937500 -3.50019131875000 
 N -2.91791373125000 -6.30371265937500 0.311117681250000 
 N -0.328350731250000 -3.26107865937500 -2.66975631875000 
 N -2.43969873125000 -2.33774465937500 -3.82570131875000 
 N -3.07566973125000 -2.43925965937500 -1.773631875000037E-002
 S -0.941165731249999 -6.44677965937500 -4.00067931875000 
 S -3.73180073125000 -5.87928665937500 -1.07573731875000 
 S -1.29911173125000 -6.85039465937500 0.106843681250000 
 S -0.904891731249999 -2.84719165937500 -4.12487831875000 
 S -3.83602473125000 -2.19935165937500 -1.44278131875000 
 S -1.46539173125000 -2.96336465937500 -0.130920318750000 
