16

 C -2.31881392812501 -6.55964269374999 -2.24095207187500 
 C -1.18504792812501 -7.04593669374999 -1.49454607187500 
 C -2.41674592812501 -2.70687669374999 -2.34935607187500 
 C -1.24285992812501 -3.16160969374999 -1.75642507187500 
 N -0.118188928125012 -7.20263569374999 -2.25261307187500 
 N -2.11516092812501 -6.34965169374999 -3.53837607187500 
 N -3.07242792812501 -6.73974969374999 0.214194928125000 
 N -0.182678928125013 -3.16356469374999 -2.56588107187500 
 N -2.30496792812501 -2.45557369374999 -3.64325907187500 
 N -3.01426192812501 -3.22190069374999 0.100915928125000 
 S -0.526533928125012 -6.75770569374999 -3.83163007187500 
 S -3.73878992812501 -6.20873169374999 -1.21241307187500 
 S -1.45602992812501 -7.22309669374999 0.231354928125000 
 S -0.637215928125012 -2.66996269374999 -4.04299907187500 
 S -3.76409092812501 -2.69627269374999 -1.29141507187500 
 S -1.39152192812501 -3.66083669374999 -7.807507187500029E-002
