16

 C -2.58552814062500 -6.66927011250000 -2.36578478437500 
 C -1.36587114062500 -7.08336411250000 -1.68087378437500 
 C -2.50615314062500 -2.87189911250000 -2.35533778437500 
 C -1.28432714062500 -3.45766311250000 -1.84888578437500 
 N -0.374628140625001 -7.31416811250000 -2.52235878437500 
 N -2.45244614062500 -6.50971111250000 -3.69108378437500 
 N -3.11673814062500 -6.80032711250000 0.151652215624999 
 N -0.337375140625001 -3.66033311250000 -2.70322478437500 
 N -2.41291614062500 -2.64651811250000 -3.65076978437500 
 N -2.90248214062500 -3.31717711250000 0.168134215624999 
 S -0.862492140625001 -6.85261011250000 -4.05072778437500 
 S -3.92494014062500 -6.58447711250000 -1.27164278437500 
 S -1.52938314062500 -7.30658311250000 -1.044578437500077E-002
 S -0.939085140625001 -3.15623011250000 -4.23773278437500 
 S -3.74396114062500 -2.69116611250000 -1.13976478437500 
 S -1.23660214062500 -3.57427811250000 -8.969578437500081E-002
