16

 C -2.51397853437500 -6.42712185312500 -2.49619870000000 
 C -1.23311253437500 -6.69057585312500 -1.89883770000000 
 C -2.63753653437500 -2.74596785312500 -2.29915370000000 
 C -1.45181853437500 -3.25669485312500 -1.72186970000000 
 N -0.252655534375001 -6.86719785312500 -2.76886070000000 
 N -2.49667553437500 -6.24861185312500 -3.81799770000000 
 N -2.89062153437500 -6.37639285312500 3.575229999999929E-002
 N -0.457255534375000 -3.58029985312500 -2.56045770000000 
 N -2.64095453437500 -2.70517585312500 -3.63475170000000 
 N -3.19984353437500 -3.00396185312500 0.180324299999999 
 S -0.883766534375001 -6.54732085312500 -4.26963970000000 
 S -3.77900253437500 -6.14794985312500 -1.33204770000000 
 S -1.27819553437500 -6.63468585312500 -0.211169700000001 
 S -1.08020053437500 -3.16922385312500 -4.08386670000000 
 S -4.02681353437500 -2.63358885312500 -1.20532470000000 
 S -1.57627153437500 -3.41402685312500 3.550729999999924E-002
