16

 C -2.36375500937500 -6.21410231875000 -2.38303562500000 
 C -1.27040300937500 -6.94619631875000 -1.76000162500000 
 C -2.55422800937500 -2.35337031875000 -2.45758662500000 
 C -1.45653200937500 -3.00072931875000 -1.80311062500000 
 N -0.316846009374997 -7.24791231875000 -2.62139662500000 
 N -2.17238600937500 -5.93709631875000 -3.65188162500000 
 N -3.17294700937500 -6.62836431875000 2.589537500000061E-002
 N -0.360585009374996 -3.32855831875000 -2.48314162500000 
 N -2.30655300937500 -2.22435331875000 -3.79011862500000 
 N -3.20966100937500 -2.53446431875000 2.494037500000079E-002
 S -0.671255009374996 -6.50638631875000 -4.05911262500000 
 S -3.76853800937500 -5.96396731875000 -1.42814562500000 
 S -1.64741700937500 -7.21034231875000 -6.691462499999945E-002
 S -0.782280009374997 -2.86228931875000 -4.05758062500000 
 S -3.93562000937500 -2.07979031875000 -1.40983162500000 
 S -1.63648200937500 -3.14321731875000 -5.411762499999906E-002
