16

 C -2.32790940625000 -6.71033281562500 -2.44782788750000 
 C -1.07821640625000 -6.97928581562500 -1.77764088750000 
 C -2.28937040625000 -3.47809281562500 -2.22265288750000 
 C -1.02333640625000 -3.54428681562500 -1.52830288750000 
 N -4.085140624999628E-002 -7.09633981562500 -2.58260888750000 
 N -2.27569940625000 -6.54282881562500 -3.77593588750000 
 N -2.88058540625000 -6.53907881562500 9.336611250000093E-002
 N 6.731559375000362E-002 -3.66410681562500 -2.25969588750000 
 N -2.14414340625000 -3.49349281562500 -3.56493288750000 
 N -2.85028040625000 -3.31588381562500 0.251442112500001 
 S -0.717460406249996 -6.90615681562500 -4.13282188750000 
 S -3.68043540625000 -6.31156581562500 -1.33573288750000 
 S -1.23867540625000 -6.89615981562500 -3.625488749999883E-002
 S -0.564240406249996 -3.61063581562500 -3.92185188750000 
 S -3.63239440625000 -3.18849881562500 -1.18307688750000 
 S -1.22138140625000 -3.55924681562500 0.194962112500001 
