16

 C -2.43516138125001 -6.34440850937500 -2.55987510937500 
 C -1.26589438125001 -6.83750750937500 -1.85620610937500 
 C -2.24405438125001 -2.86827550937500 -2.28078110937500 
 C -0.983487381250005 -3.43027350937500 -1.81796210937500 
 N -0.236113381250005 -7.05828150937500 -2.66117310937500 
 N -2.26453038125001 -6.10090450937500 -3.85049110937500 
 N -3.13380638125001 -6.49461850937500 -0.111037109374999 
 N 2.386187499947567E-004 -3.36498650937500 -2.70601910937500 
 N -2.11510138125001 -2.48549150937500 -3.54558310937500 
 N -2.57225538125001 -3.40390550937500 0.177158890625001 
 S -0.720888381250005 -6.52255750937500 -4.16903110937500 
 S -3.77271538125001 -5.88094750937500 -1.52223510937500 
 S -1.54229438125000 -7.03641650937500 -0.162784109375000 
 S -0.618574381250006 -2.88799750937500 -4.15264810937500 
 S -3.52088338125001 -2.97859250937500 -1.08271810937500 
 S -1.01725938125001 -3.96481950937500 -0.145694109374999 
