16

 C -2.33464265312500 -6.40752829999999 -2.42170083750000 
 C -1.09938465312499 -6.74189229999999 -1.73579383750000 
 C -2.58422065312500 -2.67379029999999 -2.53309283750000 
 C -1.39062265312500 -3.15982529999999 -1.85639783750000 
 N -6.446065312499538E-002 -6.86210629999999 -2.56488683750000 
 N -2.28107765312499 -6.43322129999999 -3.74223083750000 
 N -2.94044665312500 -6.56287429999999 6.761716250000038E-002
 N -0.346064653124995 -3.52255929999999 -2.62999983750000 
 N -2.44498865312500 -2.60652329999999 -3.85832183750000 
 N -3.25527365312499 -2.92049529999999 -6.389483749999969E-002
 S -0.656269653124995 -6.75356129999999 -4.11255083750000 
 S -3.75360465312500 -6.25748529999999 -1.35899683750000 
 S -1.30420165312499 -6.90210329999999 -3.605383749999969E-002
 S -0.903319653124995 -3.21294129999999 -4.18134783750000 
 S -3.94011465312500 -2.46308729999999 -1.50156983750000 
 S -1.67347765312500 -3.41069629999999 -0.132700837500000 
