16

 C -2.22528026250000 -6.39236271562500 -2.35524155937500 
 C -0.963989262500002 -6.74267571562500 -1.78962955937500 
 C -2.54908326250000 -2.67378371562500 -2.32400155937500 
 C -1.30818726250000 -3.16451171562500 -1.70197055937500 
 N 4.674573749999844E-002 -6.91544271562500 -2.64610655937500 
 N -2.13438026250000 -6.21864871562500 -3.67437755937500 
 N -2.73851126250000 -6.83400171562500 0.111131440625001 
 N -0.264974262500002 -3.23180171562500 -2.54224655937500 
 N -2.48364526250000 -2.41436171562500 -3.63883955937500 
 N -3.05745326250000 -3.04314471562500 0.171426440625001 
 S -0.586851262500002 -6.51721971562500 -4.11721255937500 
 S -3.54755326250000 -6.29168771562500 -1.26222555937500 
 S -1.09537426250000 -6.98455171562500 -6.460255937499904E-002
 S -0.925664262500002 -2.80501271562500 -4.01114955937500 
 S -3.91768126250000 -2.53825471562500 -1.16971255937500 
 S -1.44895626250000 -3.23825971562500 1.578944062500121E-002
