16

 C -2.41831634374999 -6.40786140937500 -2.55139450000000 
 C -1.22935634374999 -6.79510740937500 -1.87353050000000 
 C -2.36673634374999 -2.64105840937500 -2.46560950000000 
 C -1.15863534374999 -3.02151240937500 -1.74364950000000 
 N -0.131411343749994 -6.88629540937500 -2.63497050000000 
 N -2.26635434374999 -6.23322440937500 -3.85427550000000 
 N -3.10696834374999 -6.61205040937500 -4.327850000000000E-002
 N -0.141036343749994 -3.29191040937500 -2.57625750000000 
 N -2.24313034374999 -2.46890340937500 -3.79193650000000 
 N -3.04238234374999 -2.81989840937500 4.443949999999997E-002
 S -0.649484343749994 -6.53147540937500 -4.16728050000000 
 S -3.78618834374999 -6.32145540937500 -1.47492050000000 
 S -1.46292434374999 -7.04319740937500 -0.116185500000000 
 S -0.706294343749994 -3.02062040937500 -4.09363450000000 
 S -3.68004934374999 -2.33251340937500 -1.33416750000000 
 S -1.42689034374999 -3.13958840937500 -1.675950000000004E-002
