16

 C -2.49453059375000 -6.70153442812499 -2.37897509687500 
 C -1.42992559375000 -7.29401342812499 -1.64245209687500 
 C -2.50650359375000 -2.49523642812499 -2.42731709687500 
 C -1.36725559375000 -3.07711442812499 -1.80861009687500 
 N -0.442415593749999 -7.58379142812499 -2.45029609687500 
 N -2.35470359375000 -6.64527042812500 -3.68057909687500 
 N -3.07501459375000 -6.56479042812499 7.482390312499776E-002
 N -0.340820593749998 -3.33679042812499 -2.61065409687500 
 N -2.35028159375000 -2.25493642812499 -3.73105309687500 
 N -3.18870459375000 -3.00571042812499 -3.411096875002073E-003
 S -0.768392593749999 -7.09066742812499 -4.01028409687500 
 S -3.82481559375000 -6.12032242812499 -1.30497809687500 
 S -1.51148759375000 -7.22858842812499 4.478690312499789E-002
 S -0.873304593749999 -2.96929642812499 -4.14756409687500 
 S -3.83211259375000 -2.25157742812499 -1.33129709687500 
 S -1.58620859375000 -3.35617542812499 -5.726109687500225E-002
