16

 C -2.25265366250000 -6.25911709375000 -2.13131792812500 
 C -1.00109566250000 -6.75670609375000 -1.59738592812500 
 C -2.47448666250000 -2.76015309375000 -2.44371292812500 
 C -1.26727666250000 -3.13736909375000 -1.75776992812500 
 N -0.117919662500000 -6.84326009375000 -2.60325092812500 
 N -2.31808566250000 -6.08230709375000 -3.48294492812500 
 N -2.67216066250000 -6.67303409375000 0.460150071875000 
 N -0.194791662500000 -3.42366309375000 -2.48826192812500 
 N -2.29723366250000 -2.71981409375000 -3.77424192812500 
 N -3.01216666250000 -2.72739309375000 4.820207187499959E-002
 S -0.802999662500000 -6.36736709375000 -4.03580192812500 
 S -3.50552466250000 -6.12042409375000 -0.859345928125001 
 S -1.14434666250000 -7.20661109375000 0.116959071875000 
 S -0.656572662500000 -3.07061009375000 -4.01222992812500 
 S -3.75124666250000 -2.32707509375000 -1.38837592812500 
 S -1.53522866250000 -3.41772909375000 -5.448792812500058E-002
