16

 C -2.35035096250000 -6.33515338125000 -2.42769552812500 
 C -1.13589696250000 -6.86469338125000 -1.78789352812500 
 C -2.50606996250000 -2.59694838125000 -2.14046652812500 
 C -1.26822696250000 -2.96043738125000 -1.60885652812500 
 N -9.933896250000274E-002 -7.07253638125000 -2.60118352812500 
 N -2.23003596250000 -6.18070638125000 -3.74998352812500 
 N -2.87396396250000 -6.49090738125000 6.200347187500133E-002
 N -0.294265962500003 -3.10439538125000 -2.48899752812500 
 N -2.49426096250000 -2.35420938125000 -3.44349752812500 
 N -2.92469696250000 -2.89362038125000 0.372810471875001 
 S -0.639912962500002 -6.59926938125000 -4.10881852812500 
 S -3.74636996250000 -6.21012938125000 -1.35107052812500 
 S -1.31803896250000 -7.05551338125000 -9.751852812499862E-002
 S -0.952187962500003 -2.79772138125000 -4.00426052812500 
 S -3.80697896250000 -2.44909338125000 -1.01224552812500 
 S -1.34507896250000 -3.35173738125000 7.031847187500140E-002
