16

 C -2.30714784375000 -6.58414004062500 -2.50519189062500 
 C -1.00424484375000 -6.95256704062500 -1.96106089062500 
 C -2.49379184375000 -2.50387104062500 -2.51466289062500 
 C -1.29650384375000 -3.10119504062500 -1.93353589062500 
 N -7.953084374999975E-002 -7.37643404062500 -2.78259789062500 
 N -2.29362984375000 -6.61151304062500 -3.83122089062500 
 N -2.68288284375000 -6.37874404062500 -6.571889062500125E-002
 N -0.388923843750000 -3.37450804062500 -2.84884289062500 
 N -2.48640084375000 -2.43921204062500 -3.85499989062500 
 N -2.97779084375000 -2.93549304062500 2.865810937499869E-002
 S -0.869084843750000 -7.33102304062500 -4.26056989062500 
 S -3.53333884375000 -6.31565104062500 -1.45998489062500 
 S -1.04839184375000 -6.91751204062500 -0.228969890625002 
 S -0.978015843750000 -3.01952304062500 -4.35543989062500 
 S -3.73043084375000 -2.21608704062500 -1.28605089062500 
 S -1.39221584375000 -3.47172804062500 -0.250938890625001 
