16

 C -2.67149096562500 -6.29987821250000 -2.44547502187500 
 C -1.42225296562500 -6.68125021249999 -1.81386702187500 
 C -2.52023296562500 -2.96132221250000 -2.29781502187500 
 C -1.23097296562500 -3.29282421250000 -1.64254102187500 
 N -0.390787965624998 -6.75952121250000 -2.65608802187500 
 N -2.61151996562500 -6.22033021250000 -3.77592002187500 
 N -3.24216396562500 -6.59740521250000 5.329097812499817E-002
 N -0.236301965624998 -3.47804921250000 -2.50435702187500 
 N -2.38026696562500 -2.93367421250000 -3.61337102187500 
 N -2.98912496562500 -3.06778721250000 0.250324978124998 
 S -1.07354896562500 -6.54231121250000 -4.15625802187500 
 S -4.02078096562500 -6.16478321250000 -1.34557502187500 
 S -1.63631796562500 -6.88968221250000 -0.106511021875002 
 S -0.798836965624998 -3.10413721250000 -4.00835902187500 
 S -3.81563496562500 -2.69686321249999 -1.19732102187500 
 S -1.39034296562500 -3.48196621250000 5.250297812499816E-002
