16

 C -2.38104505312500 -6.06424496249999 -2.15137446875000 
 C -1.18492505312500 -6.65459196249999 -1.59846846875000 
 C -2.52506105312500 -2.44658696249999 -2.49288146875000 
 C -1.38793405312500 -2.97113796249999 -1.86968346875000 
 N -0.302478053124999 -6.92128596249999 -2.52815246875000 
 N -2.38638805312500 -5.88046396249999 -3.44537046875000 
 N -2.83517705312500 -6.28200096249999 0.318506531250000 
 N -0.369209053124999 -3.21044396249999 -2.72538746875000 
 N -2.47863805312500 -2.36676696249999 -3.84198546875000 
 N -3.04942005312500 -2.41788396249999 -2.671646874999989E-002
 S -0.914779053125000 -6.43564296249999 -3.99060546875000 
 S -3.70383705312500 -5.88521296249999 -1.08200346875000 
 S -1.29495605312500 -6.84629796249999 8.654753125000014E-002
 S -0.921499053124999 -2.83030696249999 -4.15259946875000 
 S -3.83221305312500 -2.17714096249999 -1.44971446875000 
 S -1.51458505312500 -2.94739696249999 -0.143757468750000 
