16

 C -2.66647326875000 -6.39461716250000 -2.42687520312500 
 C -1.52980326875000 -6.96715516250000 -1.71663320312500 
 C -2.32894326875000 -2.70126516250000 -2.51228220312500 
 C -1.13297526875000 -3.17825516250000 -1.81194120312500 
 N -0.467182268749998 -7.31323116250000 -2.43940320312500 
 N -2.46384826875000 -6.32355016250000 -3.75127320312500 
 N -3.20835026875000 -6.29837916250000 8.551179687499944E-002
 N -5.067726874999856E-002 -3.33573116250000 -2.57620720312500 
 N -2.19741726875000 -2.63231516250000 -3.85772920312500 
 N -2.97407726875000 -2.90249616250000 -2.215120312500085E-002
 S -0.904257268749999 -6.89607316250000 -3.99409620312500 
 S -3.99224426875000 -5.98878716250000 -1.34953420312500 
 S -1.67945626875000 -7.00735516250000 2.002979687499939E-002
 S -0.591471268749999 -3.01342816250000 -4.11942820312500 
 S -3.73249526875000 -2.51729316250000 -1.47052920312500 
 S -1.38196126875000 -3.30776016250000 -5.336520312500070E-002
