16

 C -2.67234848125001 -6.60548455625000 -2.31998540312500 
 C -1.34994148125001 -6.78608255625000 -1.71701040312500 
 C -2.31948648125001 -3.05813455625000 -2.48338940312500 
 C -1.02356448125001 -3.30039255625000 -1.86350340312500 
 N -0.313785481250005 -6.77202455625000 -2.51265940312500 
 N -2.56012448125001 -6.43295055625000 -3.63218140312500 
 N -3.10327448125001 -6.97227055625000 0.198340596875000 
 N -8.841948125000609E-002 -3.58873755625000 -2.75833040312500 
 N -2.34749648125001 -2.97465555625000 -3.80101440312500 
 N -2.71095348125001 -3.03038955625000 8.045759687500031E-002
 S -0.958339481250006 -6.66308555625000 -4.06189240312500 
 S -3.98242248125001 -6.84988055625000 -1.22517640312500 
 S -1.47490448125001 -7.16168155625000 1.004759687500045E-002
 S -0.743724481250005 -3.24127355625000 -4.23394440312500 
 S -3.63347748125001 -2.88486255625000 -1.35520440312500 
 S -1.12054748125001 -3.33606355625000 -0.173303403125000 
