16

 C -2.21946472187500 -6.71020420625000 -2.22371240937500 
 C -0.893298721875004 -7.05728220625000 -1.71423940937500 
 C -2.53779572187500 -2.68759120625000 -2.30625540937500 
 C -1.32038072187500 -3.26338120625000 -1.72812240937500 
 N -1.247872187500398E-002 -7.05489820625000 -2.70658540937500 
 N -2.27422772187500 -6.43240720625000 -3.50381740937500 
 N -2.51613872187500 -6.99536020625000 0.281956590625001 
 N -0.346448721875004 -3.48350320625000 -2.60925340937500 
 N -2.43396772187500 -2.52334920625000 -3.62197640937500 
 N -3.01417672187500 -3.08040220625000 0.164320590625001 
 S -0.769072721875004 -6.62985920625000 -4.12560440937500 
 S -3.42979172187500 -6.47402020625000 -1.00903340937500 
 S -0.857954721875004 -7.26697520625000 1.402259062500111E-002
 S -0.902749721875004 -3.06079820625000 -4.08229040937500 
 S -3.76646872187500 -2.46150420625000 -1.16462840937500 
 S -1.42591872187500 -3.54593820625000 -2.118940937499869E-002
