16

 C -2.56614567187500 -6.64939046562500 -2.32297982500000 
 C -1.31390967187500 -7.13559446562500 -1.72946382500000 
 C -2.47463667187500 -2.90473346562500 -2.36016682500000 
 C -1.23472067187500 -3.47958146562500 -1.87151282500000 
 N -0.275925671875000 -7.30913746562500 -2.56928382500000 
 N -2.45182167187500 -6.44320746562500 -3.64151882500000 
 N -3.11596667187500 -6.76932246562500 0.149487174999999 
 N -0.299192671875001 -3.69816946562500 -2.75676082500000 
 N -2.45907467187500 -2.66554646562500 -3.69353882500000 
 N -2.82783367187500 -3.35026246562500 0.152993174999999 
 S -0.946652671875000 -6.95859746562500 -4.08369982500000 
 S -3.94047567187500 -6.60585246562500 -1.28445682500000 
 S -1.54692667187500 -7.30616746562500 2.138917499999948E-002
 S -0.949089671875000 -3.16884846562500 -4.18659282500000 
 S -3.69132667187500 -2.72101546562500 -1.14955582500000 
 S -1.21831767187500 -3.66663246562500 -0.134553825000001 
