16

 C -2.54746299375000 -6.45177597500000 -2.44624907812500 
 C -1.33569799375000 -6.88857197500000 -1.77999207812500 
 C -2.64438399375000 -2.87975497500000 -2.45008007812500 
 C -1.41183999375000 -3.35994497500000 -1.83265207812500 
 N -0.323600993750000 -7.12416397500000 -2.61171607812500 
 N -2.42711799375000 -6.25946897500000 -3.76991907812500 
 N -3.12505699375000 -6.71064697500000 8.246092187499787E-002
 N -0.400399993750000 -3.56959097500000 -2.67162407812500 
 N -2.54771799375000 -2.75422897500000 -3.76355807812500 
 N -3.19763899375000 -3.10209197500000 -3.141607812500213E-002
 S -0.810693993750000 -6.62744197500000 -4.12306307812500 
 S -3.82882899375000 -6.12307997500000 -1.31549107812500 
 S -1.45309999375000 -6.98452897500000 -3.729707812500216E-002
 S -0.976274993750000 -3.12393397500000 -4.17640507812500 
 S -4.07130699375000 -2.99988897500000 -1.43498707812500 
 S -1.58135699375000 -3.68765997500000 -0.151991078125002 
