16

 C -2.30730507812500 -6.29224131875000 -2.21347428750000 
 C -1.13418407812500 -6.75329631875000 -1.56978728750000 
 C -2.30528707812500 -2.47440831875000 -2.11762728750000 
 C -1.14890907812500 -3.14843231875000 -1.64250028750000 
 N -5.809507812500136E-002 -6.91307631875000 -2.36592528750000 
 N -2.13421207812500 -6.07148731875000 -3.52297828750000 
 N -3.08613107812500 -6.50693531875000 0.194733712500001 
 N -9.018907812500121E-002 -3.08609531875000 -2.45364428750000 
 N -2.23205207812500 -2.02809931875000 -3.37988428750000 
 N -2.94370307812500 -3.33291831875000 0.267642712500000 
 S -0.644849078125001 -6.60711431875000 -3.88550928750000 
 S -3.71336607812500 -6.08951031875000 -1.25263628750000 
 S -1.47378607812500 -7.09993731875000 0.141651712500001 
 S -0.643170078125001 -2.46498031875000 -3.85856928750000 
 S -3.65040507812500 -2.48545531875000 -0.942052287499999 
 S -1.35011007812500 -3.75504231875000 -6.700628749999948E-002
