16

 C -2.44789738125000 -6.32336757187500 -2.15579802500000 
 C -1.20590738125000 -6.83184557187500 -1.61071602500000 
 C -2.20680938125000 -2.68988157187500 -2.62458202500000 
 C -0.995676381249998 -3.08817157187500 -1.90971702500000 
 N -0.158966381249998 -7.01623357187500 -2.46892402500000 
 N -2.27504338125000 -6.09903357187500 -3.46623102500000 
 N -2.83721038125000 -6.86802757187500 0.421154974999999 
 N 0.121508618750001 -3.23526057187500 -2.61796602500000 
 N -2.03831338125000 -2.60801957187500 -3.94588102500000 
 N -2.95126738125000 -2.75181657187500 -0.173700025000001 
 S -0.763032381249999 -6.55330957187500 -3.95180402500000 
 S -3.75566038125000 -6.46030557187500 -0.982172025000001 
 S -1.33801238125000 -7.46450157187500 3.917297499999917E-002
 S -0.455035381249998 -2.99222957187500 -4.16473102500000 
 S -3.60488238125000 -2.29216257187500 -1.61182702500000 
 S -1.31572638125000 -3.15281757187500 -0.201767025000001 
