16

 C -2.30177943750001 -6.33904465312500 -2.40378490312500 
 C -1.13498543750001 -6.99208865312500 -1.80424090312500 
 C -2.24491643750001 -2.65015965312500 -2.45803990312500 
 C -1.15655443750001 -3.22665365312500 -1.74103890312500 
 N -0.147511437500006 -7.30050065312500 -2.65257390312500 
 N -2.13792643750001 -6.10480565312500 -3.69965590312500 
 N -2.77132343750001 -6.67431365312500 0.203238096875002 
 N -5.080043750000574E-002 -3.36503265312500 -2.45261290312500 
 N -2.01832743750001 -2.43154465312500 -3.73994990312500 
 N -3.04484443750001 -2.92395665312500 4.600709687500171E-002
 S -0.623560437500005 -6.75567665312500 -4.15281590312500 
 S -3.53249143750001 -6.19196665312500 -1.20693290312500 
 S -1.21192743750001 -7.21307865312500 -0.103269903124998 
 S -0.457111437500005 -2.94237765312500 -4.04723690312500 
 S -3.61143243750001 -2.42529665312500 -1.40952890312500 
 S -1.42076843750001 -3.26451265312500 -2.075890312499817E-002
