16

 C -2.40977547499999 -6.40818357187499 -2.34073787812500 
 C -1.19092647499999 -6.82123657187499 -1.68412387812500 
 C -2.47651747499999 -3.15579257187499 -2.04867087812500 
 C -1.20081847499999 -3.44636257187499 -1.40445087812500 
 N -0.194489474999993 -6.88638457187499 -2.55714287812500 
 N -2.33912547499999 -6.24083457187499 -3.67823787812500 
 N -2.97812247499999 -6.94580557187499 0.179341121874999 
 N -0.145299474999994 -3.47498257187499 -2.25393387812500 
 N -2.29116647499999 -2.93513357187499 -3.35640087812500 
 N -2.97287447499999 -3.36920157187499 0.461000121874999 
 S -0.782886474999994 -6.66017057187499 -4.09383687812500 
 S -3.75427147499999 -6.53368757187499 -1.21195687812500 
 S -1.28319147499999 -7.09426057187499 6.030612187499851E-002
 S -0.721425474999993 -3.25263357187499 -3.76097587812500 
 S -3.79797347499999 -3.05420757187499 -0.984452878125001 
 S -1.32624847499999 -3.54989357187499 0.339117121874999 
