16

 C -2.48352664062499 -6.61781672812500 -2.46037269062500 
 C -1.18289964062499 -6.65816472812500 -1.80306569062500 
 C -2.43178864062499 -2.14696372812500 -2.70113269062500 
 C -1.44280164062499 -2.91564572812500 -2.02791469062500 
 N -0.121915640624993 -6.63679072812500 -2.57404769062500 
 N -2.33314764062499 -6.51459472812500 -3.77183869062500 
 N -3.06538864062499 -6.52931272812500 1.684730937499923E-002
 N -0.324645640624992 -3.16062572812500 -2.75587169062500 
 N -2.06978264062499 -1.77031572812500 -3.94788269062500 
 N -3.47968464062499 -2.66626572812500 -0.481611690625001 
 S -0.709255640624993 -6.44992972812500 -4.14334169062500 
 S -3.76558964062499 -6.37701672812500 -1.43258069062500 
 S -1.35650764062499 -6.78694372812500 -7.852169062500081E-002
 S -0.599759640624993 -2.52215072812500 -4.27278469062500 
 S -3.96995364062499 -1.84076672812500 -1.83091269062500 
 S -1.96991364062499 -3.35849972812500 -0.443939690625001 
