16

 C -2.44761573437499 -6.46486342812500 -2.34724427187500 
 C -1.20617873437499 -6.91223742812500 -1.73977527187500 
 C -2.34031673437499 -3.04258742812500 -2.18987227187500 
 C -1.07310573437499 -3.34755242812500 -1.70579827187500 
 N -0.186859734374994 -7.00495542812500 -2.58804827187500 
 N -2.37912773437499 -6.35099842812500 -3.65985027187500 
 N -2.90263173437499 -6.72246642812500 9.150372812499974E-002
 N -0.127023734374994 -3.43710042812500 -2.61423727187500 
 N -2.39524073437499 -2.78972942812500 -3.48290027187500 
 N -2.61313273437499 -3.36252842812500 0.361271728125000 
 S -0.822552734374994 -6.61630542812500 -4.08711627187500 
 S -3.71022973437499 -6.34910242812500 -1.27072927187500 
 S -1.25177473437499 -7.01808642812500 2.113872812499973E-002
 S -0.892977734374994 -3.11632842812500 -4.08619927187500 
 S -3.61084873437499 -3.14231942812500 -0.976100271875000 
 S -1.00585773437499 -3.53813942812500 -4.199271875000354E-003
