16

 C -2.56847665000000 -6.64865125625000 -2.31435464375000 
 C -1.30778665000000 -7.14008525625000 -1.72059464375000 
 C -2.47793965000000 -2.91536825625000 -2.36434164375000 
 C -1.22025465000000 -3.46952025625000 -1.88602864375000 
 N -0.285578649999996 -7.30295425625000 -2.58204264375000 
 N -2.44998765000000 -6.44117125625000 -3.63212964375000 
 N -3.12133965000000 -6.76851025625000 0.143836356250001 
 N -0.297809649999997 -3.70081125625000 -2.77865964375000 
 N -2.46201665000000 -2.67090725625000 -3.68461464375000 
 N -2.81525865000000 -3.35005825625000 0.149488356250001 
 S -0.949851649999997 -6.96985225625000 -4.08930864375000 
 S -3.93745765000000 -6.60570125625000 -1.28227064375000 
 S -1.54349465000000 -7.30430925625000 2.172635625000074E-002
 S -0.945836649999997 -3.17250625625000 -4.17486264375000 
 S -3.68419165000000 -2.72418025625000 -1.15024664375000 
 S -1.22275565000000 -3.67910225625000 -0.134935643749999 
