16

 C -2.66077690624999 -6.51062763750000 -2.30259301875000 
 C -1.38838690624999 -6.90718463750000 -1.78051701875000 
 C -2.34920090624999 -2.92613063750000 -2.35421401875000 
 C -1.20937390624999 -3.52533163750000 -1.68344101875000 
 N -0.448438906249994 -7.09936163750000 -2.69964501875000 
 N -2.64432990624999 -6.21541563750000 -3.60363401875000 
 N -3.05189290624999 -6.76744663750000 0.243246981250000 
 N -0.195255906249995 -3.70657363750000 -2.49640001875000 
 N -2.16767990624999 -2.72229563750000 -3.63295701875000 
 N -2.98429790624999 -2.98221663750000 0.115923981250000 
 S -1.11152390624999 -6.61205163750000 -4.15559701875000 
 S -3.90093190624999 -6.22891463750000 -1.07843201875000 
 S -1.45727690624999 -7.14724763750000 -3.204701875000016E-002
 S -0.616095906249995 -3.20898963750000 -4.05434801875000 
 S -3.73603190624999 -2.81300563750000 -1.37633301875000 
 S -1.44675290624999 -3.71537363750000 -2.945101875000056E-002
