16

 C -2.38116715937500 -6.62423204375000 -2.29283595000000 
 C -1.12621215937500 -6.93976604375000 -1.67329495000000 
 C -2.61029815937500 -3.14356404375000 -2.04574695000000 
 C -1.33323515937500 -3.46798304375000 -1.35926095000000 
 N -0.176102159374996 -7.07190704375000 -2.58406795000000 
 N -2.37297115937500 -6.44806604375000 -3.58603995000000 
 N -2.87828515937500 -6.90464604375000 0.195117050000002 
 N -0.266079159374996 -3.62466304375000 -2.13940695000000 
 N -2.49382615937500 -3.10497504375000 -3.36831995000000 
 N -3.22057815937500 -3.33918604375000 0.426564050000002 
 S -0.813860159374997 -6.64597804375000 -4.07044095000000 
 S -3.75064715937500 -6.46647304375000 -1.19710595000000 
 S -1.28927815937500 -7.17850404375000 -2.277794999999849E-002
 S -0.871474159374997 -3.22392404375000 -3.68208795000000 
 S -3.94322315937500 -3.15367804375000 -1.04665895000000 
 S -1.53347515937500 -3.57873204375000 0.384950050000002 
