16

 C -2.28805106562500 -6.26217870000000 -2.38373555312500 
 C -1.05388206562500 -6.79062070000000 -1.73177755312500 
 C -2.58919806562500 -2.59162070000000 -2.58953455312500 
 C -1.43033106562500 -3.12488470000000 -1.89660455312500 
 N -0.112604065624998 -6.95616670000000 -2.61399455312500 
 N -2.30010006562500 -6.16459770000000 -3.71073955312500 
 N -2.81125006562500 -6.62987370000000 0.169786446874998 
 N -0.374675065624998 -3.48359670000000 -2.67873655312500 
 N -2.47511506562500 -2.50458970000000 -3.92302355312500 
 N -3.24142906562500 -2.69760870000000 -9.301455312500173E-002
 S -0.731172065624998 -6.59497970000000 -4.12471955312500 
 S -3.56442506562500 -5.94104670000000 -1.20998855312500 
 S -1.23235206562500 -7.07971470000000 -6.322055312500163E-002
 S -0.951099065624998 -3.10501070000000 -4.17560055312500 
 S -3.92153206562500 -2.15559470000000 -1.50538255312500 
 S -1.61619606562500 -3.14140870000000 -0.172872553125002 
