16

 C -2.48398265937500 -6.37214249062499 -2.27844914687500 
 C -1.30210365937500 -6.90533249062499 -1.68894914687500 
 C -2.64222965937500 -3.13407949062499 -2.52169914687500 
 C -1.39511365937500 -3.36376149062499 -1.81906414687500 
 N -0.307581659375004 -7.08092149062499 -2.53493514687500 
 N -2.45301465937500 -6.16169849062499 -3.57051314687500 
 N -3.05853565937500 -6.59288249062499 0.163664853124999 
 N -0.310371659375004 -3.38889049062499 -2.59183514687500 
 N -2.47476165937500 -2.87761249062499 -3.83731814687500 
 N -3.12569665937500 -3.06420249062499 0.127931853124999 
 S -0.934514659375004 -6.66100549062499 -4.06457514687500 
 S -3.86242765937500 -6.12871049062499 -1.22079214687500 
 S -1.47634765937500 -7.04992349062499 1.241585312499938E-002
 S -0.897920659375004 -3.16491849062499 -4.14982414687500 
 S -3.90885565937500 -3.00362749062499 -1.28027714687500 
 S -1.54205965937500 -3.53524749062499 -7.686014687500076E-002
