16

 C -2.29221357187500 -6.43762452500000 -2.21938320625000 
 C -1.11976057187500 -6.96827052500000 -1.67347320625000 
 C -2.32227857187500 -2.64872052500000 -2.44125720625000 
 C -1.10394757187500 -3.18865652500000 -1.93143320625000 
 N -0.142360571874999 -7.23786752500000 -2.52824720625000 
 N -2.23616557187500 -6.21873952500000 -3.52439020625000 
 N -2.75582457187500 -6.74089752500000 0.231480793750000 
 N -0.233242571875000 -3.39822552500000 -2.89453520625000 
 N -2.30709257187500 -2.25044152500000 -3.67950120625000 
 N -2.76910557187500 -3.19441152500000 -1.361020624999965E-002
 S -0.770318571874999 -6.81115752500000 -4.01828420625000 
 S -3.56953557187500 -6.31013452500000 -1.10704120625000 
 S -1.16955457187500 -7.20412452500000 6.307479375000025E-002
 S -0.817878571874999 -2.77633252500000 -4.30310320625000 
 S -3.52452057187500 -2.40373452500000 -1.28762920625000 
 S -1.17059857187500 -3.50937752500000 -0.278494206250000 
