16

 C -2.64264010000000 -6.35860791250000 -2.36812253750000 
 C -1.50150710000000 -6.88331291250000 -1.69733953750000 
 C -2.34698910000000 -2.74525991250000 -2.51507353750000 
 C -1.16218010000000 -3.06774191250000 -1.78548653750000 
 N -0.519235100000002 -7.22902791250000 -2.50053553750000 
 N -2.51632410000000 -6.31284391250000 -3.67900253750000 
 N -3.19317310000000 -6.23783091250000 0.133505462499999 
 N -0.104245100000002 -3.28157891250000 -2.58814953750000 
 N -2.18135510000000 -2.67786091250000 -3.82290753750000 
 N -3.04645210000000 -2.86513791250000 3.449546249999869E-002
 S -0.949371100000002 -6.84981091250000 -4.03254753750000 
 S -3.97966610000000 -5.99971591250000 -1.28958953750000 
 S -1.71539110000000 -6.98407291250000 -1.271253750000123E-002
 S -0.571319100000002 -3.02924691250000 -4.11308953750000 
 S -3.66117110000000 -2.47315391250000 -1.41231153750000 
 S -1.43236910000000 -3.26838491250000 -8.382153750000132E-002
