16

 C -2.59008566562499 -6.26536526875000 -2.43478244375000 
 C -1.42330266562499 -6.92655126875000 -1.91652644375000 
 C -2.43541766562499 -2.58990726875000 -2.17999244375000 
 C -1.36253166562499 -3.38743126875000 -1.60591244375000 
 N -0.444309665624993 -7.22321726875000 -2.75798144375000 
 N -2.45875766562499 -5.97884726875000 -3.71533144375000 
 N -3.02828266562499 -6.58103626875000 6.945155625000066E-002
 N -0.427238665624992 -3.69903226875000 -2.48006344375000 
 N -2.29110566562499 -2.35396626875000 -3.48436144375000 
 N -2.94469766562499 -2.79896626875000 0.273700556250001 
 S -0.996543665624992 -6.59147026875000 -4.23064044375000 
 S -3.82764866562499 -6.01156426875000 -1.29227144375000 
 S -1.56517166562499 -7.29891026875000 -0.214716443750000 
 S -0.874741665624993 -3.07033626875000 -3.97235444375000 
 S -3.79566066562499 -2.42969826875000 -1.11290744375000 
 S -1.51801766562499 -3.64400926875000 4.697855625000069E-002
