16

 C -2.41311170625000 -6.35331810625000 -2.39452241875000 
 C -1.15413370625000 -6.79320510625000 -1.77569141875000 
 C -2.32032970625000 -2.96652710625000 -2.45683841875000 
 C -1.07342570625000 -3.22792110625000 -1.85013541875000 
 N -0.186712706250001 -6.97195010625000 -2.67656941875000 
 N -2.42175870625000 -6.34430810625000 -3.73321141875000 
 N -2.91559570625000 -6.42855610625000 0.140091581249996 
 N -1.473670625000079E-002 -3.40772810625000 -2.63595341875000 
 N -2.26314070625000 -2.87295610625000 -3.78811541875000 
 N -2.75230170625000 -3.12196210625000 8.591958124999621E-002
 S -0.873570706250001 -6.72547910625000 -4.24683541875000 
 S -3.78639070625000 -6.28318110625000 -1.28036641875000 
 S -1.31788570625000 -6.91322110625000 -3.466641875000365E-002
 S -0.685261706250000 -3.20763710625000 -4.16568741875000 
 S -3.61368970625000 -2.70055010625000 -1.26169641875000 
 S -1.17744970625000 -3.49474310625000 -7.994441875000380E-002
