16

 C -2.34512220000000 -6.49848201875000 -2.54179882187500 
 C -1.14343520000000 -6.84663601875000 -1.85691382187500 
 C -2.50005220000000 -2.59894401875000 -2.36878682187500 
 C -1.29261220000000 -3.06497401875000 -1.63903282187500 
 N -0.111232200000001 -6.88731401875000 -2.68097782187500 
 N -2.28510920000000 -6.29739801875000 -3.87167482187500 
 N -2.97323620000000 -6.90994001875000 -4.373082187499810E-002
 N -0.252739200000001 -3.39703301875000 -2.39076382187500 
 N -2.33879420000000 -2.51913301875000 -3.68029482187500 
 N -3.28724720000000 -2.77647901875000 6.324717812500213E-002
 S -0.715728200000000 -6.52553001875000 -4.19274582187500 
 S -3.73757820000000 -6.56881001875000 -1.49854282187500 
 S -1.33011520000000 -7.28891001875000 -0.189977821874998 
 S -0.764034200000000 -3.04416201875000 -3.91972082187500 
 S -3.87481420000000 -2.28168201875000 -1.43652982187500 
 S -1.65299420000000 -3.20156201875000 3.957617812500214E-002
