16

 C -2.31807712812500 -6.39095669062501 -2.23553410937500 
 C -1.13572412812500 -6.88187069062501 -1.61858810937500 
 C -2.42001312812500 -2.59508569062501 -2.41373910937500 
 C -1.15391212812500 -3.12173869062501 -1.83618810937500 
 N -0.141505128124995 -6.90343469062501 -2.48792810937500 
 N -2.25455712812500 -6.22234169062501 -3.54640210937500 
 N -2.84160712812499 -6.66807769062501 0.295961890624997 
 N -0.158949128124995 -3.28081469062501 -2.70088710937500 
 N -2.26236412812499 -2.41927369062501 -3.70476510937500 
 N -3.04000012812500 -3.10095669062501 4.213789062499740E-002
 S -0.707148128124995 -6.52821469062501 -4.04678410937500 
 S -3.68664212812500 -6.31111369062501 -1.16289010937500 
 S -1.35216212812499 -7.28515169062501 4.189489062499741E-002
 S -0.728134128124995 -2.73663969062501 -4.14579610937500 
 S -3.77050312812500 -2.46887669062501 -1.35058610937500 
 S -1.35074312812500 -3.50075969062501 -9.173110937500262E-002
