16

 C -2.50567095312500 -6.75531182499999 -2.43439759375000 
 C -1.14013995312500 -7.05913082499999 -1.95367059375000 
 C -2.55189995312500 -2.94114982499999 -2.50900159375000 
 C -1.36179395312500 -3.36672082499999 -1.78489659375000 
 N -0.211612953125001 -7.14374582499999 -2.91509159375000 
 N -2.55644895312500 -6.59200582499999 -3.76107659375000 
 N -2.65546195312500 -7.06465982499999 0.175261406250000 
 N -0.291537953125001 -3.58948482499999 -2.55279359375000 
 N -2.39316695312500 -2.73551582499999 -3.80054259375000 
 N -3.23541895312500 -3.13486782499999 3.024840625000014E-002
 S -1.02031795312500 -6.78659082499999 -4.33557059375000 
 S -3.66360695312500 -6.76018882499999 -1.10871759375000 
 S -1.00835395312500 -7.37388682499999 -0.220940593750000 
 S -0.777489953125000 -3.13267382499999 -4.10021959375000 
 S -3.92680695312500 -2.56647482499999 -1.38631359375000 
 S -1.62451995312500 -3.76208582499999 -7.437459375000000E-002
