16

 C -2.44000762812500 -6.52100302187501 -2.46106409687500 
 C -1.18230362812500 -6.85559202187501 -1.86315609687500 
 C -2.67105662812500 -2.59015802187501 -2.33780709687500 
 C -1.53280262812500 -3.23616102187501 -1.71844209687500 
 N -0.134724628125003 -6.98682802187501 -2.65683709687500 
 N -2.35535362812500 -6.47743502187501 -3.78057109687500 
 N -2.86896562812500 -6.65331302187501 0.138493903125000 
 N -0.520792628125003 -3.39755102187501 -2.55846409687500 
 N -2.54773162812500 -2.47419602187501 -3.66333509687500 
 N -3.20513762812500 -2.80960202187501 0.143214903125000 
 S -0.747031628125002 -6.83679302187501 -4.22014709687500 
 S -3.65883562812500 -6.28368502187501 -1.32467909687500 
 S -1.33895962812500 -7.13669302187501 -0.163282096875000 
 S -0.981206628125003 -2.93568802187501 -4.07407109687500 
 S -3.92768262812500 -2.27086802187501 -1.23852409687500 
 S -1.75299562812500 -3.46507402187501 -4.108109687500017E-002
