16

 C -2.81207411250000 -6.40263140625001 -2.47844928125000 
 C -1.57976711250000 -6.74356640625001 -1.78401528125000 
 C -2.37127511249999 -2.91240040625001 -2.27732428125000 
 C -1.11139911250000 -3.32170040625001 -1.60024928125000 
 N -0.532761112499995 -6.89003140625001 -2.58150828125000 
 N -2.64672711250000 -6.20797040625001 -3.78732528125000 
 N -3.33817311250000 -6.61347440625001 3.219671874999985E-002
 N -9.693611249999545E-002 -3.33313640625001 -2.46252428125000 
 N -2.26053511250000 -2.72480940625001 -3.58969528125000 
 N -2.88437611250000 -3.10552140625001 0.238772718750000 
 S -1.04781211250000 -6.47644140625001 -4.09224128125000 
 S -4.11693211250000 -6.10059840625001 -1.36770528125000 
 S -1.71707511250000 -6.99334540625001 -6.583128125000015E-002
 S -0.705053112499995 -3.16490640625001 -3.99894728125000 
 S -3.66189511250000 -2.83177440625001 -1.18020528125000 
 S -1.30337511250000 -3.48206140625001 0.105932718750000 
