16

 C -2.55479410000000 -6.50538633125000 -2.40949669687500 
 C -1.36379010000000 -6.95786033125000 -1.78853869687500 
 C -2.55827810000000 -2.69154333125000 -2.55392769687500 
 C -1.34695610000000 -3.19255733125000 -1.84906269687500 
 N -0.344921100000001 -7.18253433125000 -2.62264869687500 
 N -2.41803610000000 -6.25490433125000 -3.72853069687500 
 N -3.07274610000000 -6.87854933125000 9.075630312499916E-002
 N -0.217054100000001 -3.31121933125000 -2.56311569687500 
 N -2.31675810000000 -2.53712333125000 -3.85856069687500 
 N -3.19999710000000 -2.92555033125000 -4.739069687500086E-002
 S -0.838776100000001 -6.71209633125000 -4.09503269687500 
 S -3.90647910000000 -6.44868833125000 -1.29914569687500 
 S -1.45097410000000 -7.18340033125000 -9.313969687500090E-002
 S -0.771449100000001 -2.95395833125000 -4.13525669687500 
 S -3.97248810000000 -2.61733833125000 -1.51572369687500 
 S -1.57205110000000 -3.30635033125000 -0.102640696875001 
