16

 C -2.51023682187500 -6.24892232812500 -2.49767021875000 
 C -1.29600882187500 -6.77846132812500 -1.82486521875000 
 C -2.41719382187500 -3.01995332812500 -2.56905021875000 
 C -1.19318282187500 -3.35654732812500 -1.89729121875000 
 N -0.317931821874998 -6.94744432812500 -2.70606821875000 
 N -2.41900182187500 -5.96306132812500 -3.82981521875000 
 N -2.98097682187500 -6.25735232812500 0.117881781249998 
 N -5.783782187499753E-002 -3.47426432812500 -2.61434321875000 
 N -2.22320382187500 -2.89751632812500 -3.89284921875000 
 N -2.95447182187500 -2.95315032812500 -3.861821875000171E-002
 S -0.873795821874998 -6.51572332812500 -4.21223221875000 
 S -3.74109182187500 -5.93852932812500 -1.32847721875000 
 S -1.37684782187500 -6.69914332812500 -9.382321875000166E-002
 S -0.643027821874997 -3.22751632812500 -4.14382821875000 
 S -3.72755982187500 -2.91829632812500 -1.48664721875000 
 S -1.32743982187500 -3.36755832812500 -0.188296218750001 
