16

 C -2.43068019687499 -6.34338690625000 -2.45138733437500 
 C -1.23527019687499 -6.82195490625000 -1.83129233437500 
 C -2.45633319687499 -2.45890090625000 -2.35539933437500 
 C -1.25947019687499 -2.99399490625000 -1.73200133437500 
 N -0.206766196874993 -6.92560490625000 -2.65900633437500 
 N -2.38899319687499 -6.04460190625000 -3.72523633437500 
 N -3.01708419687499 -6.41694290625000 9.883466562499943E-002
 N -0.235063196874993 -3.25083890625000 -2.58388533437500 
 N -2.38973919687499 -2.34518390625000 -3.68519333437500 
 N -3.11077319687499 -2.75281790625000 0.119531665624999 
 S -0.813003196874993 -6.48524990625000 -4.16952633437500 
 S -3.77538619687499 -6.01785790625000 -1.34938333437500 
 S -1.50183319687499 -6.96854090625000 -3.349133437500074E-002
 S -0.831606196874993 -2.73301390625000 -4.04771333437500 
 S -3.71041719687499 -1.96373690625000 -1.19469433437500 
 S -1.52074619687499 -3.22116290625000 -2.753333437500061E-002
