16

 C -2.63931680937500 -6.41796023750000 -2.49499939687500 
 C -1.33590080937500 -6.80992923750000 -2.07084439687500 
 C -2.69789080937500 -3.04485423750000 -2.34627439687500 
 C -1.52633180937500 -3.49010623750000 -1.59059339687500 
 N -0.452746809374997 -6.92463423750000 -3.02410839687500 
 N -2.67758280937500 -6.14310323750000 -3.76025139687500 
 N -2.82858180937500 -6.63320723750000 2.031060312500110E-002
 N -0.506772809374997 -3.78547923750000 -2.36950839687500 
 N -2.51296180937500 -2.91322823750000 -3.65001039687500 
 N -3.38168480937500 -3.16291723750000 0.130361603125001 
 S -1.22113080937500 -6.58369323750000 -4.45542039687500 
 S -3.79991680937500 -6.17327923750000 -1.31300639687500 
 S -1.27957780937500 -7.16141123750000 -0.389125396874999 
 S -0.874093809374997 -3.21084323750000 -3.88805639687500 
 S -4.07513280937500 -2.69912423750000 -1.33975539687500 
 S -1.70385480937500 -3.33167723750000 0.143249603125001 
