16

 C -2.60100425625000 -6.51844478437500 -2.35898198437500 
 C -1.35166325625000 -6.92972678437500 -1.77242898437500 
 C -2.35628725625000 -2.97821578437500 -2.40940298437500 
 C -1.11829425625000 -3.41592578437500 -1.73657998437500 
 N -0.366532256250003 -7.05816778437501 -2.63705698437500 
 N -2.59988125625000 -6.32210378437500 -3.66365298437500 
 N -2.95389325625000 -6.68702178437500 0.168733015624999 
 N -0.106345256250004 -3.61614278437500 -2.56951298437500 
 N -2.20304425625000 -2.77467678437500 -3.71601198437500 
 N -2.90825025625000 -3.19745478437500 9.399801562499910E-002
 S -1.02930625625000 -6.65900378437500 -4.12463398437500 
 S -3.81605725625000 -6.24541878437500 -1.18509298437500 
 S -1.33554925625000 -6.98775678437501 -7.344598437500083E-002
 S -0.637268256250003 -3.19544678437500 -4.12878798437500 
 S -3.65499425625000 -2.74669378437500 -1.33762498437500 
 S -1.28973425625000 -3.54932978437501 -2.006098437500081E-002
