16

 C -2.50189550937500 -6.62226093125000 -2.29665809062500 
 C -1.27548550937500 -7.03218893125000 -1.64037309062500 
 C -2.39164750937500 -2.53472293125000 -2.53411309062500 
 C -1.25956350937500 -3.03088293125000 -1.83089609062500 
 N -0.296893509375001 -7.40467793125000 -2.42237809062500 
 N -2.36052750937500 -6.55751193125000 -3.61789809062500 
 N -3.00390850937500 -6.64547593125000 0.236033909375002 
 N -0.192130509375001 -3.06424893125000 -2.60320109062500 
 N -2.17928550937500 -2.26091993125000 -3.81509109062500 
 N -2.98928750937500 -2.69341093125000 -1.675609062499817E-002
 S -0.807068509375001 -7.14811193125000 -3.96250009062500 
 S -3.77939250937500 -6.22766893125000 -1.19496809062500 
 S -1.39818750937500 -7.28485093125000 5.606390937500172E-002
 S -0.550024509375001 -2.57018293125000 -4.15532409062500 
 S -3.74471550937500 -2.35430293125000 -1.46649609062500 
 S -1.44584850937500 -3.35018493125000 -0.117585090624998 
