16

 C -2.58432704687500 -6.50111564687499 -2.40139814062500 
 C -1.33491104687500 -6.91421664687499 -1.75889814062500 
 C -2.37800504687500 -2.78697364687499 -2.18784414062500 
 C -1.13447604687500 -3.28277464687499 -1.63679814062500 
 N -0.304197046874997 -7.09698764687499 -2.60174114062500 
 N -2.43133104687500 -6.28872264687499 -3.70753414062500 
 N -3.08888004687500 -6.82936264687499 0.171893859374999 
 N -0.196249046874997 -3.46288664687499 -2.57554414062500 
 N -2.37522004687500 -2.66056064687499 -3.51571814062500 
 N -2.83973104687500 -2.99912564687499 0.336291859374999 
 S -0.913007046874997 -6.77172364687499 -4.10939414062500 
 S -3.89562504687500 -6.39517864687499 -1.27859614062500 
 S -1.49453704687500 -7.21345364687499 -7.924140625000575E-003
 S -0.781232046874997 -2.95252664687499 -4.03906914062500 
 S -3.68333604687500 -2.44606264687499 -1.01488114062500 
 S -1.26105504687500 -3.49441964687499 8.042185937499924E-002
