16

 C -2.52474212187499 -6.42420046875001 -2.43104109375000 
 C -1.33422912187499 -6.74148746875001 -1.73713109375000 
 C -2.62174212187499 -2.48807946875001 -2.40274409375000 
 C -1.37879112187499 -3.05413146875001 -1.84966209375000 
 N -0.264752121874991 -6.79392046875001 -2.53652109375000 
 N -2.39357612187499 -6.23561646875001 -3.75945409375000 
 N -3.33381312187499 -6.66046046875001 3.386090624999905E-002
 N -0.403748121874991 -3.25386146875001 -2.74811709375000 
 N -2.49607112187499 -2.24025046875001 -3.70080609375000 
 N -3.12090212187499 -2.66733846875001 9.753290624999900E-002
 S -0.809970121874991 -6.51333446875001 -4.10149109375000 
 S -4.04227612187499 -6.55000346875001 -1.46140809375000 
 S -1.60949812187499 -6.94183546875001 1.693490624999905E-002
 S -0.952523121874991 -2.74777746875001 -4.20830109375000 
 S -3.93899912187499 -2.22511846875001 -1.26492309375000 
 S -1.53038012187499 -3.18740846875001 -6.880209375000113E-002
