16

 C -2.71348070312500 -6.69623353750000 -2.29898232187500 
 C -1.43531370312500 -6.87659353750000 -1.71203632187500 
 C -2.42155770312500 -3.13972753750000 -2.49763332187500 
 C -1.12836270312500 -3.20915153750000 -1.90829832187500 
 N -0.367934703125002 -6.90626753750000 -2.56692132187500 
 N -2.63538570312500 -6.63347853750000 -3.62755132187500 
 N -3.12875170312500 -6.76443653750000 0.222071678124999 
 N -0.156387703125001 -3.23220353750000 -2.79940432187500 
 N -2.48596470312500 -3.12228553750000 -3.85363232187500 
 N -2.68422870312500 -3.09888153750000 0.140212678124999 
 S -1.07923070312500 -6.64918053750000 -4.05036132187500 
 S -3.99589870312500 -6.57043953750000 -1.22233032187500 
 S -1.53875670312500 -7.13035953750000 5.792767812499910E-002
 S -0.860003703125002 -3.29887253750000 -4.31435032187500 
 S -3.66881070312500 -2.92898553750000 -1.24053232187500 
 S -1.08143870312500 -3.34353453750000 -0.188520321875001 
