16

 C -2.44667825625000 -6.34512302812500 -2.55200293750000 
 C -1.29375125625000 -6.81286902812500 -1.82418693750000 
 C -2.37496225625000 -2.60587102812500 -2.48207693750000 
 C -1.28551225625000 -3.27401402812500 -1.77377993750000 
 N -0.178738256250002 -6.98932302812500 -2.56440693750000 
 N -2.20329225625000 -6.20965402812500 -3.84969793750000 
 N -3.25111825625000 -6.72784602812500 -0.173046937499998 
 N -0.300299256250002 -3.64157602812500 -2.56573393750000 
 N -2.11458425625000 -2.28692502812500 -3.75254693750000 
 N -3.01601425625000 -2.80542302812500 4.801806250000196E-002
 S -0.645766256250002 -6.62494702812500 -4.10350993750000 
 S -3.85326425625000 -6.13780902812500 -1.58847093750000 
 S -1.58088825625000 -6.96081102812500 -9.207393749999815E-002
 S -0.688868256250002 -3.06284502812500 -4.13156093750000 
 S -3.64886425625000 -2.25287502812500 -1.35667193750000 
 S -1.40778825625000 -3.35108702812500 -0.104911937499998 
