16

 C -2.38065443437500 -6.41531751875000 -2.63106130937500 
 C -1.15947543437500 -6.87986951875000 -1.96623030937500 
 C -2.27145543437500 -2.52950951875000 -2.54546530937500 
 C -1.01363943437500 -3.04559251875000 -2.02584130937500 
 N -0.140669434374995 -7.15489051875000 -2.78465030937500 
 N -2.22219543437499 -6.41667451875000 -3.93427230937500 
 N -2.98705443437500 -6.61936051875000 -7.528330937499783E-002
 N -0.101508434374995 -3.00588751875000 -2.95581030937500 
 N -2.31852843437500 -2.19848351875000 -3.81445430937500 
 N -2.76441943437499 -3.26977351875000 -0.136928309374998 
 S -0.656184434374995 -6.78353651875000 -4.34654930937500 
 S -3.70773943437499 -6.08713151875000 -1.52099130937500 
 S -1.37005643437500 -6.93270751875000 -0.190902309374998 
 S -0.745367434374995 -2.45199351875000 -4.40679230937500 
 S -3.54146843437500 -2.62957851875000 -1.43843730937500 
 S -1.15718043437499 -3.60360951875000 -0.381537309374998 
