16

 C -2.30114120312501 -6.31107473750000 -2.39244822812500 
 C -1.07083120312501 -6.82172673750000 -1.80980122812500 
 C -2.49316120312501 -3.17464973750000 -2.35329722812500 
 C -1.23281320312501 -3.27428473750000 -1.70131322812500 
 N -7.113820312500962E-002 -7.16864673750000 -2.66177622812500 
 N -2.17637920312501 -6.12937073750000 -3.73032422812500 
 N -2.95622420312501 -6.94116673750000 3.636177187499889E-002
 N -0.171086203125010 -3.20585573750000 -2.53476522812500 
 N -2.39151720312501 -3.07684773750000 -3.68517622812500 
 N -3.02260920312501 -2.67928673750000 8.572677187499900E-002
 S -0.656206203125009 -6.66515773750000 -4.11559722812500 
 S -3.54623120312501 -6.14312173750000 -1.23428422812500 
 S -1.26258520312501 -7.24672273750000 -0.114490228125001 
 S -0.781546203125010 -3.15476973750000 -4.08260922812500 
 S -3.92614220312501 -2.68799773750000 -1.33807722812500 
 S -1.34606720312501 -3.04210673750000 3.583577187499887E-002
