16

 C -2.51898834374999 -6.62068218437501 -2.52968150937500 
 C -1.19151034374999 -6.81414418437501 -1.90383050937500 
 C -2.32722834374999 -3.17768618437501 -2.19885850937500 
 C -1.11964834374999 -3.63776518437501 -1.55651750937500 
 N -0.127161343749994 -6.94621318437501 -2.69766550937500 
 N -2.39717434374999 -6.54402218437501 -3.83427750937500 
 N -2.99743834374999 -6.58921018437501 1.361049062499831E-002
 N -0.108169343749994 -3.91351318437501 -2.37615950937500 
 N -2.22672734374999 -2.90242018437501 -3.52518250937500 
 N -2.88076734374999 -3.52247718437501 0.327779490624998 
 S -0.795035343749994 -6.84034918437501 -4.24609150937500 
 S -3.83548934374999 -6.39853218437501 -1.39941950937500 
 S -1.36997434374999 -6.78173718437501 -0.138734509375001 
 S -0.630646343749993 -3.30849918437501 -3.82527750937500 
 S -3.72448434374999 -3.24822618437501 -1.11429850937500 
 S -1.25264334374999 -3.76026018437501 0.227911490624998 
