16

 C -2.26942737187501 -6.31847816875000 -2.36391400312500 
 C -1.11973437187501 -6.90766116875000 -1.67712900312500 
 C -2.63164437187501 -2.74416416875000 -2.60655300312500 
 C -1.37950937187501 -3.01975716875000 -1.94340300312500 
 N -0.145591371875009 -7.21877416875000 -2.56519700312500 
 N -2.21891137187501 -6.26661516875000 -3.69989200312500 
 N -2.76851337187501 -6.15949116875000 0.119318996874999 
 N -0.349606371875008 -3.07974616875000 -2.74831700312500 
 N -2.52017937187501 -2.63839816875000 -3.92445900312500 
 N -3.12540737187501 -2.85519116875000 -9.989500312500055E-002
 S -0.674055371875008 -6.77607916875000 -4.05825600312500 
 S -3.60510537187501 -6.05197016875000 -1.34253300312500 
 S -1.25089337187501 -6.94420116875000 3.543899687499952E-002
 S -0.928784371875008 -2.98169416875000 -4.28439600312500 
 S -3.89653037187501 -2.41638416875000 -1.51571100312500 
 S -1.53376437187501 -3.17249716875000 -0.212582003125001 
