16

 C -2.49721117187500 -6.48965335937500 -2.52268298750000 
 C -1.31706117187500 -6.72858735937500 -1.78450798750000 
 C -2.59582317187500 -2.58794035937500 -2.47366598750000 
 C -1.34872717187500 -3.02799035937500 -1.83609498750000 
 N -0.224148171875001 -6.75032235937500 -2.53616898750000 
 N -2.43299717187500 -6.29812635937500 -3.83863598750000 
 N -3.20067417187500 -6.66342735937500 -4.839498749999938E-002
 N -0.301513171875000 -3.23689335937500 -2.63412298750000 
 N -2.47253217187500 -2.39545935937500 -3.80206698750000 
 N -2.98000817187500 -2.62160835937500 9.318101250000055E-002
 S -0.758864171875000 -6.44721735937500 -4.08957998750000 
 S -3.90451017187500 -6.43091535937500 -1.53299798750000 
 S -1.60984717187500 -6.92314835937500 -8.421898749999945E-002
 S -0.957740171875001 -2.81839235937500 -4.12365498750000 
 S -3.76036717187500 -2.24535135937500 -1.30775098750000 
 S -1.45618617187500 -3.19574335937500 -0.104879987499999 
