16

 C -2.39432676250000 -6.66596149375001 -2.45633653750000 
 C -1.10194776250000 -7.02310749375001 -1.97161953750000 
 C -2.47002676250000 -2.92767849375001 -2.46339653750000 
 C -1.31375976250000 -3.54053549375001 -1.76420653750000 
 N -0.158718762499999 -7.02650449375001 -2.90845153750000 
 N -2.47994176250000 -6.39780149375001 -3.76682053750000 
 N -2.75919576250000 -7.22505449375001 4.992046250000115E-002
 N -0.254474762499998 -3.77301649375001 -2.53040753750000 
 N -2.24590576250000 -2.66256249375001 -3.76506553750000 
 N -3.19872376250000 -3.09686449375001 -2.064753749999881E-002
 S -0.975733762499999 -6.67998049375000 -4.29534353750000 
 S -3.61004876250000 -6.73527549375001 -1.25234153750000 
 S -1.09787476250000 -7.34290049375001 -0.258707537499999 
 S -0.750272762499999 -3.22248749375001 -4.08142853750000 
 S -3.80473776250000 -2.67214049375001 -1.47352953750000 
 S -1.62303776250000 -3.70991149375001 -0.100821537499999 
