16

 C -2.46210688750000 -6.34113766250000 -2.42636130625000 
 C -1.25664888750001 -6.92235266250000 -1.78503730625000 
 C -2.67196588750001 -2.89072066250000 -2.43098130625000 
 C -1.49595988750001 -3.45535466250000 -1.71510030625000 
 N -0.398940887500005 -7.33930866250000 -2.73348630625000 
 N -2.46582188750001 -6.20024566250000 -3.76932630625000 
 N -3.05374788750000 -6.60166566250000 0.141827693750000 
 N -0.417208887500005 -3.63472066250000 -2.46165930625000 
 N -2.43291888750000 -2.69359266250000 -3.71991030625000 
 N -3.22103288750001 -2.69860666250000 0.123501693750000 
 S -1.02753388750001 -6.86353866250000 -4.20692330625000 
 S -3.83893488750001 -6.08847666250000 -1.30231730625000 
 S -1.49864488750000 -7.31532966250000 -7.331330624999954E-002
 S -0.911053887500005 -3.21712666250000 -4.00711330625000 
 S -3.94458388750000 -2.40845866250000 -1.36372830625000 
 S -1.71415488750000 -3.35811766250000 3.046169375000041E-002
