16

 C -2.28650491875000 -6.30053910312501 -2.39894835625000 
 C -1.05928291875000 -6.81163210312501 -1.80615135625000 
 C -2.49439091875000 -3.17798910312501 -2.36988535625000 
 C -1.23367891875000 -3.26867410312501 -1.70528235625000 
 N -5.386091875000432E-002 -7.15634210312501 -2.66222335625000 
 N -2.17737691875000 -6.13520610312501 -3.74977935625000 
 N -2.95294691875000 -6.93644710312501 4.598764374999842E-002
 N -0.175874918750004 -3.20315010312501 -2.52287335625000 
 N -2.39748191875000 -3.06943210312501 -3.69162535625000 
 N -3.03110191875000 -2.68140910312501 8.644064374999849E-002
 S -0.662441918750004 -6.66051810312501 -4.12440435625000 
 S -3.54849391875000 -6.14110410312501 -1.23715235625000 
 S -1.27090691875000 -7.24773110312501 -0.112509356250001 
 S -0.776358918750004 -3.14952710312501 -4.08778135625000 
 S -3.92735791875000 -2.68521910312501 -1.35172235625000 
 S -1.35574391875000 -3.03906010312501 3.872264374999856E-002
