16

 C -2.38570252812500 -6.61890767187500 -2.45801414687500 
 C -1.16478152812500 -6.99723467187500 -1.79696914687500 
 C -2.61529052812500 -2.90594467187500 -2.28348514687500 
 C -1.32022652812500 -3.37562067187500 -1.70076914687500 
 N -0.131626528124997 -7.18816567187500 -2.63422314687500 
 N -2.36152452812500 -6.67348767187500 -3.82074614687500 
 N -2.88857552812500 -6.79363467187500 0.121598853124999 
 N -0.346651528124997 -3.51262867187500 -2.57076414687500 
 N -2.56114752812500 -2.71304867187500 -3.58281014687500 
 N -2.96879052812500 -3.12103167187500 0.269059853124998 
 S -0.790152528124996 -6.99744767187500 -4.15821114687500 
 S -3.69851852812500 -6.40983067187500 -1.24462214687500 
 S -1.32150852812500 -7.22017867187500 -0.110486146875002 
 S -0.975666528124997 -3.00438267187500 -4.08296814687500 
 S -3.80069252812500 -2.48373067187500 -1.03133614687500 
 S -1.28865852812500 -3.34500867187500 0.113152853124999 
