16

 C -2.60616129375000 -6.29438493125000 -2.53689090000000 
 C -1.36614729375000 -6.75555893125000 -1.87869090000000 
 C -2.75449629375000 -2.69337693125000 -2.51714790000000 
 C -1.54450629375000 -3.18331293125000 -1.94108790000000 
 N -0.303661293750001 -6.81705693125000 -2.69836790000000 
 N -2.44522529375000 -6.04280993124999 -3.85839690000000 
 N -3.20069729375000 -6.71311793124999 -1.835790000000248E-002
 N -0.487056293750001 -3.28367793125000 -2.70392190000000 
 N -2.58886129375000 -2.39980293124999 -3.81005790000000 
 N -3.33434729375000 -3.00637693124999 -4.938390000000270E-002
 S -0.904073293750001 -6.44283393124999 -4.21884790000000 
 S -3.97328329375000 -6.28654993125000 -1.48239690000000 
 S -1.56685529375000 -6.89672493125000 -0.118035900000002 
 S -1.08002729375000 -2.73449993124999 -4.24752590000000 
 S -4.05071529375000 -2.47558593125000 -1.42504590000000 
 S -1.71687729375000 -3.38586393124999 -0.210592900000003 
