16

 C -2.52178845937500 -6.23367107500000 -2.37863028437500 
 C -1.26005145937500 -6.60238207500000 -1.68590228437500 
 C -2.50059045937500 -2.48648407500000 -2.88475628437500 
 C -1.33591545937500 -2.90722107500000 -2.20675628437500 
 N -0.246693459375004 -6.74972407500000 -2.54108228437500 
 N -2.44138845937500 -6.06474607500000 -3.72573928437500 
 N -3.06346445937500 -6.70655007500000 0.133350715625000 
 N -0.191516459375004 -2.89332407500000 -2.87684228437500 
 N -2.30156645937500 -2.17543607500000 -4.16891828437500 
 N -3.21249245937500 -2.73883907500000 -0.430860284375000 
 S -0.835393459375004 -6.44117807500000 -4.06113128437500 
 S -3.90080245937500 -6.54044207500000 -1.24184928437500 
 S -1.38463345937500 -6.91409107500000 -1.614284375000441E-003
 S -0.676359459375004 -2.56630207500000 -4.45724328437500 
 S -3.86300845937500 -2.33327507500000 -1.87063728437500 
 S -1.60444145937500 -3.11735207500000 -0.503212284375000 
