16

 C -2.57284834062500 -6.41464032812500 -2.43412473437500 
 C -1.34589234062500 -6.75227132812500 -1.72206373437500 
 C -2.61729934062500 -2.47674932812500 -2.43295273437500 
 C -1.38730834062500 -2.99841932812500 -1.84951773437500 
 N -0.260648340625004 -6.82184832812500 -2.50628273437500 
 N -2.43087834062500 -6.22427232812500 -3.74552873437500 
 N -3.30983734062500 -6.65540532812500 7.896326562500167E-002
 N -0.393336340625003 -3.30420432812500 -2.72116173437500 
 N -2.48439634062500 -2.21043532812500 -3.72847473437500 
 N -3.13238834062500 -2.71120932812500 8.825926562500164E-002
 S -0.807133340625003 -6.53378432812500 -4.07255873437500 
 S -4.05395734062500 -6.57444232812500 -1.43718373437500 
 S -1.62200334062500 -6.95156332812500 -1.869734374998266E-003
 S -0.984132340625004 -2.72493532812500 -4.18604773437500 
 S -3.97177834062500 -2.21458332812500 -1.25796273437500 
 S -1.55542234062500 -3.18743132812500 -5.693973437499822E-002
