16

 C -2.47864547500000 -6.19562383750000 -2.49069539375000 
 C -1.35928047500000 -6.82813083750000 -1.86312639375000 
 C -2.69665847500000 -2.63528383750000 -2.44703339375000 
 C -1.51049147500000 -3.12775083750000 -1.73429139375000 
 N -0.329641474999998 -7.08708983750000 -2.67568039375000 
 N -2.38999147500000 -6.04707183750000 -3.83027139375000 
 N -3.22016647500000 -6.61510283750000 -5.022739375000107E-002
 N -0.438043474999998 -3.28651383750000 -2.43755539375000 
 N -2.41087347500000 -2.45220883750000 -3.72586739375000 
 N -3.46338947500000 -2.86520083750000 -5.274139375000120E-002
 S -0.847585474999998 -6.49592983750000 -4.18662439375000 
 S -3.86987147500000 -5.96068983750000 -1.43739439375000 
 S -1.70661547500000 -7.28600483750000 -0.218123393750001 
 S -0.850901474999998 -2.85274883750000 -4.00097039375000 
 S -4.05617847500000 -2.26911883750000 -1.49192939375000 
 S -1.86121347500000 -3.41446383750000 -3.033839375000102E-002
