16

 C -2.49031493437499 -6.57865407499999 -2.50211573125000 
 C -1.30364193437499 -7.11832807499999 -1.86970073125000 
 C -2.68196893437499 -2.77825807499999 -2.50570373125000 
 C -1.55415993437499 -3.43245007499999 -1.83209473125000 
 N -0.272935934374995 -7.25395007499999 -2.63807073125000 
 N -2.32490193437499 -6.29560007499999 -3.79727573125000 
 N -2.99497493437499 -6.85181307499999 -6.463873124999986E-002
 N -0.518546934374994 -3.69539107499999 -2.63538073125000 
 N -2.52499393437499 -2.67639707499999 -3.81529273125000 
 N -3.47285293437499 -3.25911107499999 -9.284773124999979E-002
 S -0.733896934374995 -6.59236207499999 -4.10176873125000 
 S -3.82844493437499 -6.32655607499999 -1.49701173125000 
 S -1.41044293437499 -7.37769007499999 -0.136194731250000 
 S -0.997761934374994 -3.15083607499999 -4.18123173125000 
 S -4.09136093437500 -2.44112707499999 -1.44688473125000 
 S -1.85147993437499 -3.65167907499999 -0.133782731250000 
