16

 C -2.31756579374999 -6.64711251562499 -2.35186145000000 
 C -1.08372979374999 -7.08681051562499 -1.69334145000000 
 C -2.87282279374999 -3.17711151562499 -2.16206345000000 
 C -1.66295279374999 -3.50774451562499 -1.50437845000000 
 N -5.203279374999425E-002 -7.33766951562499 -2.54181745000000 
 N -2.29601079374999 -6.60723151562499 -3.68182945000000 
 N -2.91577879375000 -6.94766051562499 0.175784550000000 
 N -0.615472793749995 -3.75016651562499 -2.28880345000000 
 N -2.78067379374999 -3.11007151562499 -3.49383445000000 
 N -3.50186879374999 -3.31006751562499 0.293727550000000 
 S -0.721472793749995 -7.00500551562499 -4.04620245000000 
 S -3.71208679374999 -6.48616351562499 -1.27619845000000 
 S -1.31759979375000 -7.20143951562499 1.760454999999994E-002
 S -1.16369079374999 -3.32750051562499 -3.80700545000000 
 S -4.23180779374999 -3.13754351562499 -1.16808145000000 
 S -1.88747179374999 -3.73361551562499 0.191300550000000 
