16

 C -2.37697587187500 -6.05966513437500 -2.14552157812500 
 C -1.18410387187500 -6.65298213437500 -1.60016857812500 
 C -2.52343587187500 -2.44725413437500 -2.49139357812500 
 C -1.39185987187500 -2.96616913437500 -1.86938457812500 
 N -0.301399871875001 -6.92199913437500 -2.52839157812500 
 N -2.37909387187500 -5.88260113437500 -3.43957057812500 
 N -2.82425187187500 -6.27924313437500 0.319441421875000 
 N -0.375094871875000 -3.20406913437500 -2.72697057812500 
 N -2.48212387187500 -2.37079013437500 -3.84229857812500 
 N -3.04671887187500 -2.41592013437500 -2.648557812500019E-002
 S -0.910711871875001 -6.43439613437500 -3.98907357812500 
 S -3.69960687187500 -5.88578213437500 -1.08156557812500 
 S -1.29428387187500 -6.84596413437500 8.500742187499988E-002
 S -0.923883871875001 -2.82770613437500 -4.16158357812500 
 S -3.83347187187500 -2.17294013437500 -1.45022157812500 
 S -1.52083687187500 -2.94549113437500 -0.145427578125000 
