16

 C -2.42734221562501 -6.51751401250000 -2.45345546875000 
 C -1.31016721562501 -7.00871501250000 -1.68217946875000 
 C -2.32837521562501 -2.86361801250000 -2.55294146875000 
 C -1.17078321562501 -3.28223101250000 -1.87577046875000 
 N -0.221647215625008 -7.26649501250000 -2.39600646875000 
 N -2.15547921562501 -6.42787701250000 -3.74950046875000 
 N -3.26553921562501 -6.76121501250000 -5.580546875000114E-002
 N -0.134570215625009 -3.50520101250000 -2.71625346875000 
 N -2.15409821562501 -2.58623901250000 -3.84653646875000 
 N -2.96612521562501 -3.04926101250000 -3.476146875000130E-002
 S -0.556886215625009 -6.97496201250000 -3.98029146875000 
 S -3.81761921562501 -6.16924701250000 -1.50663946875000 
 S -1.62307721562501 -7.25990301250000 2.050753124999871E-002
 S -0.581898215625009 -3.05666901250000 -4.20033846875000 
 S -3.77543021562501 -2.69739501250000 -1.49637446875000 
 S -1.34108621562501 -3.58488201250000 -0.157625468750001 
