16

 C -2.44163847500000 -6.59804389687500 -2.25879474062500 
 C -1.15914847499999 -6.88233589687500 -1.58412474062500 
 C -2.39313447499999 -2.67198989687500 -2.48060674062500 
 C -1.23023347500000 -3.30105789687500 -1.90971474062500 
 N -0.167834474999995 -7.02759589687500 -2.46015074062500 
 N -2.35111647500000 -6.46617689687500 -3.59086074062500 
 N -2.95871047499999 -6.72994289687500 0.285950259374999 
 N -0.275274474999994 -3.56280389687500 -2.79961574062500 
 N -2.29508547500000 -2.56147889687500 -3.77865974062500 
 N -2.99184447499999 -2.99486089687500 7.548259374998700E-003
 S -0.732426474999995 -6.71958089687500 -4.02588774062500 
 S -3.80446947499999 -6.66649389687500 -1.15159174062500 
 S -1.25234047500000 -6.93594789687500 0.127238259374999 
 S -0.770173474999995 -3.07830089687500 -4.32929774062500 
 S -3.71291347499999 -2.40474489687500 -1.36939374062500 
 S -1.37010247500000 -3.39433289687500 -0.158893740625002 
