16

 C -2.49960276875000 -6.36193887187500 -2.54147332187500 
 C -1.32134776875000 -6.97713987187500 -1.97720832187500 
 C -2.37321776875000 -2.59665287187500 -2.45001932187500 
 C -1.22416776874999 -3.15715287187500 -1.77365832187500 
 N -0.253230768749996 -7.08630687187500 -2.76764832187500 
 N -2.28450776874999 -6.03829287187500 -3.82276232187500 
 N -3.22813076875000 -6.76258787187500 -6.893532187500151E-002
 N -0.276713768749995 -3.55543487187500 -2.61326232187500 
 N -2.25185376874999 -2.46741987187500 -3.76105732187500 
 N -2.99883876875000 -2.66094287187500 3.187567812499847E-002
 S -0.774653768749995 -6.46711787187500 -4.19652332187500 
 S -3.80592276875000 -6.11380887187500 -1.45924532187500 
 S -1.60140476874999 -7.27651787187500 -0.193474321875001 
 S -0.731137768749996 -3.00521487187500 -4.17869832187500 
 S -3.73422876875000 -2.15980787187500 -1.35263032187500 
 S -1.50053876874999 -3.45606087187500 -0.113711321875001 
