16

 C -2.45239454687501 -6.34171824687500 -2.45617100937500 
 C -1.25386854687501 -6.81181324687500 -1.82297600937500 
 C -2.51990754687501 -2.59887524687500 -2.18945000937500 
 C -1.30751054687501 -3.25680824687500 -1.62800000937500 
 N -0.280837546875008 -7.10951924687500 -2.65343800937500 
 N -2.34896354687501 -6.22772424687500 -3.76160400937500 
 N -3.10891854687501 -6.74609524687500 -6.701100937499893E-002
 N -0.294671546875008 -3.40271724687500 -2.49944800937500 
 N -2.41037354687501 -2.35060924687500 -3.50282900937500 
 N -2.96823254687501 -2.87593424687500 0.363580990625001 
 S -0.829907546875008 -6.68086324687500 -4.17315600937500 
 S -3.77155454687501 -5.91510724687500 -1.36306600937500 
 S -1.48513154687501 -7.18015024687500 -0.172652009374999 
 S -0.919191546875007 -2.86153424687500 -3.94457000937500 
 S -3.74666654687501 -2.27757424687500 -0.973416009374999 
 S -1.36836754687501 -3.40975324687500 0.113182990625001 
