16

 C -2.52002742187500 -6.65117815312500 -2.26532659062500 
 C -1.33837542187500 -7.07567615312500 -1.66810559062500 
 C -2.34910442187500 -2.48875315312500 -2.54469559062500 
 C -1.22801042187500 -3.00298815312500 -1.83700459062500 
 N -0.292906421875002 -7.36479215312500 -2.42933459062500 
 N -2.34061242187500 -6.53968515312500 -3.58142759062500 
 N -3.02336442187500 -6.68807615312500 0.247000409374998 
 N -0.169402421875002 -3.10210515312500 -2.60892859062500 
 N -2.16337242187500 -2.25605015312500 -3.82297959062500 
 N -2.95991142187500 -2.68384215312500 -3.117359062500147E-002
 S -0.798899421875002 -7.11147915312500 -3.97922959062500 
 S -3.73812242187500 -6.23099915312500 -1.16352859062500 
 S -1.38751842187500 -7.26350115312500 4.974740937499855E-002
 S -0.529393421875002 -2.56713715312500 -4.14650359062500 
 S -3.74775842187500 -2.37978415312500 -1.48941359062500 
 S -1.43729442187500 -3.32883415312500 -0.112668590625002 
