16

 C -2.63917098437500 -6.47222411875000 -2.31991885312500 
 C -1.39822398437500 -6.96809011875000 -1.79954085312500 
 C -2.33331298437500 -3.00192711875000 -2.44876985312500 
 C -1.11534498437500 -3.45458711875000 -1.73630285312500 
 N -0.389283984375003 -7.08556311875000 -2.63927385312500 
 N -2.61582298437500 -6.34978911875000 -3.63334985312500 
 N -2.96016798437500 -6.73358811875000 0.178699146875000 
 N -9.647998437500238E-002 -3.65312011875000 -2.56439485312500 
 N -2.19391198437500 -2.71372611875000 -3.75441985312500 
 N -2.90435298437500 -3.15979411875000 7.231214687500032E-002
 S -1.05375398437500 -6.63241311875000 -4.10918685312500 
 S -3.86004198437500 -6.23363511875000 -1.16933085312500 
 S -1.34028598437500 -7.02357311875000 -6.890085312499972E-002
 S -0.662818984375003 -3.20109311875000 -4.07572485312500 
 S -3.68513798437500 -2.76361411875000 -1.34711785312500 
 S -1.33341398437500 -3.58737011875000 1.735214687500020E-002
