16

 C -2.33494088437500 -6.62240195937500 -2.32032837187500 
 C -1.09155688437500 -7.02317095937500 -1.71217937187500 
 C -2.87869688437500 -3.21956795937500 -2.22138837187500 
 C -1.63647788437499 -3.57885195937500 -1.51251537187500 
 N -8.857588437499508E-002 -7.33974595937500 -2.51053237187500 
 N -2.23077588437499 -6.58421495937500 -3.64095937187500 
 N -2.93971688437500 -6.95295695937500 0.101344628125000 
 N -0.605313884374995 -3.75487695937500 -2.32676637187500 
 N -2.82254088437499 -3.04816295937500 -3.52413037187500 
 N -3.51373188437499 -3.35093695937500 0.241698628125000 
 S -0.706168884374995 -7.10486995937500 -4.04214237187500 
 S -3.68137088437499 -6.51982095937500 -1.32798037187500 
 S -1.31748988437499 -7.21806795937500 4.818262812499996E-002
 S -1.22610888437499 -3.36566695937500 -3.87497637187500 
 S -4.25797488437500 -3.06609095937500 -1.17408537187500 
 S -1.93113288437500 -3.72944195937500 0.137347628125000 
