16

 C -2.21319449062500 -6.53835525312500 -2.45681460625000 
 C -1.05483149062500 -7.13264925312500 -1.84991660625000 
 C -2.57494249062500 -2.35527625312500 -2.42055060625000 
 C -1.39687949062500 -2.90062025312500 -1.77929760625000 
 N 3.083150937500179E-002 -7.31370125312500 -2.62393760625000 
 N -2.02449449062500 -6.40916125312500 -3.76486560625000 
 N -2.70680049062500 -6.56382325312500 7.934639375000052E-002
 N -0.438730490624998 -3.27639525312500 -2.62676160625000 
 N -2.53394249062500 -2.29146425312500 -3.74273760625000 
 N -3.26065849062500 -2.66142025312500 4.713339375000070E-002
 S -0.449637490624998 -6.85750725312500 -4.14739060625000 
 S -3.47541049062500 -6.12250725312500 -1.32735660625000 
 S -1.19330449062500 -7.29130025312500 -0.119149606249999 
 S -1.04967249062500 -2.83645025312500 -4.14414760625000 
 S -3.90837449062500 -1.94304225312500 -1.27445460625000 
 S -1.64676549062500 -3.16190825312500 -6.256260624999932E-002
