16

 C -2.44717080000000 -6.53918298750000 -2.32148052500000 
 C -1.29391580000000 -7.00805998750000 -1.59526052500000 
 C -2.47948480000000 -2.78529498750000 -2.42728052500000 
 C -1.22616180000000 -3.18742298750000 -1.74928752500000 
 N -0.201905799999998 -7.17134998750000 -2.31250852500000 
 N -2.21206980000000 -6.39509298750000 -3.60501452500000 
 N -3.10246680000000 -6.60684398750000 0.175175474999999 
 N -0.203850799999998 -3.15747398750000 -2.61415452500000 
 N -2.30549380000000 -2.48424898750000 -3.70908652500000 
 N -3.12352280000000 -3.30190198750000 -1.782452500000109E-002
 S -0.624467799999998 -6.76751998750000 -3.87602552500000 
 S -3.82615880000000 -6.26875198750000 -1.28762752500000 
 S -1.56288380000000 -7.24930098750000 0.142975474999999 
 S -0.667158799999998 -2.69412098750000 -4.09960152500000 
 S -3.85205080000000 -2.73287198750000 -1.41468352500000 
 S -1.44378780000000 -3.48849598750000 -8.587452500000103E-002
