16

 C -2.63431840312500 -6.47625140625000 -2.32558874687500 
 C -1.39495440312500 -6.96505940625000 -1.79934974687500 
 C -2.33867940312500 -3.00064140625000 -2.44675774687500 
 C -1.11105840312500 -3.45038540625000 -1.73230774687500 
 N -0.386268403124999 -7.08274440625000 -2.63527074687500 
 N -2.61550540312500 -6.34805840625000 -3.63465274687500 
 N -2.95833940312500 -6.72872740625000 0.176631253125000 
 N -9.747540312499936E-002 -3.64954340625000 -2.56493274687500 
 N -2.19444740312500 -2.71934040625000 -3.75309274687500 
 N -2.90281040312500 -3.16619540625000 7.517325312500001E-002
 S -1.05103440312500 -6.63526340625000 -4.11049574687500 
 S -3.85446940312500 -6.23503640625000 -1.17217674687500 
 S -1.33852640312500 -7.01890540625000 -6.981074687500000E-002
 S -0.660706403124999 -3.20012840625000 -4.08191074687500 
 S -3.68168440312500 -2.76122740625000 -1.34621974687500 
 S -1.32843540312500 -3.58212440625000 1.360725312500000E-002
