16

 C -2.56346525312501 -6.28118974375000 -2.36407846875000 
 C -1.43174325312501 -6.81439974375000 -1.68050546875000 
 C -2.52332725312501 -3.05460074375000 -2.40499746875000 
 C -1.24269825312501 -3.26324574375000 -1.78558946875000 
 N -0.560170253125010 -7.31238174375000 -2.54155246875000 
 N -2.52475625312501 -6.26702074375000 -3.68259546875000 
 N -3.23538625312501 -6.40067774375000 0.106090531249998 
 N -0.210256253125010 -3.40175574375000 -2.59965746875000 
 N -2.47208725312501 -3.08033274375000 -3.72003846875000 
 N -2.85368525312501 -3.04775774375000 0.184982531249998 
 S -1.13444125312501 -7.01532874375000 -4.06253746875000 
 S -3.96857425312501 -6.04148774375000 -1.32734146875000 
 S -1.57390925312501 -6.85010174375000 2.201053124999830E-002
 S -0.858265253125010 -3.17228474375000 -4.13477746875000 
 S -3.77259625312501 -3.23974474375000 -1.17907846875000 
 S -1.24226125312501 -3.23082674375000 -5.709246875000162E-002
