16

 C -2.54127818750000 -6.36462469687500 -2.29695524062500 
 C -1.32895318750000 -6.90046069687500 -1.73330124062500 
 C -2.64850718750000 -3.08618769687500 -2.53128424062500 
 C -1.43734118750000 -3.37635569687500 -1.82809524062500 
 N -0.301148187499998 -7.11624669687500 -2.56001924062500 
 N -2.43825818750000 -6.21317769687500 -3.59813724062500 
 N -3.03165718750000 -6.62763769687500 0.108224759375001 
 N -0.370746187499998 -3.39220269687500 -2.61352724062500 
 N -2.51015218750000 -2.79112269687500 -3.84066424062500 
 N -3.11208618750000 -3.05517069687500 0.108898759375001 
 S -0.936788187499999 -6.64460169687500 -4.02587424062500 
 S -3.79861618750000 -6.14176069687500 -1.28697724062500 
 S -1.47877118750000 -7.01837569687500 -3.450924062499872E-002
 S -0.907068187499998 -3.17367069687500 -4.16015024062500 
 S -3.93014618750000 -3.02278669687500 -1.32960224062500 
 S -1.57430418750000 -3.58311369687500 -0.104999240624999 
