16

 C -2.27471062812500 -6.07823307500001 -2.27033998750000 
 C -1.10067762812500 -6.75254907500001 -1.74880798750000 
 C -2.70592262812500 -2.44210507500001 -2.73434698750000 
 C -1.48430662812500 -2.81186307500001 -2.08256898750000 
 N -0.122806628125000 -7.02741607500001 -2.63954698750000 
 N -2.21993362812500 -5.85247207500001 -3.58853598750000 
 N -2.69486662812500 -6.38216207500001 0.271211012500001 
 N -0.468004628125000 -3.06346407500001 -2.87987698750000 
 N -2.63737662812500 -2.27766207500001 -4.02979998750000 
 N -3.22604862812500 -2.41645607500001 -0.182872987499999 
 S -0.788474628125000 -6.51212007500001 -4.11304598750000 
 S -3.45643762812500 -5.74547407500001 -1.02168198750000 
 S -1.15738562812500 -7.02252907500001 3.579301250000078E-002
 S -1.12730162812500 -2.75713807500001 -4.46799298750000 
 S -4.02070262812500 -2.16035307500001 -1.58653398750000 
 S -1.63197962812500 -2.81857207500001 -0.324965987499999 
