16

 C -2.62630288437499 -6.66225672500000 -2.14282185937500 
 C -1.42201688437499 -7.28701772499999 -1.64407185937500 
 C -2.26406588437499 -2.77326272500000 -2.37039685937500 
 C -1.11855088437499 -3.33771872499999 -1.76180685937500 
 N -0.527723884374993 -7.52992772499999 -2.58644885937500 
 N -2.60541288437499 -6.34234672500000 -3.41614885937500 
 N -3.01128188437499 -7.02410472500000 0.319054140625000 
 N -0.184774884374993 -3.72190872500000 -2.60345385937500 
 N -2.21449288437499 -2.57939972500000 -3.69494985937500 
 N -2.84424288437499 -3.03150272499999 0.151498140625000 
 S -1.19396488437499 -6.97752172500000 -4.02299985937500 
 S -3.91350888437499 -6.44056072500000 -0.937976859375000 
 S -1.43767888437499 -7.50788572500000 7.113314062500042E-002
 S -0.692374884374993 -3.11577872499999 -4.07294385937500 
 S -3.56984588437499 -2.51218672499999 -1.23893785937500 
 S -1.21415288437499 -3.46818372499999 -2.244859374999519E-003
