16

 C -2.21468174062500 -6.50053414062501 -2.47229364375000 
 C -1.07667074062500 -7.13818114062501 -1.86844364375000 
 C -2.43395974062500 -2.96079414062501 -2.30941164375000 
 C -1.22149074062500 -3.44298414062501 -1.65600564375000 
 N -3.468674062499755E-002 -7.30215214062501 -2.67285264375000 
 N -2.06150174062500 -6.25312114062501 -3.75568864375000 
 N -2.96714074062500 -6.81675514062501 -4.042364375000007E-002
 N -0.221725740624997 -3.66400514062501 -2.56119564375000 
 N -2.28156274062500 -2.74133614062501 -3.62056264375000 
 N -2.89193674062500 -2.92211514062501 0.181942356250000 
 S -0.562119740624998 -6.85656714062501 -4.22482464375000 
 S -3.54359974062500 -6.20635514062501 -1.45476264375000 
 S -1.38057774062500 -7.35472814062501 -9.574364375000011E-002
 S -0.730995740624998 -3.20044514062501 -3.97983464375000 
 S -3.77106674062500 -2.73576714062501 -1.27813264375000 
 S -1.33593374062500 -3.48540714062501 8.647735625000008E-002
