16

 C -2.53928811562500 -6.60533467187500 -2.43284912500000 
 C -1.23157611562500 -6.97682667187500 -1.95953912500000 
 C -2.56588411562500 -2.74691467187500 -2.55852812500000 
 C -1.41590111562500 -3.26296567187500 -1.78028412500000 
 N -0.250229115625000 -6.99770067187500 -2.87202612500000 
 N -2.56147211562500 -6.34206767187500 -3.72720312500000 
 N -2.93370811562500 -6.94016067187500 7.144787499999872E-002
 N -0.319043115625001 -3.48551167187500 -2.51381212500000 
 N -2.40781411562500 -2.75107467187500 -3.90856412500000 
 N -3.28282411562500 -2.71171567187500 -3.230212500000129E-002
 S -1.01765511562500 -6.58407067187500 -4.28782112500000 
 S -3.75139611562500 -6.47824467187500 -1.26583712500000 
 S -1.38167011562500 -7.30411367187500 -0.242476125000002 
 S -0.852018115625000 -3.17860367187500 -4.10663312500000 
 S -3.91239911562500 -2.26808367187500 -1.50420212500000 
 S -1.70747811562500 -3.23873867187500 -0.102804125000002 
