16

 C -2.42147935937501 -6.36620742812500 -2.53467508437500 
 C -1.26259835937501 -6.73232742812500 -1.78314808437500 
 C -2.75555635937501 -2.92539042812500 -2.53631808437500 
 C -1.59019635937501 -3.52770042812500 -1.91109508437500 
 N -0.223345359375007 -6.96358042812500 -2.57546908437500 
 N -2.33366835937501 -6.30489042812500 -3.83730008437500 
 N -3.11391935937501 -6.63367942812500 -0.107030084375000 
 N -0.517147359375007 -3.69583342812500 -2.68758408437500 
 N -2.50944235937501 -2.60685242812500 -3.82304708437500 
 N -3.33946435937501 -3.32099642812500 1.049156249997019E-004
 S -0.752345359375007 -6.68897142812500 -4.14412408437500 
 S -3.82834235937501 -6.21836242812500 -1.60664708437500 
 S -1.53611735937501 -7.06217142812500 -0.183700084375000 
 S -1.00691335937501 -3.09459842812500 -4.19548908437500 
 S -4.08853035937501 -2.66973142812500 -1.37361708437500 
 S -1.75954135937501 -3.83152042812500 -0.176039084375000 
