16

 C -2.41598379687500 -6.62144239062500 -2.45617719375000 
 C -1.20007579687500 -6.76305039062500 -1.74471819375000 
 C -2.45902379687500 -2.17242339062500 -2.81476919375000 
 C -1.43733679687500 -2.92440439062500 -2.08442119375000 
 N -0.183399796875003 -6.65097239062500 -2.59306619375000 
 N -2.37669279687500 -6.51736639062500 -3.77098319375000 
 N -3.01066179687500 -6.49488939062500 5.338180625000000E-002
 N -0.326543796875003 -3.11666639062500 -2.77592019375000 
 N -2.07573979687500 -1.77560739062500 -4.00618719375000 
 N -3.47851579687500 -2.72878139062500 -0.457743193750000 
 S -0.758343796875003 -6.38376439062500 -4.13650019375000 
 S -3.82128879687500 -6.39153239062500 -1.43100719375000 
 S -1.36640079687500 -6.79761139062500 -1.689419375000001E-002
 S -0.656806796875003 -2.50972839062500 -4.27192919375000 
 S -3.86300479687500 -1.90386139062500 -1.87368419375000 
 S -1.94501979687500 -3.27810139062500 -0.435219193750000 
