16

 C -2.51400472187500 -6.60858405000001 -2.47174457187500 
 C -1.29966472187500 -7.06944005000001 -1.90779657187500 
 C -2.37706272187500 -2.59970305000001 -2.29724757187500 
 C -1.15985072187500 -3.16064005000001 -1.74339957187500 
 N -0.277676721874999 -7.21604305000001 -2.74233757187500 
 N -2.43476872187500 -6.44720705000001 -3.79278057187500 
 N -2.99324972187500 -6.79051505000001 2.372742812499928E-002
 N -0.228812721874999 -3.32296505000000 -2.63141957187500 
 N -2.32949672187500 -2.23839005000001 -3.56906457187500 
 N -2.78760272187500 -3.18884905000001 0.172233428124999 
 S -0.886299721874999 -6.72826505000001 -4.20818757187500 
 S -3.87601272187500 -6.33852805000001 -1.37258957187500 
 S -1.44724172187500 -7.27460505000001 -0.153856571875001 
 S -0.812445721874999 -2.90327005000001 -4.08773157187500 
 S -3.56607472187500 -2.41100905000000 -1.09006057187500 
 S -1.20240572187500 -3.56990405000001 -9.741957187500061E-002
