16

 C -2.37533025937500 -6.51426422187499 -2.53291149062500 
 C -1.14827625937500 -6.62274322187499 -1.81058249062500 
 C -2.46852725937500 -2.06121322187499 -2.70428749062500 
 C -1.44121425937500 -2.89379722187499 -2.01167349062500 
 N -3.909025937499777E-002 -6.59547122187499 -2.58863849062500 
 N -2.30564925937500 -6.44870222187499 -3.88471349062500 
 N -2.96068825937500 -6.60148522187499 3.015450937500130E-002
 N -0.379795259374998 -3.23842422187499 -2.69738449062500 
 N -2.10692325937500 -1.85609722187499 -3.94872749062500 
 N -3.45815025937500 -2.61958222187499 -0.428215490624999 
 S -0.679388259374998 -6.55676022187499 -4.12152049062500 
 S -3.81374325937500 -6.37139122187499 -1.43479649062500 
 S -1.37024625937500 -6.77360322187499 -0.101130490624999 
 S -0.553910259374999 -2.50861222187499 -4.23233949062500 
 S -3.98521025937500 -1.85314122187499 -1.81049649062500 
 S -1.99069225937500 -3.42757922187499 -0.441876490624999 
