16

 C -2.56134943125000 -6.24742971875000 -2.46292557187500 
 C -1.28026543124999 -6.59334171875000 -1.86538457187500 
 C -2.41051043125000 -2.92794771875000 -2.52368157187500 
 C -1.15961343125000 -3.13734771875000 -1.79556757187500 
 N -0.226430431249995 -6.66355771875000 -2.72951457187500 
 N -2.49228843125000 -6.14317671875000 -3.78827457187500 
 N -3.05000643125000 -6.53886771875000 3.493442812499792E-002
 N -8.340043124999497E-002 -3.38649571875000 -2.55855557187500 
 N -2.30164943125000 -2.95357371875000 -3.87485557187500 
 N -3.02904043125000 -2.75870771875000 -9.171057187500198E-002
 S -0.902358431249995 -6.46746271875000 -4.24489357187500 
 S -3.76882043125000 -6.03572771875000 -1.33529957187500 
 S -1.44044943124999 -6.79551471875000 -0.141246571875002 
 S -0.738063431249995 -3.41840071875000 -4.13082257187500 
 S -3.79389743125000 -2.68239171875000 -1.50942157187500 
 S -1.43296943124999 -3.14763271875000 -0.165021571875002 
