16

 C -2.14960375625000 -6.36748167500000 -2.33914690312500 
 C -0.990153756250000 -6.89607667500000 -1.73574390312500 
 C -2.89619175625000 -2.58573967500000 -2.50705790312500 
 C -1.64377375625000 -2.88823667500000 -1.90948790312500 
 N 1.550924374999951E-002 -6.98996367500000 -2.56205490312500 
 N -2.05826875625000 -6.08789967500000 -3.62878490312500 
 N -2.73707875625000 -6.69807367500000 0.122764096875001 
 N -0.584626756250000 -2.88816567500000 -2.69927190312500 
 N -2.75260375625000 -2.31466067500000 -3.82155990312500 
 N -3.34257775625000 -2.81665067500000 -6.538190312499870E-002
 S -0.520229756250000 -6.50182067500000 -4.05729390312500 
 S -3.50344275625000 -6.16331867500000 -1.27793190312500 
 S -1.15680075625000 -7.10718267500000 -1.543890312499885E-002
 S -1.17747075625000 -2.52540967500000 -4.24104990312500 
 S -4.16126875625000 -2.43179267500000 -1.41205790312500 
 S -1.74171975625000 -3.19449567500000 -0.233158903124999 
