16

 C -2.63594114687501 -6.50560548125000 -2.48125807812500 
 C -1.36455314687500 -6.97640048125000 -1.86632907812500 
 C -2.51765414687500 -2.74864148125000 -2.55098807812500 
 C -1.35923414687501 -3.14695548125000 -1.80299207812500 
 N -0.340637146875005 -7.14962348125000 -2.66746807812500 
 N -2.48832414687501 -6.26922848125000 -3.77275207812500 
 N -3.03668614687501 -6.95497748125000 7.308592187500018E-002
 N -0.321188146875005 -3.37870448125000 -2.58645307812500 
 N -2.37350614687500 -2.60486848125000 -3.88236307812500 
 N -3.23065714687500 -2.82881248125000 -6.838507812499972E-002
 S -0.858505146875005 -6.67540948125000 -4.18974107812500 
 S -3.92551314687501 -6.45524248125000 -1.27751907812500 
 S -1.35607414687501 -7.21043048125000 -0.114140078125000 
 S -0.759136146875005 -3.02632048125000 -4.15560107812500 
 S -3.96020014687500 -2.52880148125000 -1.50975207812500 
 S -1.61829414687501 -3.28662748125000 -8.243007812500003E-002
