16

 C -2.31326116562500 -6.32359198437500 -2.41709025625000 
 C -1.08489016562500 -6.85149398437500 -1.83505525625000 
 C -2.26814116562500 -2.56361698437500 -2.43065525625000 
 C -1.12304616562500 -3.11131898437500 -1.69542725625000 
 N -8.910116562500114E-002 -7.11638098437500 -2.66693625625000 
 N -2.21301316562500 -6.09386498437500 -3.71754525625000 
 N -2.96461216562500 -6.69772998437500 -4.608925625000104E-002
 N -7.868316562500155E-002 -3.43414898437500 -2.47842625625000 
 N -2.09533016562500 -2.50159598437500 -3.76356325625000 
 N -3.05891516562500 -2.91833298437500 -1.437525625000102E-002
 S -0.687550165625002 -6.65649798437500 -4.17665225625000 
 S -3.70988316562500 -6.26032898437500 -1.43593725625000 
 S -1.34096116562500 -7.09983998437500 -9.217925625000079E-002
 S -0.590010165625001 -2.99512798437500 -4.02899725625000 
 S -3.74526316562500 -2.38543498437500 -1.44730925625000 
 S -1.33727516562500 -3.14924798437500 1.311974374999902E-002
