16

 C -2.42422924687500 -6.68266230000000 -2.41433091562500 
 C -1.08831724687500 -7.03077130000000 -1.97082291562500 
 C -2.45690524687500 -2.90621430000000 -2.45575491562500 
 C -1.36605424687500 -3.53572130000000 -1.77300591562500 
 N -0.177781246875004 -7.03247330000000 -2.93080291562500 
 N -2.48737724687500 -6.44523030000000 -3.71767891562500 
 N -2.72124524687500 -7.20794830000000 3.825608437499972E-002
 N -0.299409246875004 -3.71129530000000 -2.50292391562500 
 N -2.26993324687500 -2.70352230000000 -3.73621491562500 
 N -3.16215324687500 -3.10482730000000 -4.097991562500036E-002
 S -0.995214246875004 -6.70003430000000 -4.30415191562500 
 S -3.62430824687500 -6.73487330000000 -1.24387191562500 
 S -1.08011024687500 -7.34463830000000 -0.262632915625000 
 S -0.765166246875004 -3.20235930000000 -4.07197891562500 
 S -3.81200924687500 -2.65493630000000 -1.47902591562500 
 S -1.62584824687500 -3.71833730000000 -0.111178915625000 
