16

 C -2.31433606874999 -6.65941891875000 -2.49883608750000 
 C -1.13556006874999 -7.12285291875000 -1.82666708750000 
 C -2.38724806874999 -2.94756391875000 -2.48570808750000 
 C -1.23480606874999 -3.49366591875000 -1.81423408750000 
 N -0.107067068749993 -7.11263991875000 -2.67565208750000 
 N -2.19095706874999 -6.27780791875000 -3.76155108750000 
 N -2.96351806874999 -6.92037191875000 -3.616508749999903E-002
 N -0.163903068749993 -3.61801691875000 -2.59655708750000 
 N -2.19545506874999 -2.79749991875000 -3.79390408750000 
 N -3.06165106874999 -3.21309691875000 -8.030308749999926E-002
 S -0.603139068749993 -6.60409991875000 -4.14210808750000 
 S -3.66806606874999 -6.55212091875000 -1.45222708750000 
 S -1.34808406874999 -7.37668491875000 -0.127867087499999 
 S -0.654826068749993 -3.22971491875000 -4.17529608750000 
 S -3.73262106874999 -2.63673391875000 -1.45706308750000 
 S -1.46972706874999 -3.73238991875000 -0.138981087499999 
