16

 C -2.38195022500001 -6.35407875000000 -2.55742665000000 
 C -1.13890322500001 -6.67762375000000 -1.80918265000000 
 C -2.42740822500001 -2.81647075000000 -2.55912165000000 
 C -1.15241722500001 -3.18649075000000 -1.92859765000000 
 N -0.141993225000007 -6.90118875000000 -2.63843865000000 
 N -2.21111022500001 -6.26075075000000 -3.87719665000000 
 N -3.07606922500001 -6.32176775000000 -6.637864999999832E-002
 N -0.102945225000007 -3.24127175000000 -2.75117165000000 
 N -2.31558822500001 -2.63754175000000 -3.84637865000000 
 N -2.91724922500001 -2.92405075000000 -6.700064999999822E-002
 S -0.614000225000007 -6.59278975000000 -4.24690665000000 
 S -3.86491622500001 -6.22534575000000 -1.56977165000000 
 S -1.50469322500001 -6.82472975000000 -0.117542649999998 
 S -0.732677225000007 -2.88752975000000 -4.29713665000000 
 S -3.74181122500001 -2.53757275000000 -1.46975565000000 
 S -1.22724822500001 -3.20958875000000 -0.165346649999998 
