16

 C -2.32247107812501 -6.51387222187500 -2.52628792500000 
 C -1.08714307812501 -6.83916222187500 -1.87478492500000 
 C -2.51880107812501 -2.49242322187500 -2.64158192500000 
 C -1.45359907812501 -3.05634522187500 -1.83468592500000 
 N 1.091092187499143E-002 -6.94540022187500 -2.65114492500000 
 N -2.13346107812501 -6.22083522187500 -3.83618092500000 
 N -2.91436207812501 -6.53863222187500 1.517007499999790E-002
 N -0.383129078125008 -3.36035122187500 -2.54004692500000 
 N -2.27347507812501 -2.29899322187500 -3.93810092500000 
 N -3.45980507812501 -2.83426722187500 -0.252225925000002 
 S -0.568871078125007 -6.55534722187500 -4.21509292500000 
 S -3.72572407812501 -6.30520922187500 -1.51514292500000 
 S -1.28723707812501 -6.79747122187500 -8.115492500000210E-002
 S -0.633732078125008 -2.70810922187500 -4.08492392500000 
 S -3.94570907812501 -2.26884922187500 -1.72884092500000 
 S -1.85431907812501 -3.26716922187500 -0.190867925000002 
