16

 C -2.45575277187500 -6.56713985937500 -2.28523985625000 
 C -1.27154477187500 -7.18466185937500 -1.76958385625000 
 C -2.67446177187500 -2.55243785937500 -2.38132685625000 
 C -1.65512377187500 -3.21061485937500 -1.64747585625000 
 N -0.290267771875000 -7.35288985937500 -2.66437485625000 
 N -2.37924777187500 -6.25810585937500 -3.56802785625000 
 N -2.98925077187500 -6.98442585937500 0.228269143749999 
 N -0.648874771875001 -3.69056085937500 -2.39554685625000 
 N -2.40404377187500 -2.32509585937500 -3.67684185625000 
 N -3.43170177187500 -2.51266785937500 8.576914374999922E-002
 S -0.888414771875000 -6.76857985937500 -4.09448485625000 
 S -3.72016277187500 -6.48477485937500 -1.15574385625000 
 S -1.42043777187500 -7.46562685937500 -7.536485625000067E-002
 S -0.930971771875000 -3.05100285937500 -3.93389985625000 
 S -4.00916777187500 -2.02824785937500 -1.34484085625000 
 S -1.99671877187500 -3.33716885937500 5.133614374999929E-002
