16

 C -2.37446626562500 -6.63948429687500 -2.30542899375000 
 C -1.12152726562500 -6.93436229687500 -1.66146199375000 
 C -2.52085626562500 -2.61030529687500 -2.42531799375000 
 C -1.33911826562500 -3.23881429687500 -1.82774699375000 
 N -0.141532265625000 -7.04824529687500 -2.54693699375000 
 N -2.37008926562500 -6.50482729687500 -3.61830399375000 
 N -2.91279926562500 -6.67700129687500 0.205705006250001 
 N -0.370438265625000 -3.46592929687500 -2.69364699375000 
 N -2.43406926562500 -2.43004729687500 -3.72624299375000 
 N -3.06992826562500 -2.89625529687500 -3.671899374999943E-002
 S -0.819267265625000 -6.78655029687500 -4.05240399375000 
 S -3.70028926562500 -6.45988229687500 -1.21969799375000 
 S -1.24832226562500 -6.96092029687500 4.280200625000075E-002
 S -0.899996265625000 -3.05720029687500 -4.17477999375000 
 S -3.79465026562500 -2.36059029687500 -1.38866499375000 
 S -1.50890426562500 -3.47003329687500 -0.120598993749999 
