16

 C -2.35805572812500 -6.40147742812500 -2.51009600937500 
 C -1.14405072812500 -6.72408542812500 -1.80164600937500 
 C -2.28915972812500 -2.89428642812500 -2.44962300937500 
 C -1.01894272812500 -3.23878542812500 -1.87391400937500 
 N -0.132102728124997 -6.94476842812500 -2.61289800937500 
 N -2.25797972812500 -6.28034942812500 -3.81367800937500 
 N -2.85934172812500 -6.42744442812500 2.382599062499891E-002
 N -4.367728124996972E-003 -3.32442842812500 -2.73879500937500 
 N -2.30735172812500 -2.88006442812500 -3.78644600937500 
 N -2.69489972812500 -2.93830042812500 0.133317990624999 
 S -0.691587728124997 -6.71039242812500 -4.11346000937500 
 S -3.68105972812500 -6.18718442812500 -1.41584400937500 
 S -1.27686272812500 -6.82245042812500 -0.126637009375001 
 S -0.750596728124997 -3.15400142812500 -4.21159500937500 
 S -3.58932972812500 -2.72569842812500 -1.30051600937500 
 S -1.12581672812500 -3.44611442812500 -8.301500937500084E-002
