16

 C -2.63221161562499 -6.50618680000000 -2.37335612812500 
 C -1.43919361562499 -6.94887880000000 -1.65707712812500 
 C -2.54084061562499 -2.67535780000000 -2.41882112812500 
 C -1.34807861562499 -3.12531480000000 -1.87042212812500 
 N -0.440542615624993 -7.23607680000000 -2.45776012812500 
 N -2.50147861562499 -6.41641680000000 -3.70428212812500 
 N -3.19802961562499 -6.49206680000000 0.182740871875002 
 N -0.393928615624993 -3.36709780000000 -2.77556412812500 
 N -2.51055161562499 -2.61828380000000 -3.75815712812500 
 N -2.94003961562499 -2.90242880000000 6.336187187500175E-002
 S -0.937249615624993 -6.89341780000000 -4.01642112812500 
 S -3.96894161562499 -6.18851880000000 -1.27754612812500 
 S -1.58839161562499 -6.86327080000000 8.729187187500176E-002
 S -1.02638161562499 -3.13455480000000 -4.26979012812500 
 S -3.85339661562499 -2.59799580000000 -1.28334812812500 
 S -1.35787361562499 -3.37150280000000 -0.116791128124998 
