16

 C -2.47450086562500 -6.68133645312500 -2.46943811562500 
 C -1.17538986562500 -7.00232845312500 -1.88382311562500 
 C -2.58854186562500 -2.93195245312500 -2.24089311562500 
 C -1.35544586562501 -3.34135545312500 -1.67452011562500 
 N -0.189359865625005 -7.21363845312500 -2.73186511562500 
 N -2.44655486562500 -6.69174045312500 -3.77976911562500 
 N -2.94047686562500 -6.87661245312500 0.123952884375000 
 N -0.353895865625005 -3.38900445312500 -2.56964211562500 
 N -2.51850786562501 -2.64496545312500 -3.54257411562500 
 N -3.02730886562501 -3.06274245312500 0.294591884375000 
 S -0.849090865625005 -6.94652245312500 -4.23916411562500 
 S -3.68757786562500 -6.40619645312500 -1.27901711562500 
 S -1.31302386562500 -7.13139645312500 -0.107542115625000 
 S -0.987085865625005 -3.01926745312500 -4.04086211562500 
 S -3.83158786562500 -2.45675145312500 -1.02366611562500 
 S -1.39667286562501 -3.46098845312500 5.406388437500032E-002
