16

 C -2.41774947812500 -6.34713189687500 -2.54301310625000 
 C -1.24637647812500 -6.73693789687500 -1.77619110625000 
 C -2.75610247812500 -2.92971989687500 -2.52793510625000 
 C -1.57839647812500 -3.49845389687500 -1.90480310625000 
 N -0.240081478125000 -6.95433689687500 -2.58276910625000 
 N -2.32023447812500 -6.31005789687500 -3.85766910625000 
 N -3.11794947812500 -6.62381689687500 -0.136266106250000 
 N -0.529858478125000 -3.72288689687500 -2.69781010625000 
 N -2.52474347812500 -2.63101989687500 -3.80163610625000 
 N -3.32680647812500 -3.31659289687500 -6.806106249999999E-003
 S -0.741043478125000 -6.69121589687500 -4.14956110625000 
 S -3.84134147812500 -6.22824489687500 -1.61222310625000 
 S -1.52865147812500 -7.08231089687500 -0.169688106250000 
 S -1.00236447812500 -3.09107889687500 -4.18108110625000 
 S -4.10580747812500 -2.63476389687500 -1.37746910625000 
 S -1.76005847812500 -3.84523889687500 -0.187969106250000 
