16

 C -2.09821418125000 -6.46137935625000 -2.31922180625000 
 C -0.868730181250002 -6.92024235625000 -1.73675280625000 
 C -2.58704518125000 -2.53430235625000 -2.40163080625000 
 C -1.41710918125000 -2.99581135625000 -1.81228080625000 
 N 0.121431818749999 -7.22925635625000 -2.57110580625000 
 N -2.00953718125000 -6.34203535625000 -3.63287580625000 
 N -2.66246418125000 -6.77434135625000 0.174461193750000 
 N -0.404563181250002 -3.14775835625000 -2.66750280625000 
 N -2.54410118125000 -2.41814535625000 -3.73244980625000 
 N -3.07373918125000 -2.70053435625000 8.495119374999960E-002
 S -0.522514181250002 -6.88263835625000 -4.09267980625000 
 S -3.44264118125000 -6.31331635625000 -1.23331680625000 
 S -1.05747318125000 -7.18575835625000 2.823619374999953E-002
 S -0.932685181250002 -2.77537335625000 -4.17506380625000 
 S -3.95691018125000 -2.32836535625000 -1.32375580625000 
 S -1.47551218125000 -3.01388335625000 -0.105356806250000 
