16

 C -2.48904121562500 -6.60802318437500 -2.31267182187500 
 C -1.25511621562500 -7.02536318437500 -1.62157282187500 
 C -2.41247921562500 -2.54898918437500 -2.52982082187500 
 C -1.25949621562500 -3.04045818437500 -1.83060282187500 
 N -0.293034215624997 -7.41774518437500 -2.42321882187500 
 N -2.36718821562500 -6.56553818437500 -3.63410782187500 
 N -2.99138021562500 -6.63333618437500 0.231831178125000 
 N -0.187532215624998 -3.05550818437500 -2.60322882187500 
 N -2.18551021562500 -2.25957218437500 -3.81722282187500 
 N -3.00231921562500 -2.70015818437500 -1.216382187499976E-002
 S -0.813224215624998 -7.15789218437500 -3.95775682187500 
 S -3.79339621562500 -6.22708418437500 -1.20437882187500 
 S -1.40691021562500 -7.28986118437500 6.004617812500035E-002
 S -0.561295215624997 -2.57440518437500 -4.15282182187500 
 S -3.74417721562500 -2.34445318437500 -1.45784582187500 
 S -1.44994821562500 -3.35510518437500 -0.121479821875000 
