16

 C -2.47639106562499 -6.86303177812500 -2.30151606250000 
 C -1.12272106562499 -7.20541877812500 -1.83035206250000 
 C -2.62375606562499 -2.81543777812500 -2.41445706250000 
 C -1.40218206562499 -3.30225877812500 -1.76285906250000 
 N -0.266529065624992 -7.32732977812500 -2.84814106250000 
 N -2.57577306562499 -6.70332977812500 -3.61527506250000 
 N -2.62880606562499 -6.88796077812500 0.238553937499999 
 N -0.398185065624992 -3.56124277812500 -2.59197606250000 
 N -2.48088306562499 -2.55174777812500 -3.70036206250000 
 N -3.21417706562499 -3.28188377812500 -1.158506250000091E-002
 S -1.10279606562499 -6.97655577812500 -4.22879406250000 
 S -3.71894106562499 -6.80163877812500 -1.06132706250000 
 S -1.01513906562499 -7.36456577812500 -0.119879062500001 
 S -0.977189065624992 -3.00074377812500 -4.11066506250000 
 S -3.94950806562499 -2.58985577812500 -1.38394406250000 
 S -1.54951806562499 -3.58863577812500 -6.361506250000115E-002
