16

 C -2.43589266250000 -6.50039736875000 -2.31577643125000 
 C -1.25495066250000 -7.00596436875000 -1.66331743125000 
 C -2.53819966250000 -2.74558736875000 -2.51345943125000 
 C -1.28527166250000 -3.11947536875000 -1.80352143125000 
 N -0.204332662499997 -7.19373736875000 -2.46836243125000 
 N -2.35352366250000 -6.27374236875001 -3.62267743125000 
 N -3.16815866250000 -6.64628436875000 0.135534568750000 
 N -0.231475662499998 -3.26670736875000 -2.59329743125000 
 N -2.33943466250000 -2.46002136875000 -3.81244643125000 
 N -3.16621966250000 -3.13485836875000 -4.203343124999992E-002
 S -0.785211662499997 -6.75089336875000 -4.02079843125000 
 S -3.85870166250000 -6.39188636875000 -1.34601543125000 
 S -1.58660866250000 -7.21583536875000 7.465656875000026E-002
 S -0.711899662499998 -2.80210336875000 -4.10689343125000 
 S -3.87683266250000 -2.73007336875000 -1.46519043125000 
 S -1.53096266250000 -3.37856936875000 -0.118908431250000 
