16

 C -2.55549109062500 -6.21085526875000 -2.52200596562500 
 C -1.43978009062500 -6.82134526875000 -1.84233096562500 
 C -2.22297409062500 -2.90533726875000 -2.30836196562500 
 C -0.932036090625002 -3.36153726875000 -1.75512296562500 
 N -0.372220090625001 -7.00400626875000 -2.60517796562500 
 N -2.39218509062500 -6.07567426875000 -3.82961196562500 
 N -3.24981709062500 -6.50453826875000 -8.448596562500121E-002
 N 8.404890937499854E-002 -3.38603326875000 -2.61313896562500 
 N -2.22322109062500 -2.58964326875000 -3.60772996562500 
 N -2.61688809062500 -3.46706326875000 0.225901034374999 
 S -0.797189090625001 -6.58819126875000 -4.16416496562500 
 S -3.89289709062500 -5.88169026875000 -1.48652896562500 
 S -1.67733309062500 -7.00324126875000 -0.122909965625001 
 S -0.626565090625002 -2.84135326875000 -4.03984696562500 
 S -3.42626609062500 -3.00814026875000 -1.12377796562500 
 S -1.02255109062500 -3.88716126875000 -0.100404965625001 
