16

 C -2.31184727812500 -6.76598029375000 -2.40984959062500 
 C -1.11214427812500 -7.25128229375000 -1.71940359062500 
 C -2.56044927812500 -2.66036329375000 -2.32769759062500 
 C -1.56524427812500 -3.52366929375000 -1.78227259062500 
 N -2.569278125001517E-003 -7.47674929375000 -2.45758059062500 
 N -2.14974227812500 -6.71471729375000 -3.72097559062500 
 N -3.03474927812500 -6.89739929375000 0.103515409375001 
 N -0.725158278125001 -4.03161329375000 -2.64374959062500 
 N -2.56502627812500 -2.47949829375000 -3.63191759062500 
 N -3.12753227812500 -2.87091729375000 0.230691409375001 
 S -0.535746278125001 -7.13875429375000 -4.00214959062500 
 S -3.71769327812500 -6.50627629375000 -1.36856459062500 
 S -1.47649627812500 -7.51968929375000 -7.079590624998966E-003
 S -1.15021227812500 -3.26222929375000 -4.10333759062500 
 S -3.76466527812500 -2.17557029375000 -1.14501259062500 
 S -1.77981527812500 -3.78519129375000 -0.127390590624999 
