16

 C -2.56187036250000 -6.30647449062499 -2.50452537812500 
 C -1.36843636250000 -6.82064549062499 -1.88940937812500 
 C -2.67978736250000 -2.62620849062499 -2.49667237812500 
 C -1.55845336250000 -3.15631149062499 -1.74461637812500 
 N -0.333128362499998 -6.97676949062499 -2.73827637812500 
 N -2.41434736250000 -6.04115649062499 -3.79964637812500 
 N -3.20044836250000 -6.58429549062499 -6.284337812500063E-002
 N -0.440976362499998 -3.33782449062499 -2.42313337812500 
 N -2.42212536250000 -2.37068049062499 -3.77751837812500 
 N -3.43473936250000 -2.82464149062499 -1.169437812500052E-002
 S -0.879804362499998 -6.49191149062499 -4.22405737812500 
 S -3.87121336250000 -5.99217649062499 -1.47636937812500 
 S -1.70533536250000 -7.26327749062499 -0.187475378125001 
 S -0.849002362499998 -2.86002049062499 -4.02416037812500 
 S -4.12784936250000 -2.38820549062499 -1.45940437812500 
 S -1.87695936250000 -3.43910949062499 -9.628337812500076E-002
