16

 C -2.65849464374999 -6.32400162187501 -2.59222628125000 
 C -1.45134964374999 -6.78430662187501 -1.95577528125000 
 C -2.72585164374999 -2.63743562187501 -2.51561028125000 
 C -1.58438264374999 -3.18194062187501 -1.79873028125000 
 N -0.381674643749992 -6.95327362187501 -2.71759328125000 
 N -2.46118064374999 -6.11029562187501 -3.87941528125000 
 N -3.18857564374999 -6.67858362187501 -6.724128124999940E-002
 N -0.490739643749992 -3.44124862187501 -2.58075528125000 
 N -2.48827964374999 -2.31509362187501 -3.77277328125000 
 N -3.39667164374999 -2.82646962187501 -4.751728124999932E-002
 S -0.852789643749992 -6.43254062187501 -4.18104428125000 
 S -3.96865864374999 -6.10481762187501 -1.43687628125000 
 S -1.60254764374999 -7.05406962187501 -0.238157281249999 
 S -0.974441643749993 -2.77406262187501 -4.13987928125000 
 S -4.11871064374999 -2.53305462187501 -1.50764628125000 
 S -1.82641664374999 -3.44484962187501 -0.102814281249999 
