16

 C -2.40239060625000 -6.83195269375000 -2.18785830312500 
 C -1.12479760625000 -7.19524769375000 -1.62046830312500 
 C -2.48565660625000 -2.80050869375000 -2.44088830312500 
 C -1.25111960625000 -3.22262169375000 -1.85277630312500 
 N -8.904160625000479E-002 -7.24812569375000 -2.47493030312500 
 N -2.33593260625000 -6.61278169375000 -3.49245230312500 
 N -2.84429760625000 -6.97498869375000 0.340674696874999 
 N -0.219583606250005 -3.28876369375000 -2.67114730312500 
 N -2.50232460625000 -2.66311669375000 -3.77177330312500 
 N -2.91045760625000 -2.92485669375000 0.149472696874999 
 S -0.797952606250004 -6.88121269375000 -3.98168130312500 
 S -3.76353060625001 -6.65004069375000 -1.01378630312500 
 S -1.24140860625000 -7.36507269375000 0.163358696874999 
 S -0.870833606250005 -2.98734569375000 -4.20267630312500 
 S -3.78832060625000 -2.57098569375000 -1.23313130312500 
 S -1.33979260625000 -3.33775169375000 -3.253030312500060E-002
