16

 C -2.60106741562500 -6.28413531562501 -2.28696340000000 
 C -1.45920841562500 -6.92738131562501 -1.68620440000000 
 C -2.29041441562500 -2.44379931562501 -2.48921440000000 
 C -1.10302241562500 -2.97539831562501 -1.87216840000000 
 N -0.493650415624998 -7.17575131562501 -2.57047340000000 
 N -2.46040741562500 -5.91961131562501 -3.57189040000000 
 N -3.08116741562500 -6.69316431562501 0.216115599999997 
 N -0.134210415624999 -3.22855931562501 -2.73883440000000 
 N -2.17999441562500 -2.21311731562501 -3.76613740000000 
 N -2.88550241562500 -2.69515531562501 -1.937140000000337E-002
 S -0.970088415624998 -6.54881331562501 -4.05400540000000 
 S -3.89413841562500 -6.09647931562501 -1.13096440000000 
 S -1.55310641562500 -7.23912831562501 -2.320940000000338E-002
 S -0.649496415624998 -2.72960531562501 -4.20246140000000 
 S -3.56688441562500 -2.14934631562501 -1.40065240000000 
 S -1.33427041562500 -3.26018531562501 -0.137047400000003 
