16

 C -2.39275916250000 -6.82860572499999 -2.19062278125000 
 C -1.12249916250000 -7.19166072499999 -1.62294078125000 
 C -2.49766816250000 -2.79764472499999 -2.44635678125000 
 C -1.24417216250000 -3.20947372499999 -1.84777578125000 
 N -9.132816250000175E-002 -7.24783072499999 -2.46945278125000 
 N -2.32500416250000 -6.60291772499999 -3.49790478125000 
 N -2.82889916250000 -6.96969372499999 0.337600218750001 
 N -0.209012162500002 -3.29556672499999 -2.65652678125000 
 N -2.48730316250000 -2.66395772499999 -3.77828478125000 
 N -2.90908016250000 -2.93259672499999 0.146568218750001 
 S -0.793074162500002 -6.87348972499999 -3.97309078125000 
 S -3.77427016250000 -6.65065472499999 -1.01467678125000 
 S -1.24007116250000 -7.36473172499999 0.162334218750001 
 S -0.866891162500002 -2.99047372499999 -4.20030078125000 
 S -3.79219716250000 -2.57421872499999 -1.24118178125000 
 S -1.32881616250000 -3.33060072499999 -2.985678124999924E-002
