16

 C -2.35158414375000 -6.82650456562500 -2.37807929062500 
 C -1.02475414375000 -6.98602956562500 -1.88379229062500 
 C -2.50997114375000 -2.73360256562500 -2.38806029062500 
 C -1.38927914375000 -3.28636556562500 -1.74215629062500 
 N -0.103478143750004 -7.00123656562500 -2.83211829062500 
 N -2.50283014375000 -6.59273056562500 -3.67021829062500 
 N -2.57310314375000 -7.04105156562500 0.189192709375002 
 N -0.368149143750004 -3.59733256562500 -2.51386029062500 
 N -2.32999014375000 -2.55692456562500 -3.67890929062500 
 N -3.19066314375000 -2.97736956562500 4.906070937500151E-002
 S -0.939850143750004 -6.68495956562500 -4.29677329062500 
 S -3.55631114375000 -6.78198056562500 -1.14863229062500 
 S -0.966952143750004 -7.04126056562500 -0.141322290624998 
 S -0.727590143750004 -3.07940156562500 -4.05588329062500 
 S -3.91313714375000 -2.51793156562500 -1.40647729062500 
 S -1.62490114375000 -3.40895656562500 -3.023729062499836E-002
