16

 C -2.56393763125000 -6.29296072187500 -2.46184011250000 
 C -1.39023563125000 -6.96216672187501 -1.90657211250000 
 C -2.66043963125000 -2.87744572187500 -2.34938111250000 
 C -1.45087763125000 -3.26001772187501 -1.61610111250000 
 N -0.438891631249995 -7.13515672187501 -2.80238511250000 
 N -2.55331763125000 -6.09559772187501 -3.76287711250000 
 N -2.93564663125000 -6.73326672187501 5.432688749999914E-002
 N -0.434217631249996 -3.58495172187501 -2.39632211250000 
 N -2.47771363124999 -3.00982872187501 -3.65462011250000 
 N -3.26246963125000 -2.73002872187501 6.850388749999903E-002
 S -1.07279863125000 -6.69715572187501 -4.25411111250000 
 S -3.78643063125000 -6.02235372187500 -1.21730211250000 
 S -1.45278463125000 -7.23320672187501 -0.276403112500001 
 S -0.917813631249995 -3.39571572187501 -3.96780811250000 
 S -4.03329363125000 -2.51074772187501 -1.40836111250000 
 S -1.76373663125000 -3.45692972187501 8.516788749999904E-002
