16

 C -2.55615727812500 -6.24660656250000 -2.45840394062500 
 C -1.44106327812500 -6.80714256250000 -1.72936694062500 
 C -2.48570127812500 -3.07479356250000 -2.34150394062500 
 C -1.19128327812500 -3.30746956250000 -1.68129794062500 
 N -0.488102278124996 -7.27941956250000 -2.54008794062500 
 N -2.43465127812500 -6.29464356250000 -3.79835294062500 
 N -3.23825627812500 -6.32494056250000 5.553005937500122E-002
 N -0.166577278124997 -3.35885356250000 -2.52123294062500 
 N -2.38235727812500 -2.92153656250000 -3.66104294062500 
 N -2.97836027812500 -3.11606556250000 0.171132059375001 
 S -1.01814027812500 -7.05272856250000 -4.06557494062500 
 S -3.92464127812500 -5.84689656250000 -1.36872994062500 
 S -1.65060127812500 -6.76314256250000 -2.789940624998710E-003
 S -0.859043278124997 -3.20695056250000 -4.10841694062500 
 S -3.82531127812500 -3.12640156250000 -1.28512694062500 
 S -1.31612327812500 -3.28345256250000 6.284805937500115E-002
