16

 C -2.30268041562501 -6.91324100624999 -2.62543672812500 
 C -1.06203941562501 -7.22891500624999 -1.90935972812500 
 C -2.59013841562501 -2.76726700624999 -2.51155972812500 
 C -1.37853841562501 -3.29718200624999 -1.98171172812500 
 N -8.840141562500659E-002 -7.54752900624999 -2.71716672812500 
 N -2.22449341562501 -6.98155100624999 -3.96821172812500 
 N -2.76022441562501 -6.59463100624999 -1.941272812499961E-002
 N -0.377779415625007 -3.33081300624999 -2.83994272812500 
 N -2.53643441562501 -2.50349800624999 -3.80275672812500 
 N -2.90940041562501 -2.67930900624999 -3.511728124999669E-003
 S -0.610523415625006 -7.40599700624999 -4.31460072812500 
 S -3.50621841562501 -6.18914400624999 -1.46489072812500 
 S -1.14796541562501 -7.01236800624999 -0.196047728125000 
 S -0.986528415625006 -2.92954800624999 -4.31170972812500 
 S -3.76561941562501 -2.22300600624999 -1.42338672812500 
 S -1.37862041562501 -3.35080500624999 -0.201452728125000 
