16

 C -2.40121539062500 -6.43640380625000 -2.62167702187500 
 C -1.17690439062500 -6.87671580625000 -1.95486102187500 
 C -2.27408939062500 -2.52520880625000 -2.54555702187500 
 C -1.05007939062500 -3.05958280625000 -2.06994402187500 
 N -0.161492390624997 -7.16252580625000 -2.77819802187500 
 N -2.26069039062500 -6.37260980625000 -3.95431502187500 
 N -2.96496239062500 -6.63216580625000 -6.232102187500077E-002
 N -5.633039062499723E-002 -3.04640380625000 -2.96080902187500 
 N -2.30065339062500 -2.21174980625000 -3.85565602187500 
 N -2.74932439062500 -3.28014580625000 -8.745802187500074E-002
 S -0.684550390624997 -6.80927280625000 -4.34526502187500 
 S -3.65420539062500 -6.11450580625000 -1.54425302187500 
 S -1.36758339062500 -6.96549980625000 -0.214409021875001 
 S -0.743673390624997 -2.39531580625000 -4.39168502187500 
 S -3.51551439062500 -2.62643080625000 -1.40086002187500 
 S -1.16551339062500 -3.60825080625000 -0.407817021875001 
