16

 C -2.41820813750000 -6.51799247500000 -2.43890027500000 
 C -1.31780413750000 -7.07309847500000 -1.66655127500000 
 C -2.29569513750000 -2.72241647500000 -2.55508227500000 
 C -1.18852913750000 -3.31425247500000 -1.89474427500000 
 N -0.252019137500000 -7.40936347500000 -2.41675527500000 
 N -2.22504113750000 -6.45273247500000 -3.76350727500000 
 N -3.29791913750000 -6.66612347500000 2.442724999998758E-003
 N -8.136013750000082E-002 -3.54352647500000 -2.64486827500000 
 N -2.16155113750000 -2.52822747500000 -3.87157527500000 
 N -2.97537113750000 -3.00961247500000 -2.701527500000100E-002
 S -0.699737137500001 -6.95641547500000 -3.99613527500000 
 S -3.85131913750000 -6.07838747500000 -1.47489727500000 
 S -1.75530413750000 -7.11548947500000 4.877772499999877E-002
 S -0.595547137500001 -2.99656147500000 -4.22204027500000 
 S -3.68181513750000 -2.71562947500000 -1.47312427500000 
 S -1.41725713750000 -3.43139247500000 -0.139930275000001 
