16

 C -2.24808456250000 -6.26250544062500 -2.37531672187500 
 C -1.18445556250000 -6.88270244062500 -1.61751972187500 
 C -2.54013456250000 -2.55236644062500 -2.50049572187500 
 C -1.28432656250000 -3.04194144062500 -1.95195672187500 
 N -0.187065562499998 -7.16942944062500 -2.41583572187500 
 N -2.08641056250000 -6.19206344062500 -3.67374672187500 
 N -2.95467956250000 -6.19728744062500 9.097727812500045E-002
 N -0.264392562499998 -3.02606444062500 -2.81509072187500 
 N -2.42841656250000 -2.13767444062500 -3.77754172187500 
 N -2.90056456250000 -2.80972844062500 -4.369721874999621E-003
 S -0.571501562499998 -6.70235344062500 -3.98786972187500 
 S -3.66798256250000 -5.93841944062500 -1.38315672187500 
 S -1.47591556250000 -6.92900044062500 5.807927812500036E-002
 S -0.868227562499998 -2.47612444062500 -4.25808972187500 
 S -3.77529356250000 -2.35739244062500 -1.33402272187500 
 S -1.34755856250000 -3.39310144062500 -0.250153721875000 
