16

 C -2.58300093750000 -6.35866163437500 -2.24348328750000 
 C -1.34977793750000 -6.84401963437500 -1.74362328750000 
 C -2.51116393750000 -2.92666963437500 -2.44652328750000 
 C -1.20046293750000 -3.24741363437500 -1.85851028750000 
 N -0.377816937499997 -6.99777363437500 -2.64620528750000 
 N -2.56657093750000 -6.15433063437500 -3.56430128750000 
 N -3.06567093750000 -6.75597763437500 0.186297712500001 
 N -0.173963937499997 -3.31015963437500 -2.68637428750000 
 N -2.39760493750000 -2.64767963437500 -3.76495728750000 
 N -2.95294293750000 -3.19994163437500 7.538071250000078E-002
 S -1.02171093750000 -6.55506763437500 -4.08446528750000 
 S -3.88098493750000 -6.18656063437500 -1.10568928750000 
 S -1.47187393750000 -7.19225463437500 -2.618628749999941E-002
 S -0.815029937499998 -2.96295663437500 -4.16221328750000 
 S -3.82704793750000 -2.85975363437500 -1.31687928750000 
 S -1.41756693750000 -3.73493463437500 -0.158103287499999 
