16

 C -2.39900446562500 -6.21855534687500 -2.40009890937500 
 C -1.26138246562500 -6.80573734687500 -1.78954690937500 
 C -2.53946846562500 -2.50246134687500 -2.40745990937500 
 C -1.38639046562500 -3.07959034687500 -1.72265590937500 
 N -0.284966465625002 -6.96994634687500 -2.65163190937500 
 N -2.33434646562500 -5.97506434687500 -3.69820590937500 
 N -2.92727846562500 -6.32452334687500 8.125309062499886E-002
 N -0.337377465625003 -3.28578834687500 -2.52560290937500 
 N -2.40389746562500 -2.36969934687500 -3.70935090937500 
 N -3.04731446562500 -2.52714834687500 0.147058090624999 
 S -0.814773465625002 -6.42015534687500 -4.14139890937500 
 S -3.77756946562500 -6.10015634687500 -1.31814890937500 
 S -1.36516546562500 -7.07697634687500 -0.119915909375001 
 S -0.858795465625002 -2.89151934687500 -4.07001390937500 
 S -3.75975046562500 -1.96396534687500 -1.29009990937500 
 S -1.57739046562500 -3.27573434687500 1.116909062499882E-002
