16

 C -2.31410122500000 -6.42072960000000 -2.45092734062500 
 C -1.11741422500000 -7.00511560000001 -1.84921834062500 
 C -2.33648022500000 -3.06776260000001 -2.36747734062500 
 C -1.16037822500000 -3.41651960000001 -1.68490734062500 
 N -9.808822500000147E-002 -7.23431160000001 -2.65787734062500 
 N -2.16902222500000 -6.27171960000001 -3.76232234062500 
 N -2.76537522500000 -6.72791860000001 6.761165937499869E-002
 N -0.137894225000001 -3.55920860000001 -2.58788434062500 
 N -2.26517422500000 -2.85461960000001 -3.66855334062500 
 N -2.95764522500000 -3.20440960000001 0.194795659374999 
 S -0.556417225000001 -6.62644060000001 -4.12911134062500 
 S -3.58920622500000 -6.22808660000001 -1.28337234062500 
 S -1.25700822500000 -7.43303660000001 -0.211800340625001 
 S -0.673223225000001 -3.19028760000001 -4.03888734062500 
 S -3.72029522500000 -2.79385660000001 -1.26594534062500 
 S -1.38800022500000 -3.60587360000001 4.015765937499882E-002
