16

 C -2.30121178437500 -6.28410627500000 -2.35480612187500 
 C -1.08363978437500 -6.72843427500000 -1.73821212187500 
 C -2.61059178437500 -2.57163727500000 -2.56975312187500 
 C -1.49132878437500 -3.16322427500000 -1.87202612187500 
 N -0.134907784375004 -6.97490827500000 -2.64388212187500 
 N -2.28876078437500 -6.15534727500000 -3.65882712187500 
 N -2.86217078437500 -6.68657427500000 6.912487812500112E-002
 N -0.453011784375004 -3.48886227500000 -2.63230312187500 
 N -2.42285878437500 -2.42835227500000 -3.88990612187500 
 N -3.22077178437500 -2.67617127500000 -5.415712187499877E-002
 S -0.766505784375004 -6.53487627500000 -4.13175012187500 
 S -3.54697378437500 -5.93501827500000 -1.23618512187500 
 S -1.20320278437500 -7.09642027500000 -2.780612187499876E-002
 S -0.940906784375004 -3.12024827500000 -4.19070512187500 
 S -3.89132078437500 -2.14497827500000 -1.51891912187500 
 S -1.61803678437500 -3.12698627500000 -0.134959121874999 
