16

 C -2.48736081562499 -6.56886795625000 -2.36321984062500 
 C -1.22689481562499 -6.77269995625000 -1.74309984062500 
 C -2.67021781562500 -2.74791595625000 -2.58613184062500 
 C -1.34637781562499 -3.10280595625000 -2.05462184062500 
 N -0.196820815624995 -6.63959895625000 -2.57529984062500 
 N -2.44811781562499 -6.41367895625000 -3.68812784062500 
 N -3.04871281562500 -6.69387695625000 0.115911159375001 
 N -0.340568815624994 -3.15720195625000 -2.91512184062500 
 N -2.62245681562499 -2.46139695625000 -3.90725884062500 
 N -2.98443681562499 -3.17736295625000 -6.704784062499858E-002
 S -0.845197815624995 -6.32745295625000 -4.06140284062500 
 S -3.83715581562499 -6.46679695625000 -1.30598884062500 
 S -1.37600381562499 -6.98444895625000 -4.107840624998804E-003
 S -1.05049981562499 -2.67279095625000 -4.46363384062500 
 S -3.90247681562500 -2.75053995625000 -1.39213884062500 
 S -1.36075481562500 -3.37037395625000 -0.313012840624999 
