16

 C -2.47185425000000 -6.18366485937501 -2.70409588125000 
 C -1.28235925000000 -6.61671585937501 -2.00245188125000 
 C -2.44599625000000 -2.76039585937501 -2.55568088125000 
 C -1.24777825000000 -3.07169485937501 -1.86042888125000 
 N -0.209240249999997 -6.83535185937501 -2.77614788125000 
 N -2.29533925000000 -6.01103085937501 -4.02878288125000 
 N -3.15731025000000 -6.51461385937501 -0.199507881249999 
 N -0.159355249999997 -3.09765485937501 -2.63754188125000 
 N -2.34856225000000 -2.63279985937501 -3.87806888125000 
 N -3.07639925000000 -2.80922085937501 -1.993788124999862E-002
 S -0.680700249999997 -6.38483885937501 -4.36339988125000 
 S -3.84953325000000 -6.08776785937501 -1.61194088125000 
 S -1.56329125000000 -6.89460785937501 -0.318828881249999 
 S -0.752940249999997 -2.92691085937501 -4.22177588125000 
 S -3.85639525000000 -2.69902085937501 -1.53352188125000 
 S -1.44185025000000 -3.18765985937501 -0.121091881249999 
