16

 C -2.27687587500000 -6.29571489687500 -2.40329472187500 
 C -1.05374487500000 -6.80847389687500 -1.80394572187500 
 C -2.49684587500000 -3.17754589687500 -2.37923772187500 
 C -1.23338087500000 -3.26464289687500 -1.70676572187500 
 N -4.728987499999882E-002 -7.14865789687500 -2.66107772187500 
 N -2.17798287500000 -6.13846789687500 -3.75785872187500 
 N -2.94888387500000 -6.93416089687500 5.133827812499958E-002
 N -0.178504874999999 -3.20270889687500 -2.51671072187500 
 N -2.40039087500000 -3.06589089687500 -3.69531572187500 
 N -3.03543087500000 -2.68266189687500 8.722227812499961E-002
 S -0.665268874999999 -6.65830089687500 -4.12952072187500 
 S -3.55062687500000 -6.13982289687500 -1.23919572187500 
 S -1.27532587500000 -7.24811789687500 -0.111468721875001 
 S -0.774188874999999 -3.14671689687500 -4.08984172187500 
 S -3.92636487500000 -2.68426589687500 -1.35853472187500 
 S -1.36143887500000 -3.03765389687500 3.979127812499961E-002
