16

 C -2.58139716250000 -6.31354588125000 -2.44488168125000 
 C -1.30119016250000 -6.59866488125000 -1.81022368125000 
 C -2.76246016250000 -2.62987788125000 -2.57991368125000 
 C -1.51646716250000 -3.04511088125000 -2.00882968125000 
 N -0.274329162500000 -6.72820688125000 -2.65061568125000 
 N -2.47754216250000 -6.13203188125000 -3.76722268125000 
 N -3.16613416250000 -6.59683888125000 -9.651681249998045E-003
 N -0.538654162499999 -3.09171388125000 -2.87532268125000 
 N -2.70786916250000 -2.49032088125000 -3.91305968125000 
 N -3.21829816250000 -3.11997088125000 -4.868468124999792E-002
 S -0.890403162499999 -6.43532488125000 -4.18992968125000 
 S -3.93794816250000 -6.41169688125000 -1.47689168125000 
 S -1.53374816250000 -6.89287188125000 -9.807268124999791E-002
 S -1.07292816250000 -2.74589488125000 -4.30407468125000 
 S -4.03034716250000 -2.43635888125000 -1.32883368125000 
 S -1.57653616250000 -3.36767688125000 -0.264267681249998 
