16

 C -2.29823247500000 -6.63324200937500 -2.32407518750000 
 C -1.11112247500000 -7.00988900937500 -1.67047018750000 
 C -2.89562347500000 -3.22920500937500 -2.21643218750000 
 C -1.66951847500000 -3.60100900937500 -1.56604318750000 
 N -0.121070474999999 -7.33241500937500 -2.50122118750000 
 N -2.20477347500000 -6.57657500937500 -3.64778618750000 
 N -2.96601547500000 -6.94773300937500 7.064381249999974E-002
 N -0.601536474999999 -3.74470400937500 -2.36299218750000 
 N -2.81212347500000 -3.02702200937500 -3.52575018750000 
 N -3.51223947500000 -3.36341300937500 0.238040812500000 
 S -0.698156474999998 -7.13567400937500 -4.04572118750000 
 S -3.67638447500000 -6.52931900937500 -1.33517718750000 
 S -1.30767147500000 -7.22576800937500 5.496181249999976E-002
 S -1.23567747500000 -3.38390700937500 -3.90380318750000 
 S -4.27338447500000 -3.03423400937500 -1.18481518750000 
 S -1.93155347500000 -3.73155300937500 0.140471812500000 
