16

 C -2.66347110625000 -6.39171440000001 -2.52528435937500 
 C -1.40117910625000 -6.90875240000001 -2.00165735937500 
 C -2.67001710625000 -2.93490740000001 -2.39790735937500 
 C -1.45801510625000 -3.27559540000001 -1.61272335937500 
 N -0.479064106249999 -7.08846740000001 -2.94958435937500 
 N -2.61255410625000 -6.12274440000001 -3.81704335937500 
 N -3.00601310625000 -6.76896140000001 6.963864062500003E-002
 N -0.393333106249999 -3.55885240000001 -2.34848935937500 
 N -2.52128810625000 -3.03050540000001 -3.72383935937500 
 N -3.37341310625000 -2.80102640000001 0.121117640625000 
 S -1.08289710625000 -6.53978840000001 -4.40253235937500 
 S -3.77846910625000 -5.98179340000001 -1.17406435937500 
 S -1.35096610625000 -7.21119140000001 -0.273893359375000 
 S -0.922820106250000 -3.48946540000001 -3.93831935937500 
 S -4.02508010625000 -2.64163240000001 -1.39055735937500 
 S -1.80789310625000 -3.44190740000001 0.116126640625000 
