16

 C -2.40178375625000 -6.62921959375000 -2.33306067187500 
 C -1.13554375625000 -6.97002259375000 -1.71007467187500 
 C -2.36143475625000 -2.77512459375000 -2.46685567187500 
 C -1.14358675625000 -3.14887759375000 -1.67035867187500 
 N -8.467275624999981E-002 -7.00298359375000 -2.52465267187500 
 N -2.30022275625000 -6.41472659375000 -3.65872267187500 
 N -2.90642875625000 -7.08536259375000 0.148809328124999 
 N -3.705075624999932E-002 -3.30817059375000 -2.40009667187500 
 N -2.17291975625000 -2.78774059375000 -3.78773167187500 
 N -3.09874975625000 -2.82243559375000 -2.969167187500044E-002
 S -0.710194756250000 -6.60166759375000 -3.98281067187500 
 S -3.66975475625000 -6.62433459375000 -1.22894067187500 
 S -1.27825775625000 -7.29736659375000 -4.546718750004786E-004
 S -0.583497756250000 -3.05561859375000 -3.98144467187500 
 S -3.75316975625000 -2.52623859375000 -1.47845667187500 
 S -1.46864375625000 -3.15209159375000 -8.139671875000642E-003
