16

 C -2.17154577500000 -6.40296140937500 -2.41829918437500 
 C -0.947188774999999 -6.80795040937500 -1.77420018437500 
 C -2.58282677500000 -2.88295340937500 -2.54334218437500 
 C -1.40781477500000 -3.28185040937500 -1.81731618437500 
 N 3.747522500000144E-002 -6.81139740937500 -2.64964018437500 
 N -2.14186977500000 -6.22373440937500 -3.72113618437500 
 N -2.61587977500000 -6.67743240937500 0.103519815625002 
 N -0.268653774999999 -3.46841540937500 -2.52065218437500 
 N -2.38938777500000 -2.78111440937500 -3.86979118437500 
 N -3.22183777500000 -2.82958940937500 -3.098318437499814E-002
 S -0.563930774999999 -6.47806640937500 -4.12737018437500 
 S -3.48797277500000 -6.40251540937500 -1.29292318437500 
 S -1.01946877500000 -7.06529440937500 -9.286318437499808E-002
 S -0.762749774999999 -3.06064040937500 -4.06516118437500 
 S -3.92197677500000 -2.46563140937500 -1.49477918437500 
 S -1.66982577500000 -3.37104240937500 -2.743418437499812E-002
