16

 C -2.48227343125000 -6.40504395000000 -2.42754617812500 
 C -1.30013743125000 -6.93705395000000 -1.80151717812500 
 C -2.32461143125000 -2.89019295000000 -2.35106817812500 
 C -1.02921443125000 -3.31395395000000 -1.76770117812500 
 N -0.239693431250000 -7.14127595000000 -2.58058517812500 
 N -2.33049743125000 -6.18300395000000 -3.73911017812500 
 N -3.03674243125000 -6.72193095000000 8.873882187499826E-002
 N -3.234143124999989E-002 -3.44298695000000 -2.64160217812500 
 N -2.21766643125000 -2.70913395000000 -3.65203217812500 
 N -2.73640743125000 -2.90161295000000 0.154741821874998 
 S -0.738151431249999 -6.59532195000000 -4.06929117812500 
 S -3.75145143125000 -6.07978695000000 -1.28964917812500 
 S -1.47447143125000 -7.20242795000000 -0.125755178125002 
 S -0.705863431250000 -3.19702795000000 -4.16282417812500 
 S -3.61799843125000 -2.58169195000000 -1.24939317812500 
 S -1.18305143125000 -3.54661695000000 -5.743717812500160E-002
