16

 C -2.33177521250001 -6.51226810937500 -2.54183757812500 
 C -1.08376721250001 -6.73609610937500 -1.82859957812500 
 C -2.40652821250001 -3.26077410937500 -2.11482057812500 
 C -1.08720421250001 -3.44693910937500 -1.57832857812500 
 N -8.052921250000544E-002 -6.92844710937500 -2.67467957812500 
 N -2.28667121250001 -6.46707110937500 -3.88137857812500 
 N -2.96840721250001 -6.55252110937500 -1.523657812499901E-002
 N -8.732821250000544E-002 -3.54226210937500 -2.47368357812500 
 N -2.47464621250001 -3.16161710937500 -3.47036457812500 
 N -2.78382621250001 -3.61013210937500 0.423074421875001 
 S -0.659962212500005 -6.70968710937500 -4.22863857812500 
 S -3.74680621250001 -6.26415010937500 -1.43840457812500 
 S -1.30088121250001 -6.81709110937500 -8.757757812499878E-002
 S -0.884579212500006 -3.38613810937500 -3.92378857812500 
 S -3.69881121250001 -3.36193010937500 -0.938052578124999 
 S -1.15460921250001 -3.66966310937500 0.209360421875001 
