16

 C -2.29084131875000 -6.39119445312500 -2.42491345937500 
 C -1.08939631875000 -6.82472645312500 -1.74967245937500 
 C -2.55490631875000 -2.59748145312500 -2.24216745937500 
 C -1.33972631875000 -3.10584545312500 -1.70653945937500 
 N -0.120867318749997 -7.02401545312500 -2.62037245937500 
 N -2.15966031875000 -6.08811445312500 -3.72549245937500 
 N -2.82677331875000 -6.55033945312500 0.109266540625000 
 N -0.289158318749997 -3.23852845312500 -2.54976745937500 
 N -2.52314231875000 -2.37016945312500 -3.57283245937500 
 N -2.94468131875000 -2.91140445312500 0.311014540625000 
 S -0.637281318749997 -6.56930445312500 -4.09982945937500 
 S -3.62110731875000 -6.29906645312500 -1.33759645937500 
 S -1.22897231875000 -7.00375945312500 -5.461945937499979E-002
 S -0.950743318749997 -2.69836145312500 -3.95983145937500 
 S -3.83339331875000 -2.53484745312500 -1.04436345937500 
 S -1.35306431875000 -3.27041645312500 8.594254062500029E-002
