16

 C -2.35356270312500 -6.65821346875000 -2.39208516250000 
 C -1.08834170312500 -6.99076846875000 -1.76029016250000 
 C -2.27260170312500 -3.45866646875000 -2.25833516250000 
 C -1.03402070312500 -3.56427246875000 -1.53703116250000 
 N -4.440470312500189E-002 -7.14473946875000 -2.62588116250000 
 N -2.29092570312500 -6.56339846875000 -3.71887416250000 
 N -2.86768970312500 -6.52684146875000 8.097683749999884E-002
 N 5.755329687499788E-002 -3.68623646875000 -2.27094016250000 
 N -2.11913470312500 -3.43709346875000 -3.53835316250000 
 N -2.81614070312500 -3.26807446875000 0.276714837499999 
 S -0.759915703125002 -6.90728346875000 -4.15568616250000 
 S -3.67815470312500 -6.33685746875000 -1.31946616250000 
 S -1.22711270312500 -6.89848246875000 -2.756316250000124E-002
 S -0.511961703125002 -3.62825846875000 -3.91446316250000 
 S -3.58585370312500 -3.18258746875000 -1.17221716250000 
 S -1.22049970312500 -3.57307846875000 0.178960837499999 
