16

 C -2.34957930312499 -6.06796249062500 -2.34706494062500 
 C -1.19367930312499 -6.80366649062500 -1.79151194062500 
 C -2.72138630312499 -2.45674849062500 -2.72741994062500 
 C -1.45638930312499 -2.84969449062500 -2.08906894062500 
 N -0.302864303124992 -7.14874449062500 -2.73526994062500 
 N -2.36190430312499 -5.88233049062500 -3.67764494062500 
 N -2.70525830312499 -6.36761649062500 0.193723059375000 
 N -0.428769303124992 -3.12055149062500 -2.89439894062500 
 N -2.59372330312499 -2.38912449062500 -4.04282094062500 
 N -3.09577030312499 -2.41806549062500 -0.170153940625000 
 S -0.940216303124992 -6.55447649062500 -4.17577694062500 
 S -3.56461630312499 -5.74971949062500 -1.11272094062500 
 S -1.25559130312499 -7.09834749062500 -0.104951940624999 
 S -1.04456430312499 -2.79149649062500 -4.42827194062500 
 S -4.00238930312499 -2.09513349062500 -1.53721294062500 
 S -1.52682630312499 -2.89741149062500 -0.327856940625000 
