16

 C -2.41346087500000 -6.23601904062500 -2.43374809687500 
 C -1.21126087500000 -6.61175404062500 -1.79633309687500 
 C -2.23967987500000 -2.91723704062500 -2.46945309687500 
 C -0.990811875000000 -3.26717504062500 -1.87185309687500 
 N -0.146623875000000 -6.90605304062500 -2.58372809687500 
 N -2.33065987500000 -6.14276104062500 -3.77283509687500 
 N -3.08695887500000 -6.42071704062500 4.209990312500245E-002
 N 5.817712500000027E-002 -3.30378004062500 -2.71169609687500 
 N -2.20685987500000 -2.77303704062500 -3.81046609687500 
 N -2.82803887500000 -3.18823404062500 6.375790312500240E-002
 S -0.736208875000000 -6.58862404062500 -4.12140209687500 
 S -3.79967787500000 -6.01283804062500 -1.39945209687500 
 S -1.42185187500000 -6.71399904062500 -7.242409687499762E-002
 S -0.664522875000000 -3.08607704062500 -4.23969309687500 
 S -3.61651387500000 -2.90254204062500 -1.38991709687500 
 S -1.20715187500000 -3.48039304062500 -0.142436096874998 
