16

 C -2.34114037812500 -6.16121763750000 -2.20841909062500 
 C -1.17467637812500 -6.77541363750000 -1.66582909062500 
 C -2.45610037812500 -2.85615863750000 -2.72979309062500 
 C -1.18865437812500 -3.05827563750000 -2.10867609062500 
 N -0.178142378125004 -6.92066763750000 -2.54324709062500 
 N -2.18817737812500 -5.83925863750000 -3.46465409062500 
 N -2.85091337812500 -6.63353463750000 0.289277909374998 
 N -0.173166378125004 -2.82781163750000 -2.95461409062500 
 N -2.41927137812500 -2.49270263750000 -4.03275409062500 
 N -2.92231837812500 -3.02125863750000 -0.203157090625002 
 S -0.682243378125005 -6.29133363750000 -4.03826609062500 
 S -3.66460937812500 -6.21295863750000 -1.13754209062500 
 S -1.31202337812501 -7.14644163750000 5.149290937499829E-002
 S -0.837523378125005 -2.60111063750000 -4.41919909062500 
 S -3.74692437812501 -2.99716663750000 -1.62138909062500 
 S -1.26609837812500 -3.30466063750000 -0.362698090625002 
