16

 C -2.52139557812500 -6.33999994062500 -2.54841789062500 
 C -1.39044557812500 -6.85374794062500 -1.82763089062500 
 C -2.42488057812500 -2.57072694062500 -2.39718289062500 
 C -1.24872857812500 -2.95614794062500 -1.72680189062500 
 N -0.313824578124996 -7.09345594062500 -2.54889689062500 
 N -2.27167957812500 -6.24026394062500 -3.84821989062500 
 N -3.25129757812500 -6.59388294062500 -0.154209890624998 
 N -0.206762578124996 -3.15235494062500 -2.57471789062500 
 N -2.32626657812500 -2.35768094062500 -3.73708389062500 
 N -3.07305557812500 -2.53117394062500 5.225610937500158E-002
 S -0.668646578124997 -6.72756694062500 -4.10232589062500 
 S -3.85847257812500 -6.02253194062500 -1.55995289062500 
 S -1.60489957812500 -6.95425594062500 -0.104736890624999 
 S -0.738345578124997 -2.80100894062500 -4.03865889062500 
 S -3.80006857812500 -2.20920094062500 -1.40045089062500 
 S -1.52006057812500 -3.02692794062500 -1.093689062499825E-002
