16

 C -2.41583023750000 -6.37507014062501 -2.51984416250000 
 C -1.26524823750000 -6.86233914062501 -1.82467316250000 
 C -2.39032523750000 -2.53527914062501 -2.47992316250000 
 C -1.36220423750000 -3.27868314062501 -1.86699916250000 
 N -0.230723237500003 -7.07607014062501 -2.61376316250000 
 N -2.28118223750000 -6.15794414062501 -3.83438516250000 
 N -3.20838723750000 -6.77860914062501 -0.106933162499999 
 N -0.289729237500003 -3.56358514062501 -2.61194416250000 
 N -2.17080623750000 -2.31384614062501 -3.77718116250000 
 N -2.96221723750000 -2.76711114062501 5.708783750000079E-002
 S -0.657611237500003 -6.52221414062501 -4.20547316250000 
 S -3.84253823750000 -6.12301314062501 -1.54349616250000 
 S -1.60972423750000 -7.08210014062501 -0.111920162499999 
 S -0.687375237500003 -3.07462114062501 -4.10384816250000 
 S -3.65582723750000 -2.21567714062501 -1.36108816250000 
 S -1.43901823750000 -3.37113114062501 -0.103862162499999 
