16

 C -2.49826244062500 -6.69110525000000 -2.32631285000000 
 C -1.20735944062501 -7.03587525000000 -1.72483785000000 
 C -2.28778544062500 -3.17656425000000 -2.30743285000000 
 C -1.05169344062501 -3.61470025000000 -1.69296885000000 
 N -0.311694440625005 -7.28539625000000 -2.65717685000000 
 N -2.56490444062501 -6.71564525000000 -3.64098685000000 
 N -2.86268444062500 -6.77913125000000 0.227533149999999 
 N -6.970244062500530E-002 -3.88756825000000 -2.53568285000000 
 N -2.15621244062500 -2.95064825000000 -3.59284985000000 
 N -2.74295744062500 -3.37855925000000 0.188560149999999 
 S -1.01850044062500 -6.97695525000000 -4.15073985000000 
 S -3.72308044062500 -6.39644825000000 -1.16838085000000 
 S -1.28392244062500 -7.11008525000000 5.345149999998799E-003
 S -0.626033440625005 -3.44244225000000 -4.10981285000000 
 S -3.55603844062500 -2.90274225000000 -1.15115385000000 
 S -1.13995844062500 -3.81249425000000 3.819014999999881E-002
