16

 C -2.34118264062500 -6.47799266250000 -2.64864855000000 
 C -1.19371564062500 -6.89244366250000 -1.95956855000000 
 C -2.30393964062500 -2.55789066250000 -2.57334555000000 
 C -1.05748964062500 -3.07763866250000 -2.11433355000000 
 N -0.197546640625001 -7.15195766250000 -2.75639255000000 
 N -2.30932864062500 -6.31328266250000 -3.97169855000000 
 N -2.96046464062500 -6.61555466250000 -0.103142549999999 
 N -3.287264062500128E-002 -3.07640166250000 -2.99869055000000 
 N -2.26249964062500 -2.21411666250000 -3.86153155000000 
 N -2.72338464062500 -3.27295166250000 -5.782654999999903E-002
 S -0.732892640625001 -6.83739366250000 -4.31958055000000 
 S -3.62438764062500 -6.14990366250000 -1.54945755000000 
 S -1.34651064062500 -7.01390466250000 -0.242784549999999 
 S -0.727742640625001 -2.35510366250000 -4.35764855000000 
 S -3.52885364062500 -2.61062166250000 -1.34162555000000 
 S -1.16302864062500 -3.61210166250000 -0.431616549999999 
