16

 C -2.63142295625000 -6.32308211250000 -2.54372380937500 
 C -1.42234095625000 -6.74447211250000 -1.88230180937500 
 C -2.70883395625000 -2.66264511250000 -2.48079180937500 
 C -1.51900595625000 -3.23676111250000 -1.88526480937500 
 N -0.415696956250004 -6.95447911250000 -2.70979880937500 
 N -2.48237495625000 -6.11928211250000 -3.86823880937500 
 N -3.22647395625000 -6.70503111250000 -7.899380937499734E-002
 N -0.507348956250004 -3.36909411250000 -2.69439380937500 
 N -2.56662395625000 -2.31486211250000 -3.75722280937500 
 N -3.36428595625000 -2.88448311250000 -5.219280937499748E-002
 S -0.832948956250005 -6.41371511250000 -4.20342980937500 
 S -3.97797195625000 -6.16845811250000 -1.42884780937500 
 S -1.57865895625000 -6.97839911250000 -0.244447809374997 
 S -1.00718195625000 -2.77264611250000 -4.14297880937500 
 S -4.11742895625000 -2.51576811250000 -1.51918780937500 
 S -1.78936395625000 -3.42622411250000 -0.116431809374998 
