16

 C -2.41950146250000 -6.65242575625000 -2.28753508437500 
 C -1.13416946250000 -6.94666775625000 -1.68064608437500 
 C -2.44175446250000 -2.67009975625000 -2.49305508437500 
 C -1.26385046250001 -3.20416775625000 -1.85397108437500 
 N -0.117681462500005 -7.06228975625000 -2.55334808437500 
 N -2.35723046250000 -6.48081975625000 -3.61484808437500 
 N -2.90934346250001 -6.69796275625000 0.206093915624998 
 N -0.301216462500005 -3.55805675625000 -2.71166208437500 
 N -2.39222546250000 -2.44245175625000 -3.79715008437500 
 N -3.05626446250001 -2.94485575625000 5.502915624998161E-003
 S -0.815398462500005 -6.75776575625000 -4.02212008437500 
 S -3.67890946250000 -6.52885775625000 -1.18389608437500 
 S -1.29237546250000 -6.92421875625000 9.774691562499815E-002
 S -0.897756462500005 -3.04988875625000 -4.20469808437500 
 S -3.75329446250000 -2.38158075625000 -1.38449008437500 
 S -1.49200446250001 -3.43947175625000 -0.134396084375002 
