16

 C -2.25985753437500 -6.62927360000000 -2.25887142812500 
 C -0.930745534375003 -6.94668460000000 -1.79921642812500 
 C -2.51683253437500 -2.71394460000000 -2.33896942812500 
 C -1.29105353437500 -3.27232960000000 -1.70064042812500 
 N 3.140746562499697E-002 -6.98676960000000 -2.73155242812500 
 N -2.35733253437500 -6.43912360000000 -3.57917142812500 
 N -2.39919153437500 -6.96690060000000 0.288436571875000 
 N -0.344491534375003 -3.48169360000000 -2.59614342812500 
 N -2.48315153437500 -2.63837760000000 -3.65725742812500 
 N -3.03632153437500 -3.00105260000000 0.184410571875000 
 S -0.793929534375002 -6.67347960000000 -4.18364842812500 
 S -3.42234453437500 -6.57292560000000 -0.997692428125000 
 S -0.809629534375003 -7.28320560000000 -5.121742812499996E-002
 S -0.914093534375003 -3.07476160000000 -4.11874842812500 
 S -3.82831153437500 -2.44572660000000 -1.22653242812500 
 S -1.46359553437500 -3.54518960000000 -5.264281249999225E-004
