16

 C -2.63964604687500 -6.32491249687500 -2.55344506250000 
 C -1.42362904687500 -6.74915649687500 -1.88362506250000 
 C -2.71706304687500 -2.65968849687500 -2.48075206250000 
 C -1.53334704687500 -3.22325049687500 -1.87804906250000 
 N -0.417658046875002 -6.95775949687500 -2.71689906250000 
 N -2.48007804687500 -6.12104949687500 -3.87078606250000 
 N -3.22253404687500 -6.70053149687500 -8.112006249999792E-002
 N -0.497776046875002 -3.38831949687500 -2.67172706250000 
 N -2.55484304687500 -2.31188349687500 -3.75933806250000 
 N -3.36847404687500 -2.87293649687500 -5.240306249999804E-002
 S -0.832892046875002 -6.41558749687500 -4.19798606250000 
 S -3.97719504687500 -6.15661049687500 -1.42734506250000 
 S -1.58224704687500 -6.99076949687500 -0.249487062499998 
 S -1.00251404687500 -2.77214249687500 -4.14309106250000 
 S -4.11878304687500 -2.51970549687500 -1.52178306250000 
 S -1.79574004687500 -3.43097849687500 -0.109892062499998 
