16

 C -2.31918830000000 -6.35941722187500 -2.50733291562500 
 C -1.19888430000000 -6.79003022187500 -1.74409691562500 
 C -2.65172930000000 -2.53036222187500 -2.45138791562500 
 C -1.41881630000000 -2.75642422187500 -1.75866691562500 
 N -0.100165299999998 -7.03817122187500 -2.46655591562500 
 N -2.09915830000000 -6.22454122187500 -3.80681891562500 
 N -3.11078530000000 -6.48700022187500 -6.413391562499982E-002
 N -0.378153299999998 -2.87762322187500 -2.53110091562500 
 N -2.53238230000000 -2.35022922187500 -3.72008591562500 
 N -3.24088030000000 -2.78519822187500 2.079108437500010E-002
 S -0.523758299999998 -6.64133222187500 -4.03901491562500 
 S -3.76475230000000 -6.16429622187500 -1.59454191562500 
 S -1.55516930000000 -7.04657122187500 -1.229291562499979E-002
 S -0.969639299999998 -2.61452422187500 -4.12602591562500 
 S -4.01981430000000 -2.40958722187500 -1.38418491562500 
 S -1.58747430000000 -2.98052622187500 -0.108679915625000 
