16

 C -2.23946790625000 -6.53256482812499 -2.25629259062500 
 C -1.00790290625000 -7.16112382812499 -1.71065459062500 
 C -2.23230090625000 -2.59116382812499 -2.45660059062500 
 C -1.09607090625000 -3.21970182812499 -1.80164959062500 
 N -9.059290625000216E-002 -7.33487182812499 -2.66481459062500 
 N -2.25110990625000 -6.28383882812499 -3.55770059062500 
 N -2.60363390625000 -6.53438182812499 0.254110409375000 
 N -2.272906250001760E-003 -3.30584182812499 -2.57038959062500 
 N -2.08913490625000 -2.39489782812499 -3.76303759062500 
 N -2.95491990625000 -2.93813382812499 2.941840937500029E-002
 S -0.741651906250002 -6.79440482812499 -4.10629259062500 
 S -3.38774790625000 -6.03072982812499 -1.10764659062500 
 S -1.11059790625000 -7.41070282812499 1.579740937500040E-002
 S -0.571969906250001 -2.80187482812499 -4.08258159062500 
 S -3.62435890625000 -2.40497382812499 -1.38513159062500 
 S -1.36048290625000 -3.57623482812499 -0.129426590625000 
