16

 C -2.21563470937500 -6.33851084062500 -2.42531565625000 
 C -1.03865270937500 -6.84794984062500 -1.73728865625000 
 C -2.83344570937500 -2.52629184062500 -2.50744965625000 
 C -1.56855770937500 -2.90798184062500 -1.90689565625000 
 N 1.236729062500252E-002 -7.04570684062500 -2.52013465625000 
 N -2.04740070937500 -6.13055584062500 -3.74107265625000 
 N -2.86697570937500 -6.62602684062500 0.100887343749999 
 N -0.509217709374997 -2.87198284062500 -2.75146465625000 
 N -2.77804170937500 -2.30933684062500 -3.85680265625000 
 N -3.34694170937500 -2.84735784062500 7.828343749998856E-003
 S -0.440304709374998 -6.51610284062500 -4.02992365625000 
 S -3.57925470937500 -6.16287184062500 -1.31660465625000 
 S -1.23153270937500 -7.09315184062500 -1.087565625000098E-002
 S -1.15930570937500 -2.49560284062500 -4.19583765625000 
 S -4.17895870937500 -2.47326384062500 -1.42223865625000 
 S -1.71601770937500 -3.06234784062500 -0.220672656250001 
