16

 C -2.62554807812500 -6.41434232812499 -2.30160672187500 
 C -1.42046307812500 -6.87116332812499 -1.66346272187500 
 C -2.43533007812500 -2.86661732812499 -2.40128072187500 
 C -1.22051107812500 -3.34640732812499 -1.86164772187500 
 N -0.452371078125005 -7.17740932812499 -2.52455072187500 
 N -2.53057707812500 -6.31052932812499 -3.60980872187500 
 N -3.17502107812500 -6.44597032812499 0.206501278125002 
 N -0.177360078125004 -3.46502032812499 -2.69753472187500 
 N -2.36697007812500 -2.68465032812499 -3.71262372187500 
 N -2.85578407812500 -2.94535632812499 6.998827812500164E-002
 S -1.03832807812500 -6.79761132812499 -4.03008872187500 
 S -3.93269907812500 -6.14833232812499 -1.22688972187500 
 S -1.64349007812500 -7.05760332812499 4.816527812500171E-002
 S -0.861913078125005 -3.14186232812499 -4.19903572187500 
 S -3.75532907812500 -2.57524932812499 -1.26011072187500 
 S -1.24020407812500 -3.31993332812499 -9.503572187499820E-002
