16

 C -2.64923295312500 -6.31369608437500 -2.34870252187500 
 C -1.45668795312500 -6.81183208437500 -1.68484652187500 
 C -2.38165995312500 -2.67872308437500 -2.46198752187500 
 C -1.13490895312500 -3.10386708437500 -1.74959152187500 
 N -0.460147953125002 -7.01794008437500 -2.52255252187500 
 N -2.60952195312500 -6.18720008437500 -3.66993852187500 
 N -3.19676795312500 -6.29149208437500 0.182195478125001 
 N -5.102695312500227E-002 -3.21972708437500 -2.54663452187500 
 N -2.23976695312500 -2.67695208437500 -3.79911252187500 
 N -3.02677495312500 -2.81877408437500 -2.876952187499948E-002
 S -1.07074095312500 -6.73356008437500 -4.07204952187500 
 S -3.95509895312500 -5.93981508437500 -1.23564652187500 
 S -1.63231895312500 -6.96558108437500 7.672647812500055E-002
 S -0.644486953125003 -3.03610308437500 -4.08635752187500 
 S -3.76398195312500 -2.34097108437500 -1.44018752187500 
 S -1.38366995312500 -3.19611508437500 -1.260752187499947E-002
