16

 C -2.28470324687500 -6.53751512812500 -2.38399537187500 
 C -1.06933924687500 -7.03402912812501 -1.80193837187500 
 C -2.42230424687500 -2.99780512812501 -2.42939037187500 
 C -1.14077924687500 -3.27453912812501 -1.78024537187500 
 N -7.213624687499909E-002 -7.05136812812501 -2.69358537187500 
 N -2.23311624687500 -6.06831612812501 -3.63639637187500 
 N -2.83251724687500 -6.78599312812501 0.140952628125000 
 N -0.133725246874999 -3.36173012812501 -2.62684037187500 
 N -2.29002524687500 -2.85467312812500 -3.74410137187500 
 N -2.95617724687500 -3.46161912812501 3.652462812499957E-002
 S -0.730252246874999 -6.49373212812501 -4.16921737187500 
 S -3.59401824687500 -6.29704012812500 -1.24976337187500 
 S -1.24738824687500 -7.34311812812501 -5.235737187500034E-002
 S -0.696734246874999 -3.12511412812501 -4.08565037187500 
 S -3.75896424687500 -2.83949612812501 -1.33687637187500 
 S -1.33249324687500 -3.66377712812501 -0.109235371875001 
