16

 C -2.70218588125000 -6.67658234375000 -2.32745274687500 
 C -1.48224988125000 -7.14564134375000 -1.76978474687500 
 C -2.25475688125000 -2.96678634375000 -2.30826774687500 
 C -1.00129688125000 -3.39442234375000 -1.66614374687500 
 N -0.493138881250001 -7.44546934375000 -2.61050774687500 
 N -2.65791888125000 -6.55432434375000 -3.63906074687500 
 N -3.12403288125000 -6.96357734375000 0.252890253125002 
 N 5.999111875000018E-002 -3.54671534375000 -2.45564674687500 
 N -2.14467488125000 -2.82456834375000 -3.63159574687500 
 N -2.88522588125000 -3.21946834375000 0.216488253125002 
 S -1.09994288125000 -7.01109934375000 -4.12921174687500 
 S -3.94276988125000 -6.45370834375000 -1.07207074687500 
 S -1.55123888125000 -7.34578634375000 3.142625312500158E-002
 S -0.575384881250001 -3.24944034375000 -3.98073774687500 
 S -3.56123088125000 -2.63484934375000 -1.16005974687500 
 S -1.28154488125000 -3.69717334375000 4.911025312500161E-002
