16

 C -2.34166505625000 -6.34631399062500 -2.32710739375000 
 C -1.13138905625000 -6.84232199062500 -1.76361439375000 
 C -2.40463605625000 -2.92233699062500 -2.50409039375000 
 C -1.14400005625000 -3.32710799062500 -1.83654939375000 
 N -0.135920056250000 -7.03770799062500 -2.64490539375000 
 N -2.30558605625000 -6.14868599062500 -3.65035239375000 
 N -2.84228705625000 -6.84199799062500 0.139625606249999 
 N -0.104518056250000 -3.31342499062500 -2.66609239375000 
 N -2.35155505625000 -2.74051399062500 -3.78044439375000 
 N -2.98818405625000 -3.35890099062500 5.883606249999174E-003
 S -0.751463056250000 -6.46708099062500 -4.05340639375000 
 S -3.70210405625000 -6.41948099062500 -1.19274639375000 
 S -1.22174805625000 -7.23163899062500 -8.864639375000083E-002
 S -0.798308056250000 -2.94666099062500 -4.29042139375000 
 S -3.74418405625000 -2.93544499062500 -1.39356739375000 
 S -1.35475405625000 -3.62693299062500 -0.146376393750001 
