16

 C -2.38141139687500 -6.52124105312500 -2.50231204687500 
 C -1.28272639687500 -7.02246505312500 -1.68712304687500 
 C -2.36503339687500 -2.86156905312500 -2.55760304687500 
 C -1.13775539687500 -3.33362805312500 -1.89496204687500 
 N -0.167865396874998 -7.22506705312500 -2.35853104687500 
 N -2.14168539687500 -6.40282705312500 -3.80332504687500 
 N -3.19665939687500 -6.80242005312500 -3.670804687499918E-002
 N -8.011639687499805E-002 -3.48521105312500 -2.68697304687500 
 N -2.19788739687500 -2.61989805312500 -3.86121204687500 
 N -2.92928239687500 -3.07962705312500 -4.534604687499910E-002
 S -0.553227396874998 -6.95245205312500 -3.95830004687500 
 S -3.80341639687500 -6.21396205312500 -1.50248604687500 
 S -1.60657239687500 -7.28865105312500 -2.234204687499930E-002
 S -0.616288396874998 -3.08091305312500 -4.15739904687500 
 S -3.77131639687500 -2.68702305312500 -1.50641904687500 
 S -1.35578939687500 -3.62383605312500 -0.174359046874999 
