16

 C -2.56456482500000 -6.80480416875000 -2.35451144375000 
 C -1.26395582500000 -7.16611616875000 -1.73580044375000 
 C -2.31613682500000 -3.06186416875000 -2.35608244375000 
 C -1.11366282500000 -3.62709316875000 -1.77783744375000 
 N -0.278864824999998 -7.26805116875000 -2.63803244375000 
 N -2.56434482500000 -6.65249016875000 -3.67603744375000 
 N -2.93707682500000 -6.76393316875000 0.227041556250001 
 N -8.646882499999720E-002 -3.77943716875000 -2.60848644375000 
 N -2.27973582500000 -2.94981316875000 -3.65403844375000 
 N -2.72172582500000 -3.36127216875000 0.221086556250001 
 S -1.01701082500000 -7.00690116875000 -4.12530144375000 
 S -3.80475582500000 -6.41806416875000 -1.13769344375000 
 S -1.31611482500000 -7.17034916875000 -2.061443749998837E-003
 S -0.743425824999997 -3.33776116875000 -4.11239444375000 
 S -3.56983182500000 -2.82070416875000 -1.14472644375000 
 S -1.17246182500000 -3.88777516875000 -0.101488443749999 
