16

 C -2.27660566249999 -6.50171208750000 -2.57601380000000 
 C -1.07303566249999 -7.00658208750000 -1.98922280000000 
 C -2.67159766249999 -2.43054408750000 -2.35197780000000 
 C -1.52594266249999 -2.93036208750000 -1.63249480000000 
 N -4.791766249999085E-002 -7.28997108750000 -2.80489380000000 
 N -2.08962566249999 -6.25028808750000 -3.87128180000000 
 N -2.80473566249999 -6.47276808750000 -0.117574799999999 
 N -0.473958662499991 -3.24218608750000 -2.38640880000000 
 N -2.56709166249999 -2.52874408750000 -3.67446380000000 
 N -3.44833866249999 -2.77019608750000 0.106759200000000 
 S -0.597035662499991 -6.78466208750000 -4.31406480000000 
 S -3.59104266249999 -6.10848208750000 -1.53766680000000 
 S -1.23162166249999 -6.99488608750000 -0.227804799999999 
 S -1.00427266249999 -2.93044708750000 -3.95533480000000 
 S -4.13971066249999 -2.20153608750000 -1.30539380000000 
 S -1.81664166249999 -3.09102308750000 7.809520000000036E-002
