16

 C -2.30826435625000 -6.08604471250000 -2.01809822500000 
 C -1.11183935625000 -6.65705871250000 -1.50706422500000 
 C -2.31886435625000 -2.72901671250000 -2.33738722500000 
 C -1.14711635625000 -3.16229471250000 -1.59506722500000 
 N -0.111185356250002 -6.80539171250000 -2.36368822500000 
 N -2.19686635625000 -5.77178271250000 -3.28829822500000 
 N -2.76506435625000 -6.81236671250000 0.373615775000002 
 N -8.250035625000152E-002 -3.33874671250000 -2.37390722500000 
 N -2.15241235625000 -2.52038571250000 -3.64567422500000 
 N -3.12259635625000 -2.84627171250000 0.120985775000002 
 S -0.737564356250002 -6.30179471250000 -3.75482822500000 
 S -3.60852135625000 -6.14310171250000 -0.906199224999998 
 S -1.15879935625000 -7.28474971250000 0.104299775000002 
 S -0.614226356250001 -3.10533071250000 -3.92830522500000 
 S -3.73133835625000 -2.37845971250000 -1.36867822500000 
 S -1.55033535625000 -3.33680871250000 8.193577500000160E-002
