16

 C -2.28010616562500 -6.44775456250000 -2.46213942500000 
 C -1.06890216562500 -6.73985756250000 -1.70268842500000 
 C -2.57973616562500 -2.69984056250000 -2.49932442500000 
 C -1.36628516562500 -2.95417256250000 -1.75377342500000 
 N -4.091916562499875E-002 -6.88687856250000 -2.53421942500000 
 N -2.15773016562500 -6.44577556250000 -3.80760542500000 
 N -3.07035016562500 -6.43475856250000 -1.206342500000113E-002
 N -0.280327165624998 -3.03072256250000 -2.54153842500000 
 N -2.44112616562500 -2.62131256250000 -3.82342742500000 
 N -3.24245216562500 -2.92349456250000 -1.905425000001015E-003
 S -0.600276165624998 -6.83288756250000 -4.15918942500000 
 S -3.75339616562500 -6.17232456250000 -1.54760942500000 
 S -1.46311916562500 -6.82556856250000 3.857499999893044E-005
 S -0.820613165624998 -2.77746156250000 -4.10906242500000 
 S -3.97054416562500 -2.61117756250000 -1.43758742500000 
 S -1.62270816562500 -3.24366356250000 -5.379342500000117E-002
