16

 C -2.41730713437500 -6.45454418749999 -2.60635270312500 
 C -1.22507213437500 -6.80051618750000 -1.92730870312500 
 C -2.31877713437500 -2.53653918749999 -2.54705870312500 
 C -1.06270913437500 -3.01650018749999 -1.99173470312500 
 N -0.130074134375000 -6.98231118750000 -2.62453470312500 
 N -2.21808313437500 -6.29337318749999 -3.90855270312500 
 N -2.97509513437500 -6.45217718749999 -9.397170312499870E-002
 N -4.793013437500093E-002 -3.07806118750000 -2.86599270312500 
 N -2.26668013437500 -2.28646618749999 -3.85965870312500 
 N -2.82100413437500 -3.18528818749999 -9.027370312499872E-002
 S -0.630127134375001 -6.74721318749999 -4.20407270312500 
 S -3.72475613437500 -6.12952418749999 -1.60705470312500 
 S -1.39691513437500 -6.87601518749999 -0.204128703124999 
 S -0.739536134375001 -2.68004418749999 -4.37395870312500 
 S -3.68328613437500 -2.63744718749999 -1.42245370312500 
 S -1.18965513437500 -3.44187718749999 -0.363043703124999 
