16

 C -2.28300544687501 -6.31530934375001 -2.40529827812500 
 C -1.14601144687501 -6.94927534375000 -1.82903527812500 
 C -2.26475444687501 -2.67569634375000 -2.42684227812500 
 C -1.13723444687501 -3.17088534375000 -1.69009827812500 
 N -0.155416446875005 -7.25035034375001 -2.64908927812500 
 N -2.09214744687501 -6.09614434375001 -3.71488827812500 
 N -2.80700644687501 -6.71083634375000 0.167603721874999 
 N -9.411544687500584E-002 -3.38828734375001 -2.47735627812500 
 N -2.03399044687501 -2.42365734375000 -3.71325427812500 
 N -2.99557044687501 -2.94071934375000 2.780572187499897E-002
 S -0.640652446875006 -6.73976234375001 -4.16787127812500 
 S -3.60651244687501 -6.20862834375001 -1.26919327812500 
 S -1.22390644687501 -7.18150034375001 -9.565427812500094E-002
 S -0.444395446875006 -2.97207134375001 -4.05434827812500 
 S -3.65344744687501 -2.41780634375001 -1.42150227812500 
 S -1.42453744687501 -3.21799734375000 -1.596427812500090E-002
