16

 C -2.50008210000000 -6.81776807812500 -2.40948614687500 
 C -1.20615810000000 -7.14358807812500 -1.93225814687500 
 C -2.59701410000000 -2.85645407812500 -2.44357514687500 
 C -1.39904610000000 -3.40517307812500 -1.77645414687500 
 N -0.297371099999996 -7.17398507812500 -2.87732114687500 
 N -2.58796710000000 -6.62782207812500 -3.73856014687500 
 N -2.58349910000000 -6.96917807812500 0.237536853125000 
 N -0.340703099999995 -3.49645807812500 -2.56448214687500 
 N -2.38654510000000 -2.73360507812500 -3.74639114687500 
 N -3.23223610000000 -3.19981807812500 5.176885312500046E-002
 S -1.02412310000000 -6.86550107812500 -4.30626514687500 
 S -3.60552010000000 -6.79860207812500 -1.05338514687500 
 S -1.06840110000000 -7.36410707812500 -0.221116146875000 
 S -0.826978099999995 -3.09198407812500 -4.14930114687500 
 S -3.89716110000000 -2.58512907812500 -1.33726714687500 
 S -1.69372210000000 -3.68985307812500 -0.111016146875000 
