16

 C -2.37107959375000 -6.53751113125000 -2.48781152500000 
 C -1.23842659375000 -7.01357513125000 -1.74552252500000 
 C -2.34753859375000 -2.87623213125000 -2.53013352500000 
 C -1.19768659375000 -3.38777613125000 -1.85826952500000 
 N -9.437259375000107E-002 -7.19329913125000 -2.41585352500000 
 N -2.09110059375000 -6.40773713125000 -3.79129552500000 
 N -3.15017759375000 -6.82494813125000 -2.973752500000071E-002
 N -7.409659375000111E-002 -3.46604413125000 -2.58858052500000 
 N -2.23097759375000 -2.72893113125000 -3.83322852500000 
 N -2.96363159375000 -3.11460513125000 -9.213552500000066E-002
 S -0.531162593750001 -6.87436913125000 -3.96814952500000 
 S -3.75608559375000 -6.30779313125000 -1.47835052500000 
 S -1.58545259375000 -7.32272113125000 -9.068652500000107E-002
 S -0.660488593750001 -3.10293413125000 -4.17174852500000 
 S -3.68814059375000 -2.67978313125000 -1.48525252500000 
 S -1.40432259375000 -3.66852313125000 -0.217407525000001 
