16

 C -2.44954181875001 -6.42709833750000 -2.11036326562500 
 C -1.23964781875001 -6.90802033750000 -1.52577426562500 
 C -2.29888081875001 -2.63491633750000 -2.41847426562500 
 C -1.10539081875001 -3.13790933750000 -1.88366126562500 
 N -0.162559818750005 -7.05128133750000 -2.30349226562500 
 N -2.28599181875000 -6.11424633750000 -3.39666126562500 
 N -3.10952381875000 -7.18688433750000 0.245182734374999 
 N -0.148419818750005 -3.31028633750000 -2.76037426562500 
 N -2.33624581875001 -2.43608433750000 -3.71547026562500 
 N -2.87746681875000 -3.05136133750000 8.469734374998872E-003
 S -0.680670818750005 -6.53907933750000 -3.81373426562500 
 S -3.85360381875001 -6.70381933750000 -1.13793826562500 
 S -1.43187881875000 -7.39033333750000 0.127879734374999 
 S -0.758689818750005 -2.82255833750000 -4.24164426562500 
 S -3.59777881875001 -2.36555733750000 -1.30446026562500 
 S -1.23858281875000 -3.30434533750000 -0.175813265625001 
