16

 C -2.47996416875000 -6.35384919687500 -2.45477244375000 
 C -1.25213316875000 -6.81331119687500 -1.83022544375000 
 C -2.46732316875000 -2.61750619687500 -2.19665444375000 
 C -1.28783816875000 -3.15758919687500 -1.63109844375000 
 N -0.243441168749998 -7.08794619687500 -2.66754144375000 
 N -2.33533216875000 -6.25581819687500 -3.76177944375000 
 N -3.09713316875000 -6.74603819687500 -7.450444374999909E-002
 N -0.280726168749998 -3.34474019687500 -2.48961444375000 
 N -2.45721116875000 -2.36212619687500 -3.51059244375000 
 N -2.96624416875000 -2.91659019687500 0.382805556250001 
 S -0.810379168749998 -6.67197519687500 -4.14090244375000 
 S -3.72992616875000 -5.93418419687500 -1.38166144375000 
 S -1.47978916875000 -7.15118119687500 -0.148086443749999 
 S -0.929430168749998 -2.85028519687500 -3.92227644375000 
 S -3.75754816875000 -2.26244519687500 -0.963361443749999 
 S -1.35283916875000 -3.39618819687500 9.552255625000083E-002
