16

 C -2.47726813125000 -6.22214318437500 -2.47100600625000 
 C -1.30704613125000 -6.77776518437500 -1.82590000625000 
 C -2.40456913125000 -2.98584618437500 -2.60109200625000 
 C -1.13631213125000 -3.28087318437500 -1.85178900625000 
 N -0.326261131249998 -6.95650418437500 -2.68310300625000 
 N -2.39875213125000 -6.00809918437500 -3.76459800625000 
 N -3.00974113125000 -6.27313718437500 3.470099375000024E-002
 N -7.664313124999733E-002 -3.48371418437500 -2.61301300625000 
 N -2.25222513125000 -2.89427418437500 -3.90517200625000 
 N -2.89336913125000 -3.00138318437500 -3.568500624999982E-002
 S -0.849238131249997 -6.52183518437500 -4.18772000625000 
 S -3.76349013125000 -5.94247018437500 -1.36116700625000 
 S -1.34185813125000 -6.69521518437500 -7.105900624999983E-002
 S -0.631291131249998 -3.18065518437500 -4.19205700625000 
 S -3.72948413125000 -2.92539118437500 -1.48913500625000 
 S -1.28905413125000 -3.41303418437500 -0.133530006250000 
