16

 C -2.32683856250000 -6.22014073437501 -2.42515949062500 
 C -1.18963756250000 -6.73154973437501 -1.66069049062500 
 C -2.42028256250000 -2.30157173437501 -2.36405549062500 
 C -1.24099156250000 -2.92546373437501 -1.85936149062500 
 N -0.188933562500000 -6.98353073437501 -2.49033349062500 
 N -2.16475256250000 -6.15457973437501 -3.74161649062500 
 N -3.06533856250000 -6.30956873437501 8.827350937499956E-002
 N -0.309100562500000 -3.10644173437501 -2.76922049062500 
 N -2.33120956250000 -2.01109573437501 -3.63792449062500 
 N -2.96230756250000 -2.81567573437501 7.223350937499973E-002
 S -0.677446562500000 -6.75876773437501 -4.10250249062500 
 S -3.75305256250000 -5.94884073437501 -1.43954849062500 
 S -1.53186156250000 -6.89346073437501 2.149450937499964E-002
 S -0.817043562500000 -2.47800273437501 -4.20949249062500 
 S -3.73956956250000 -2.30841273437501 -1.27155349062500 
 S -1.37254256250000 -3.27813973437501 -0.196788490625000 
