16

 C -2.58187597187501 -6.37131503125000 -2.23823719062500 
 C -1.36227797187501 -6.84319203125000 -1.73288519062500 
 C -2.50078697187501 -2.91371903125000 -2.44373319062500 
 C -1.18086397187501 -3.24082303125000 -1.86364119062500 
 N -0.394244971875008 -6.98655303125000 -2.64146319062500 
 N -2.56767997187501 -6.14107303125000 -3.56095219062500 
 N -3.06311097187501 -6.75787403125000 0.189129809375000 
 N -0.175265971875008 -3.30982103125000 -2.70422519062500 
 N -2.39585897187501 -2.63619803125000 -3.75597619062500 
 N -2.95480797187501 -3.19530503125000 7.151680937499982E-002
 S -1.02241397187501 -6.55894503125000 -4.08591019062500 
 S -3.88294997187501 -6.18125703125000 -1.10047219062500 
 S -1.47387097187501 -7.19606103125000 -3.718319062500042E-002
 S -0.807299971875008 -2.95943503125000 -4.16172519062500 
 S -3.82943497187501 -2.84621603125000 -1.31992919062500 
 S -1.41539597187501 -3.72858803125000 -0.149526190625000 
