16

 C -2.27763239687500 -6.44785099062500 -2.41949823125000 
 C -1.12409139687500 -7.05432699062500 -1.83265823125000 
 C -2.43379139687500 -2.99531099062500 -2.37391423125000 
 C -1.17136239687500 -3.39816899062500 -1.73132123125000 
 N -0.122189396874997 -7.15657899062500 -2.67623723125000 
 N -2.20802639687500 -6.22333699062500 -3.72947423125000 
 N -2.74106239687500 -6.75311099062500 0.101612768750002 
 N -0.116324396874997 -3.50304499062500 -2.50223023125000 
 N -2.26559739687500 -2.89158099062500 -3.71969523125000 
 N -2.99454839687500 -3.30086599062500 0.126567768750002 
 S -0.592964396874996 -6.57464399062500 -4.14651523125000 
 S -3.58033339687500 -6.24040499062500 -1.26799023125000 
 S -1.26837239687500 -7.40813899062500 -0.176993231249998 
 S -0.663130396874997 -3.18458599062500 -4.07416523125000 
 S -3.73689539687500 -2.80322799062500 -1.26867023125000 
 S -1.34211239687500 -3.63869599062500 7.891768750001527E-003
