16

 C -2.27448134375000 -6.41655819375001 -2.45531997812500 
 C -1.08759234375000 -6.75764019375001 -1.68753997812500 
 C -2.56860734375000 -2.68533319375001 -2.47945197812500 
 C -1.36245134375000 -2.92842519375001 -1.76165597812500 
 N -3.470634374999904E-002 -6.88532419375001 -2.52958597812500 
 N -2.14924134375000 -6.45079419375001 -3.79789097812500 
 N -3.07148834375000 -6.42666019375001 -1.718497812499886E-002
 N -0.298105343749999 -3.04036819375001 -2.55288897812500 
 N -2.43697934375000 -2.62036519375001 -3.77939897812500 
 N -3.23299434375000 -2.89074819375001 -1.716797812499871E-002
 S -0.609564343749999 -6.85909419375001 -4.14396297812500 
 S -3.74263734375000 -6.16488219375000 -1.54928197812500 
 S -1.45832134375000 -6.82725419375001 -1.210697812499872E-002
 S -0.817931343749999 -2.76709119375001 -4.13035997812500 
 S -3.97715034375000 -2.63378819375001 -1.45083097812500 
 S -1.60215734375000 -3.22901719375001 -7.520197812499863E-002
