16

 C -2.26700550625000 -6.45745843125000 -2.48888835312500 
 C -1.15431150625000 -7.11749743125000 -1.83355835312500 
 C -2.45123450625000 -2.81641943125000 -2.36609235312500 
 C -1.25794050625000 -3.31235443125000 -1.75160335312500 
 N -0.166953506249999 -7.47927943125000 -2.64373735312500 
 N -2.09678150625000 -6.37166043125000 -3.78770635312500 
 N -3.01425350625000 -6.88412243125000 -0.125676353125001 
 N -0.210501506249998 -3.55458743125000 -2.49835135312500 
 N -2.31630350625000 -2.74941443125000 -3.68319035312500 
 N -2.96330450625000 -2.98253643125000 0.211419646874999 
 S -0.550177506249998 -6.94631943125000 -4.16501335312500 
 S -3.62179050625000 -6.16579443125000 -1.50378835312500 
 S -1.40238450625000 -7.28146043125000 -0.138495353125001 
 S -0.748492506249998 -3.20181343125000 -4.06127035312500 
 S -3.77846050625000 -2.64549343125000 -1.22042035312500 
 S -1.41011250625000 -3.37967843125000 1.293064687499923E-002
