16

 C -2.35417852187500 -6.39077470312500 -2.25758749375000 
 C -1.11821852187500 -6.84759870312500 -1.67144249375000 
 C -2.47748452187500 -2.74455370312500 -2.54653149375000 
 C -1.17943952187500 -3.11769670312500 -1.90822749375000 
 N -0.120374521874998 -6.99163370312500 -2.52816249375000 
 N -2.27815552187500 -6.02268870312500 -3.56433649375000 
 N -2.94258752187500 -6.84475770312500 0.214414506250001 
 N -0.115658521874998 -3.01181170312500 -2.68718249375000 
 N -2.36713752187500 -2.39821370312500 -3.81253649375000 
 N -2.93996552187500 -3.13627470312500 -6.043549374999868E-002
 S -0.708137521874998 -6.41418470312500 -3.95792349375000 
 S -3.65550352187500 -6.17216170312500 -1.10485249375000 
 S -1.26777352187500 -7.13371270312500 8.603750625000117E-002
 S -0.765451521874998 -2.67641070312500 -4.22950849375000 
 S -3.73744552187500 -2.68797870312500 -1.43880449375000 
 S -1.34695352187500 -3.44265670312500 -0.196851493749999 
