16

 C -2.52606010937500 -6.47980782812500 -2.38209132500000 
 C -1.26578510937500 -6.68386482812500 -1.70123632500000 
 C -2.49987610937500 -2.29495682812500 -2.83521332500000 
 C -1.37090710937500 -2.85232882812500 -2.17003332500000 
 N -0.269134109374995 -6.69788282812500 -2.54450532500000 
 N -2.41339510937500 -6.21954182812500 -3.68636532500000 
 N -3.04637410937500 -6.52244182812500 0.129393674999999 
 N -0.263992109374995 -3.11900182812500 -2.90397132500000 
 N -2.18638610937500 -2.09812082812500 -4.13463832500000 
 N -3.28703410937500 -2.73740782812500 -0.452208325000001 
 S -0.802925109374995 -6.41303382812500 -4.08929932500000 
 S -3.86787210937500 -6.51159982812500 -1.31401132500000 
 S -1.39586310937500 -6.86909282812500 -6.746432500000110E-002
 S -0.616039109374995 -2.48594982812500 -4.36656832500000 
 S -3.99150310937500 -2.09464082812500 -1.89089532500000 
 S -1.69977210937500 -3.18625182812500 -0.437455325000001 
