16

 C -2.27175677812501 -6.07962505000000 -2.27927332187500 
 C -1.10443677812501 -6.74369005000000 -1.76176232187500 
 C -2.71669477812501 -2.45755505000000 -2.73736332187500 
 C -1.47634577812501 -2.80958105000000 -2.09628332187500 
 N -0.135282778125007 -7.03479405000000 -2.63806532187500 
 N -2.22658977812501 -5.84508305000000 -3.59495432187500 
 N -2.68275777812501 -6.39032305000000 0.279771678125000 
 N -0.466844778125008 -3.07498605000000 -2.89507032187500 
 N -2.63967377812501 -2.27149705000000 -4.04406732187500 
 N -3.21770577812501 -2.40833605000000 -0.173553321875000 
 S -0.795310778125008 -6.52276405000000 -4.11986332187500 
 S -3.46531277812501 -5.74594105000000 -1.02144432187500 
 S -1.16924977812501 -7.02673805000000 1.672767812500009E-002
 S -1.13335377812501 -2.75523605000000 -4.44611432187500 
 S -4.01095277812501 -2.16685205000000 -1.59920532187500 
 S -1.63316977812501 -2.82017805000000 -0.332552321875000 
