16

 C -2.14568636562500 -6.19355488437500 -2.12335156250000 
 C -1.03748436562500 -6.78741588437500 -1.50877156250000 
 C -2.39403636562500 -2.64874488437500 -2.61239256250000 
 C -1.15925036562500 -3.04982088437499 -2.02867256250000 
 N 5.809634374998041E-003 -6.95444988437499 -2.32326656250000 
 N -1.97472436562500 -5.92832488437500 -3.39286256250000 
 N -2.82521536562500 -6.56858088437500 0.256395437500000 
 N -0.215738365625001 -3.33484688437500 -2.87787956250000 
 N -2.34758736562500 -2.56416488437500 -3.93281956250000 
 N -3.00548236562500 -3.05774888437500 -0.168954562500000 
 S -0.565450365625001 -6.55802688437500 -3.85415856250000 
 S -3.60328036562500 -6.16914988437500 -1.17728856250000 
 S -1.35161736562500 -7.26525288437499 0.161471437500000 
 S -0.788146365625001 -2.95602588437499 -4.40380056250000 
 S -3.75170036562500 -2.49536788437500 -1.51561556250000 
 S -1.35728736562500 -3.24381188437500 -0.336577562500000 
