16

 C -2.45897134375000 -6.65974663437500 -2.43325170625000 
 C -1.15517234375000 -6.94005063437500 -1.79842670625000 
 C -2.42486034375000 -2.80065063437500 -2.47381870625000 
 C -1.21685434375000 -3.10269963437500 -1.65551970625000 
 N -5.877234375000207E-002 -6.86353163437500 -2.56061270625000 
 N -2.25848634375000 -6.44680563437500 -3.74324270625000 
 N -2.93105834375000 -7.11394163437500 0.112805293750000 
 N -0.127722343750002 -3.22606163437500 -2.38678970625000 
 N -2.20191834375000 -2.72970363437500 -3.78997570625000 
 N -3.12050234375000 -2.67655263437500 5.663629375000001E-002
 S -0.652415343750002 -6.53351863437500 -4.10444770625000 
 S -3.79008734375000 -6.54974463437500 -1.28780670625000 
 S -1.25978634375000 -7.30295163437500 -8.401770625000027E-002
 S -0.531871343750002 -3.06535563437500 -3.96570470625000 
 S -3.82904234375000 -2.40674263437500 -1.49672170625000 
 S -1.54897734375000 -3.20274563437500 5.869029375000001E-002
