16

 C -2.40508314062500 -6.49598800937500 -2.30679450312500 
 C -1.24904814062500 -7.04036200937500 -1.64955650312500 
 C -2.43624414062500 -2.61699000937500 -2.53503450312500 
 C -1.23590114062500 -3.06490200937500 -1.87163750312500 
 N -0.257245140624995 -7.46522900937500 -2.42990450312500 
 N -2.35052214062500 -6.63688600937500 -3.65007450312500 
 N -2.95628814062500 -6.53989700937500 0.168207496875001 
 N -0.105808140624996 -3.06432000937500 -2.59908750312500 
 N -2.27680714062500 -2.27643200937500 -3.80250250312500 
 N -3.06636014062500 -2.82502300937500 7.179496875000968E-003
 S -0.859825140624996 -7.21835200937500 -3.97448350312500 
 S -3.81325714062500 -6.24494600937500 -1.25933850312500 
 S -1.50927114062500 -7.30033400937500 0.106807496875001 
 S -0.684695140624996 -2.62928000937500 -4.09621250312500 
 S -3.76298714062500 -2.25621700937500 -1.39568350312500 
 S -1.50563814062500 -3.35881700937500 -0.167280503124999 
