16

 C -2.57470426249999 -6.31291079062500 -2.52417702500000 
 C -1.34670926249999 -6.74286579062500 -1.85714102500000 
 C -2.77741726249999 -2.69027179062500 -2.55290602500000 
 C -1.54279326249999 -3.14599979062500 -1.95868302500000 
 N -0.310850262499992 -6.78161479062500 -2.70189202500000 
 N -2.44740426249999 -6.02695079062500 -3.85179102500000 
 N -3.20609926249999 -6.69730279062500 -2.474202499999878E-002
 N -0.480408262499992 -3.27544479062500 -2.69597102500000 
 N -2.61111526249999 -2.41706679062500 -3.82581702500000 
 N -3.31508626249999 -3.03248879062500 -4.117802499999890E-002
 S -0.911507262499992 -6.45192879062500 -4.21840202500000 
 S -3.96910826249999 -6.30989979062500 -1.48657402500000 
 S -1.56134926249999 -6.89032879062500 -0.103158024999999 
 S -1.08437626249999 -2.72795279062500 -4.27111102500000 
 S -4.04047526249999 -2.46655579062500 -1.40278102500000 
 S -1.70084526249999 -3.38120479062500 -0.223139024999999 
