16

 C -2.52773234375000 -6.69539198125000 -2.08431126562500 
 C -1.27672334375000 -7.19490198125000 -1.63985826562500 
 C -2.42291234375000 -2.68775498125000 -2.44466926562500 
 C -1.26879334375000 -3.24925698125000 -1.77035626562500 
 N -0.351815343750001 -7.29952798125000 -2.61624626562500 
 N -2.53647134375000 -6.28063198125000 -3.33931026562500 
 N -2.79394134375000 -6.93166298125000 0.401140734375001 
 N -0.306973343750001 -3.55776798125000 -2.61466726562500 
 N -2.33295234375000 -2.67523698125000 -3.77182526562500 
 N -2.98962834375000 -2.97065098125000 4.119873437500088E-002
 S -1.10145034375000 -6.71934798125000 -3.97582826562500 
 S -3.77066034375000 -6.38395598125000 -0.915920265624999 
 S -1.26884434375000 -7.58854798125000 5.148673437500073E-002
 S -0.769015343750001 -3.16450998125000 -4.14575626562500 
 S -3.69592034375000 -2.38383798125000 -1.35945226562500 
 S -1.48007534375000 -3.58532398125000 -0.113549265624999 
