16

 C -2.50638670000001 -6.59903429687500 -2.53317564062500 
 C -1.19179570000001 -6.82147629687500 -1.90273964062500 
 C -2.35622670000001 -3.18033229687500 -2.18941664062500 
 C -1.11083070000001 -3.63317629687500 -1.54571964062500 
 N -0.132876700000008 -6.92966329687500 -2.68703464062500 
 N -2.38990270000001 -6.54287929687500 -3.84674864062500 
 N -2.98706770000001 -6.58433329687500 -1.315064062499949E-002
 N -0.117866700000008 -3.89811529687500 -2.37995564062500 
 N -2.23401570000001 -2.91034729687500 -3.50174964062500 
 N -2.87832970000001 -3.53238929687500 0.335858359375001 
 S -0.781127700000008 -6.83369129687500 -4.22324864062500 
 S -3.82195170000001 -6.39274529687500 -1.40063964062500 
 S -1.35812370000001 -6.77716029687500 -0.153516640624999 
 S -0.644760700000008 -3.31747229687500 -3.83276964062500 
 S -3.72483270000001 -3.26368429687500 -1.11055464062500 
 S -1.24151670000001 -3.75344829687500 0.226710359375001 
