16

 C -2.15257108125000 -6.01209208750000 -2.61351090937500 
 C -1.06276808125000 -6.62919508750000 -1.85884590937500 
 C -2.40724008125000 -2.82013308750000 -2.51985090937500 
 C -1.19710808125000 -3.08665008750000 -1.86373990937500 
 N 2.645991874999698E-002 -6.92923108750000 -2.57543990937500 
 N -1.91866908125000 -6.00671508750000 -3.92427890937500 
 N -3.02446308125000 -6.28163108750000 -0.167625909375000 
 N -0.147197081250003 -3.20392308750000 -2.66472090937500 
 N -2.31138608125000 -2.70613308750000 -3.83717190937500 
 N -3.01438408125000 -2.97615908750000 -6.043190937499965E-002
 S -0.349202081250003 -6.55051408750000 -4.20297490937500 
 S -3.64671208125000 -5.83266708750000 -1.62994190937500 
 S -1.46022008125000 -6.83579308750000 -0.192399909375000 
 S -0.724543081250003 -3.03252208750000 -4.25440890937500 
 S -3.75633208125000 -2.73382808750000 -1.49239990937500 
 S -1.38542608125000 -3.30636708750000 -0.110002909375000 
