16

 C -2.54857442500000 -6.53540321875000 -2.43327521562500 
 C -1.31589342500000 -6.85722521875000 -1.71594121562500 
 C -2.64761642500000 -2.85852121875000 -2.53641521562500 
 C -1.46630442500000 -3.26046421875000 -1.88776421562500 
 N -0.226295425000004 -6.95357321875000 -2.48418321562500 
 N -2.41993742500000 -6.56834221875000 -3.75866521562500 
 N -3.07226342500000 -6.43526421875000 8.106478437500053E-002
 N -0.471753425000005 -3.47526421875000 -2.72373521562500 
 N -2.61829442500000 -2.70921221875000 -3.87082521562500 
 N -3.10608642500000 -2.89314021875000 5.817578437500059E-002
 S -0.754261425000005 -6.84386921875000 -4.04887221562500 
 S -3.86571242500000 -6.20661521875000 -1.37624121562500 
 S -1.45302642500000 -6.88626921875000 3.833678437500043E-002
 S -0.968719425000004 -2.98632921875000 -4.24727821562500 
 S -3.89909942500000 -2.45364521875000 -1.36274621562500 
 S -1.53397742500000 -3.39489421875000 -0.118531215625000 
