16

 C -2.49137769375000 -6.27935381875000 -2.29533158125000 
 C -1.22157369375000 -6.64577681875000 -1.66875258125000 
 C -2.43069769375000 -2.52939081875000 -2.89208358125000 
 C -1.21560969375000 -2.76140081875000 -2.17699158125000 
 N -0.210519693750000 -6.73253181875000 -2.55361058125000 
 N -2.41078369375000 -6.05222181875000 -3.60197158125000 
 N -3.00083469375000 -6.89905581875000 0.170842418750001 
 N -0.176322693750000 -2.85959081875000 -2.99471458125000 
 N -2.35720669375000 -2.42358081875000 -4.22992358125000 
 N -3.13687369375000 -2.85519381875000 -0.412188581249999 
 S -0.877612693750001 -6.39790181875000 -4.03387658125000 
 S -3.85785969375000 -6.39609581875000 -1.28151458125000 
 S -1.37788969375000 -6.94324181875000 3.918441875000056E-002
 S -0.744418693750000 -2.57149581875000 -4.55645058125000 
 S -3.86620969375000 -2.53214781875000 -1.88953258125000 
 S -1.43891869375000 -3.09880781875000 -0.443012581249999 
