16

 C -2.29340886249999 -6.37803472187500 -2.47283175937500 
 C -1.12304986249999 -6.75672672187500 -1.74902275937500 
 C -2.57543186249999 -2.67069272187500 -2.43953475937500 
 C -1.33479486249999 -2.91436972187500 -1.78586175937500 
 N -2.379486249999196E-002 -6.91564972187500 -2.50982975937500 
 N -2.15685986249999 -6.45367772187500 -3.76625275937500 
 N -3.07284486249999 -6.41397172187500 -3.826675937500013E-002
 N -0.305536862499992 -3.05114972187500 -2.58036675937500 
 N -2.43377386249999 -2.59829172187500 -3.74615275937500 
 N -3.20703686249999 -2.84941372187500 -2.601475937499997E-002
 S -0.614525862499993 -6.89509372187500 -4.09507075937500 
 S -3.71546386249999 -6.15177172187500 -1.54168275937500 
 S -1.44228186249999 -6.83106672187500 -2.633575937499999E-002
 S -0.819860862499993 -2.75842872187500 -4.15164175937500 
 S -3.98963186249999 -2.66872372187500 -1.47876475937500 
 S -1.57097186249999 -3.19887672187500 -0.111407759375000 
