16

 C -2.23575788437500 -6.50155844374999 -2.47584523750000 
 C -1.10423688437499 -7.12665544374999 -1.84890023750000 
 C -2.34591388437499 -2.99156044374999 -2.30621223750000 
 C -1.17948888437499 -3.51695544374999 -1.64966323750000 
 N -4.889888437499490E-002 -7.22714544374999 -2.66258023750000 
 N -2.06449488437500 -6.21819644374999 -3.76103623750000 
 N -2.86401588437499 -6.78948344374999 6.740762500000441E-003
 N -0.168933884374995 -3.67759944374999 -2.45464523750000 
 N -2.28597888437499 -2.77937944374999 -3.59715823750000 
 N -2.92855288437500 -2.95255444374999 0.159780762500001 
 S -0.544764884374995 -6.82406744374999 -4.20716723750000 
 S -3.57079188437500 -6.20717144374999 -1.40122123750000 
 S -1.34978288437499 -7.38969844374999 -0.138320237500000 
 S -0.754166884374995 -3.17276144374999 -4.02504923750000 
 S -3.74394788437499 -2.76135744374999 -1.28532223750000 
 S -1.34332288437500 -3.52424244374999 8.720676250000059E-002
