16

 C -2.38221135000000 -6.44370812500001 -2.33383928750000 
 C -1.12352335000000 -6.86339312500001 -1.79211428750000 
 C -2.54946835000000 -2.76972712500001 -2.41793628750000 
 C -1.37828535000000 -3.26747512500001 -1.68199428750000 
 N -9.752834999999838E-002 -6.91617412500000 -2.63352628750000 
 N -2.36382935000000 -6.18130112500001 -3.66260028750000 
 N -2.74796035000000 -6.81925312500000 0.210642712500004 
 N -0.343325349999998 -3.44811312500001 -2.42323328750000 
 N -2.36873835000000 -2.60603212500000 -3.70682528750000 
 N -3.22151635000000 -2.95756312500001 7.661712500003581E-003
 S -0.809769349999998 -6.53379512500000 -4.12153428750000 
 S -3.66355235000000 -6.43389012500000 -1.08575628750000 
 S -1.11818835000000 -7.16648212500001 -0.101033287499996 
 S -0.843612349999998 -3.01785912500001 -4.06439828750000 
 S -3.90061035000000 -2.39942112500001 -1.40118928750000 
 S -1.60839935000000 -3.42534012500001 2.097971250000374E-002
