16

 C -2.45601161562500 -6.44644611250000 -2.12822773437500 
 C -1.23996261562500 -6.92060411250000 -1.47115173437500 
 C -2.33116561562500 -2.55086411250000 -2.42612773437500 
 C -1.08613161562500 -3.16692011250000 -1.87189973437500 
 N -0.224962615625003 -7.03748911250000 -2.30115573437500 
 N -2.29501861562500 -6.08445911250000 -3.38553773437500 
 N -3.13837961562500 -7.17347211250000 0.258341265625000 
 N -0.106329615625003 -3.38398411250000 -2.78481773437500 
 N -2.29452361562500 -2.41135011250000 -3.75224273437500 
 N -2.85269861562500 -3.04956211250000 2.574026562499987E-002
 S -0.719769615625003 -6.53991111250000 -3.80067473437500 
 S -3.87199461562500 -6.71153711250000 -1.15001673437500 
 S -1.48151561562500 -7.40368211250000 0.132217265625000 
 S -0.759937615625003 -2.81213411250000 -4.22227173437500 
 S -3.58953061562500 -2.36792911250000 -1.30080273437500 
 S -1.24812161562500 -3.33511711250000 -0.177599734375000 
