16

 C -2.76215758750000 -6.38726716875000 -2.47901762187500 
 C -1.60237558750000 -6.84969316875000 -1.77428062187500 
 C -2.21646258750000 -2.88042216875000 -2.23253862187500 
 C -1.01579458750000 -3.27616616875000 -1.65190262187500 
 N -0.562529587500001 -7.02257416875000 -2.57835962187500 
 N -2.59150958750000 -6.07935816875000 -3.76046562187500 
 N -3.42867458750000 -6.49618716875000 2.409437812500093E-002
 N 1.042241249999876E-002 -3.43626016875000 -2.47755962187500 
 N -2.16483658750000 -2.71469516875000 -3.54039662187500 
 N -2.72569858750000 -3.22169616875000 0.243537378125001 
 S -1.04093558750000 -6.49007516875000 -4.07883262187500 
 S -4.10800158750000 -6.05752116875000 -1.42713662187500 
 S -1.87141258750000 -7.01727216875000 -8.258162187499885E-002
 S -0.584816587500001 -2.99814216875000 -3.97386462187500 
 S -3.55911658750000 -2.96437916875000 -1.15493162187500 
 S -1.12678758750000 -3.54400716875000 8.036037812500085E-002
