16

 C -2.44124724062500 -6.46972657499999 -2.60288490937500 
 C -1.17017024062500 -6.95822757500000 -2.00551490937500 
 C -2.31344624062500 -2.58077457499999 -2.49961390937500 
 C -1.14550024062500 -3.24642957499999 -2.03029290937500 
 N -0.223709240624999 -7.27083457499999 -2.87623690937500 
 N -2.33969224062500 -6.35832657499999 -3.93065590937500 
 N -2.91335624062500 -6.50348657499999 -4.023590937500199E-002
 N -0.139846240624999 -3.20311857499999 -2.92816590937500 
 N -2.25295524062500 -2.06597157499999 -3.74152990937500 
 N -2.65716724062500 -3.16412857500000 2.440090624998170E-003
 S -0.774705240625000 -6.83173457500000 -4.41751590937500 
 S -3.75911424062500 -6.27993057499999 -1.45383790937500 
 S -1.36531424062500 -7.23819457499999 -0.284123909375002 
 S -0.759581240625000 -2.43983657499999 -4.23727690937500 
 S -3.53127724062500 -2.52204757499999 -1.26912490937500 
 S -1.09274024062500 -3.63088557499999 -0.351798909375002 
