16

 C -2.54040004062500 -6.51508401875000 -2.32336315625000 
 C -1.32683304062500 -6.89732801875000 -1.66767615625000 
 C -2.17338504062500 -3.03470301875000 -2.33708015625000 
 C -1.05246604062500 -3.53109801875000 -1.70563815625000 
 N -0.372421040624997 -7.13587801875000 -2.55516315625000 
 N -2.51392104062500 -6.44815401875000 -3.65485215625000 
 N -3.01303804062500 -6.51297501875000 0.159100843750001 
 N 6.069595937500250E-002 -3.57810001875000 -2.42339815625000 
 N -1.91468504062500 -2.63666701875000 -3.57145915625000 
 N -2.84820504062500 -3.32272101875000 4.896184375000123E-002
 S -0.970680040624996 -6.79896301875000 -4.06379115625000 
 S -3.86437004062500 -6.25609801875000 -1.25883415625000 
 S -1.40672004062500 -7.05230201875000 -9.057156249998810E-003
 S -0.351655040624997 -3.02701301875000 -3.97915715625000 
 S -3.55537204062500 -2.79787201875000 -1.34130115625000 
 S -1.35099404062500 -3.97071001875000 -4.808915624999877E-002
