16

 C -2.57467096249999 -6.23640483750000 -2.41706879062500 
 C -1.45530796249999 -6.81182783750000 -1.71718479062500 
 C -2.48138896250000 -3.10130683750000 -2.34268979062500 
 C -1.19432096249999 -3.21384683750000 -1.74791379062500 
 N -0.492390962499995 -7.27548083750000 -2.51036279062500 
 N -2.48850796249999 -6.20026883750000 -3.74989879062500 
 N -3.21715196249999 -6.35599983750000 6.835720937500134E-002
 N -0.180576962499995 -3.43931983750000 -2.60303779062500 
 N -2.42757196249999 -2.97143183750000 -3.65400979062500 
 N -2.98034296249999 -3.08457283750000 0.163205209375001 
 S -1.09165796249999 -7.07810283750000 -4.05755979062500 
 S -3.92465596249999 -5.92370783750000 -1.36936179062500 
 S -1.62283496250000 -6.79705983750000 9.350209375001528E-003
 S -0.836300962499995 -3.19083683750000 -4.09125079062500 
 S -3.85453196249999 -3.20853783750000 -1.22126579062500 
 S -1.25817096250000 -3.25419283750000 3.412209375001529E-003
