16

 C -2.44227794375001 -6.45315453750000 -2.32131478125000 
 C -1.17298094375001 -6.83111553750000 -1.70799678125000 
 C -2.52331094375000 -2.78653353750000 -2.37549678125000 
 C -1.36437894375000 -3.26493853750000 -1.68637978125000 
 N -0.222093943750004 -6.97271653750000 -2.60786078125000 
 N -2.39956594375001 -6.32766553750000 -3.62658978125000 
 N -2.93049294375000 -6.89909253750000 0.186416218750001 
 N -0.283223943750005 -3.36613953750000 -2.47425678125000 
 N -2.40015794375000 -2.76131153750000 -3.70379778125000 
 N -3.11502994375001 -2.91762353750000 0.197261218750001 
 S -0.838979943750005 -6.64258953750000 -4.10791078125000 
 S -3.74647994375001 -6.49318053750000 -1.18116678125000 
 S -1.25966694375000 -7.20051153750000 -1.864978124999928E-002
 S -0.818926943750005 -3.08226953750000 -4.07246078125000 
 S -3.83250694375000 -2.46624653750000 -1.25959978125000 
 S -1.57720494375000 -3.48384753750000 -3.738278124999939E-002
