16

 C -2.40786247812500 -6.66124798437500 -2.39795833750000 
 C -1.18537447812500 -6.94233498437499 -1.73935133750000 
 C -2.40705647812500 -2.84142798437500 -2.43142333750000 
 C -1.23225447812500 -3.07084498437499 -1.66431033750000 
 N -0.123698478124997 -6.91942598437500 -2.51893233750000 
 N -2.31960147812500 -6.44883498437500 -3.70239033750000 
 N -2.90413447812500 -7.11303098437500 7.843566250000178E-002
 N -0.132002478124997 -3.25604998437499 -2.39017233750000 
 N -2.15706147812500 -2.76061698437499 -3.72267733750000 
 N -3.10780847812500 -2.71563898437500 3.198966250000179E-002
 S -0.649683478124997 -6.55370898437500 -4.05680933750000 
 S -3.73430647812500 -6.57543998437500 -1.25227733750000 
 S -1.25957447812500 -7.29928898437499 -6.188033749999811E-002
 S -0.538186478124997 -3.06092998437499 -3.95658433750000 
 S -3.78322447812500 -2.45481398437500 -1.51644433750000 
 S -1.50540947812500 -3.18985498437500 -7.069337499998163E-003
