16

 C -2.56325171250000 -6.42154888437500 -2.26543163437500 
 C -1.34383471250000 -6.90844088437500 -1.66023963437500 
 C -2.42961071250001 -2.92872688437500 -2.21497563437500 
 C -1.19085471250001 -3.36315788437500 -1.58582963437500 
 N -0.328354712500005 -7.09276688437500 -2.48010663437500 
 N -2.48443571250001 -6.27730088437500 -3.56290563437500 
 N -3.12001371250000 -6.75265488437500 0.144254365625000 
 N -0.173397712500005 -3.42369188437500 -2.44264263437500 
 N -2.35512271250001 -2.66602188437500 -3.53611163437500 
 N -2.84809871250001 -2.89549288437500 0.341006365625000 
 S -0.917158712500005 -6.71423688437500 -3.98970763437500 
 S -3.95663371250000 -6.37324888437500 -1.22469863437500 
 S -1.45249471250001 -7.16045288437500 -6.663634374999727E-003
 S -0.857429712500005 -3.06963088437500 -3.95080863437500 
 S -3.64630071250000 -2.57592388437500 -1.05153563437500 
 S -1.27192271250000 -3.43644188437500 0.164189365625000 
