16

 C -2.53664037499999 -6.69998004687500 -2.36152752500000 
 C -1.37237137499999 -7.27567904687500 -1.67906252500000 
 C -2.49721037499999 -2.44911704687500 -2.47752952500000 
 C -1.29633737499999 -3.01902204687500 -1.77769352500000 
 N -0.328907374999995 -7.58057804687500 -2.46066652500000 
 N -2.32871337499999 -6.62682104687500 -3.69200952500000 
 N -3.06696637499999 -6.53430404687500 0.105828475000001 
 N -0.314146374999995 -3.30466604687500 -2.62535752500000 
 N -2.38335837499999 -2.29334404687500 -3.79531652500000 
 N -3.17907937499999 -3.05911804687500 -2.372652499999939E-002
 S -0.800821374999995 -7.13969404687500 -4.00325752500000 
 S -3.79593437499999 -6.14962604687500 -1.30859252500000 
 S -1.55293737499999 -7.22937204687500 9.845347500000057E-002
 S -0.853104374999995 -2.88870804687500 -4.14561852500000 
 S -3.81892337499999 -2.20844904687500 -1.33482052500000 
 S -1.55802537499999 -3.37516804687500 -3.344052499999939E-002
