16

 C -2.54777507499999 -6.20789455625000 -2.42372871250000 
 C -1.36196707499999 -6.84306455625000 -1.87499271250000 
 C -2.49633207499999 -2.44371755625000 -2.56536471250000 
 C -1.22517607499999 -2.83610555625000 -1.94237171250000 
 N -0.441280074999989 -7.15637155625000 -2.75485171250000 
 N -2.46290607499999 -6.06324555625000 -3.74345671250000 
 N -2.89721107499999 -6.29744755625000 0.101481287499999 
 N -0.311192074999989 -3.21497755625000 -2.81465371250000 
 N -2.44185907499999 -2.39682255625000 -3.88260471250000 
 N -3.05974307499999 -2.56298255625000 -0.106245712500001 
 S -0.946128074999990 -6.61797655625000 -4.21843071250000 
 S -3.73559007499999 -5.81725155625000 -1.25005071250000 
 S -1.46041307499999 -7.09823455625000 -0.185193712500001 
 S -0.912615074999990 -2.93859555625000 -4.27000971250000 
 S -3.81523407499999 -2.03930055625000 -1.52664571250000 
 S -1.43255107499999 -2.99480255625000 -0.170411712500001 
