16

 C -2.25181024062500 -6.48765419062500 -2.26863076250000 
 C -1.04550124062500 -7.14373819062500 -1.76824276250000 
 C -2.26062824062500 -2.69401419062500 -2.40004076250000 
 C -1.07211624062500 -3.13593419062500 -1.71775876250000 
 N -0.105844240625005 -7.36494519062500 -2.67499176250000 
 N -2.14873624062500 -6.27972319062500 -3.56890576250000 
 N -2.57558024062500 -6.56387619062500 0.222262237500001 
 N -7.290624062500406E-002 -3.36943619062500 -2.54703676250000 
 N -2.09108624062500 -2.45652119062500 -3.67682676250000 
 N -2.90418224062500 -2.91600919062500 -2.617576249999920E-002
 S -0.715717240625004 -6.75197119062500 -4.12293176250000 
 S -3.46653824062500 -6.05340419062500 -1.13756176250000 
 S -1.13344424062500 -7.37232719062500 -2.382976249999924E-002
 S -0.476799240625004 -2.82883319062500 -4.05822176250000 
 S -3.67070624062500 -2.37355119062500 -1.46293576250000 
 S -1.37253224062500 -3.49446119062500 -5.104976249999926E-002
