16

 C -2.48925594374999 -6.57313287812500 -2.15332195625000 
 C -1.27536894374999 -7.10485587812500 -1.69463895625000 
 C -2.49613094374999 -2.83294387812500 -2.44827395625000 
 C -1.29917794374999 -3.36048987812500 -1.77821195625000 
 N -0.299747943749994 -7.17008787812500 -2.62482095625000 
 N -2.50709594374999 -6.30738987812500 -3.46396495625000 
 N -2.84164294374999 -7.05589587812500 0.361942043749999 
 N -0.260600943749994 -3.52880687812500 -2.57848895625000 
 N -2.31192094374999 -2.68643487812500 -3.76275995625000 
 N -3.19723794374999 -3.11455787812500 -4.757956250000639E-003
 S -0.969394943749994 -6.56694387812500 -4.02921595625000 
 S -3.61500594374999 -6.37976287812500 -0.881562956250001 
 S -1.29110194374999 -7.46108987812500 5.053804374999937E-002
 S -0.790802943749994 -3.17151587812500 -4.14277395625000 
 S -3.76503894374999 -2.29573387812500 -1.37797995625000 
 S -1.61726594374999 -3.59798887812500 -0.105966956250001 
