16

 C -2.30905609687501 -6.28783305625000 -2.37003941875000 
 C -1.11179409687501 -6.89256805625000 -1.71192241875000 
 C -2.62990609687501 -2.74217805625000 -2.62503941875000 
 C -1.38326209687501 -3.02117305625000 -1.95498441875000 
 N -0.133781096875010 -7.20940105625000 -2.56674241875000 
 N -2.22217409687501 -6.26399105625000 -3.70165441875000 
 N -2.74431009687501 -6.16478505625000 0.131058581250002 
 N -0.334900096875010 -3.07940405625000 -2.75591641875000 
 N -2.53084709687501 -2.63862105625000 -3.95870041875000 
 N -3.14477109687501 -2.84347105625000 -9.010041874999808E-002
 S -0.668246096875010 -6.77232605625000 -4.05653241875000 
 S -3.61341009687501 -6.04968005625000 -1.33114541875000 
 S -1.24540809687501 -6.96239205625000 4.079858125000202E-002
 S -0.934087096875010 -2.99898305625000 -4.27673041875000 
 S -3.89385709687501 -2.39629405625000 -1.51274541875000 
 S -1.53902009687501 -3.18302205625000 -0.198631418749998 
