16

 C -2.46641102187499 -6.13979869062500 -2.44992949062500 
 C -1.25970602187499 -6.74526369062500 -1.86352549062500 
 C -2.55495402187499 -2.50141869062500 -2.42862349062500 
 C -1.43443002187499 -3.09184269062500 -1.74279749062500 
 N -0.259300021874989 -7.00494169062500 -2.66997049062500 
 N -2.33242802187499 -5.92831769062500 -3.73184949062500 
 N -2.82061502187499 -6.45090369062500 0.145407509374999 
 N -0.390680021874990 -3.36668169062500 -2.54454449062500 
 N -2.38157102187499 -2.30849069062500 -3.75116349062500 
 N -3.04504502187499 -2.39649869062500 6.933150937499888E-002
 S -0.742633021874989 -6.42250369062500 -4.11669749062500 
 S -3.76826202187499 -6.10084469062500 -1.25478049062500 
 S -1.31831602187499 -7.09002969062500 -0.118293490625001 
 S -0.898738021874990 -2.99250269062500 -4.04911149062500 
 S -3.79881602187499 -2.02163169062500 -1.34171149062500 
 S -1.59999602187499 -3.27784069062500 -4.832490625001240E-003
