16

 C -2.53951865625000 -6.27951871250001 -2.49364573125000 
 C -1.39739965625000 -6.88290571250001 -1.86535473125000 
 C -2.44864565625000 -2.59205471250001 -2.21369473125000 
 C -1.33936565625000 -3.33084971250001 -1.67307373125000 
 N -0.442217656249999 -7.15002571250001 -2.74980573125000 
 N -2.38813465625000 -5.98878371250001 -3.79761973125000 
 N -3.06421465625000 -6.60301771250001 6.360326875000011E-002
 N -0.376306656249998 -3.70972571250001 -2.53301173125000 
 N -2.32989665625000 -2.31402571250001 -3.51155773125000 
 N -2.96281365625000 -2.73396571250001 0.336949268750000 
 S -0.936745656249999 -6.65513871250001 -4.24399073125000 
 S -3.78791565625000 -6.01270971250001 -1.27756173125000 
 S -1.57830465625000 -7.27433271250001 -0.200808731250000 
 S -0.905896656249999 -2.99305471250001 -3.92312873125000 
 S -3.76989665625000 -2.40362871250001 -1.08390073125000 
 S -1.47523865625000 -3.58011371250001 9.065726875000024E-002
