16

 C -2.47011134375001 -6.39712538125000 -2.43586437500000 
 C -1.29480634375001 -6.94109738125000 -1.80049237500000 
 C -2.33049434375001 -2.88780638125000 -2.34716637500000 
 C -1.02916934375001 -3.30723238125000 -1.76333537500000 
 N -0.237633343750007 -7.14016438125000 -2.58374237500000 
 N -2.32307034375001 -6.17803038125000 -3.74627237500000 
 N -3.03590634375001 -6.72819038125000 8.585062499999929E-002
 N -3.638534375000635E-002 -3.43968238125000 -2.64818937500000 
 N -2.20891034375001 -2.70478538125000 -3.64954337500000 
 N -2.73761934375001 -2.90087038125000 0.157131624999999 
 S -0.733576343750006 -6.59424238125000 -4.07211237500000 
 S -3.74978734375001 -6.08071738125000 -1.29030237500000 
 S -1.47070634375001 -7.20303038125000 -0.125095375000001 
 S -0.704612343750006 -3.19991238125000 -4.16322237500000 
 S -3.61545634375001 -2.58400138125000 -1.25002737500000 
 S -1.17939034375001 -3.55307738125000 -5.681237500000069E-002
