16

 C -2.66485966562500 -6.38122204687500 -2.48676465937500 
 C -1.35188966562500 -6.81910204687500 -2.09288765937500 
 C -2.70635266562500 -3.03346804687500 -2.32721365937500 
 C -1.54101566562500 -3.46366304687500 -1.55727365937500 
 N -0.448576665624996 -6.90899904687500 -3.03251465937500 
 N -2.66806366562500 -6.15887804687500 -3.78393965937500 
 N -2.77645266562500 -6.61281204687500 1.925534062500089E-002
 N -0.526635665624997 -3.76374904687500 -2.39880265937500 
 N -2.49285866562500 -2.86454504687500 -3.63521865937500 
 N -3.35261066562500 -3.19171404687500 0.145617340625001 
 S -1.19354566562500 -6.61583204687500 -4.48177465937500 
 S -3.83049566562500 -6.21478404687500 -1.29672865937500 
 S -1.27418866562500 -7.16067904687500 -0.359356659374999 
 S -0.882492665624996 -3.18128004687500 -3.88157465937500 
 S -4.03410066562500 -2.69653704687500 -1.32116965937500 
 S -1.71450466562500 -3.34291004687500 0.132683340625001 
