16

 C -2.48631892500000 -6.63011065312500 -2.48570668750000 
 C -1.22065192500000 -6.86167765312500 -1.83222568750000 
 C -2.32926892500000 -3.17423265312500 -2.18673768750000 
 C -1.12390292500000 -3.68721065312500 -1.53474668750000 
 N -0.276012924999997 -7.03965565312500 -2.73353268750000 
 N -2.45643492500000 -6.61079065312500 -3.80946868750000 
 N -3.07252192500000 -6.62528565312500 8.126031250000088E-002
 N -0.106441924999998 -3.83086665312500 -2.34383368750000 
 N -2.10003992500000 -2.90995665312500 -3.46202068750000 
 N -2.93371292500000 -3.44899165312500 0.279114312500001 
 S -0.893924924999998 -6.86486465312500 -4.30175968750000 
 S -3.86546892500000 -6.44259665312500 -1.39359768750000 
 S -1.41045992500000 -6.83710465312500 -6.442168749999921E-002
 S -0.538347924999997 -3.28620565312500 -3.86821968750000 
 S -3.66363592500000 -3.12789565312500 -1.13979468750000 
 S -1.31350492500000 -3.79867765312500 0.164555312500001 
