16

 C -2.35919379375000 -6.29253265312500 -2.30001100000000 
 C -1.19963079375000 -6.77745665312500 -1.62038900000000 
 C -2.30331679375000 -2.46673565312500 -2.11115900000000 
 C -1.14186479375000 -3.19811465312500 -1.62694500000000 
 N -0.160205793750001 -7.07868965312500 -2.40318900000000 
 N -2.19579079375000 -6.26334365312500 -3.62602800000000 
 N -3.03267979375000 -6.62654465312500 0.138648000000001 
 N -0.171205793750001 -3.29776665312500 -2.52755400000000 
 N -2.13565579375000 -1.93994265312500 -3.32081300000000 
 N -2.85123279375000 -3.42619765312500 0.184473000000001 
 S -0.634648793750001 -6.67812765312500 -3.92557400000000 
 S -3.74465179375000 -6.11544165312500 -1.28547200000000 
 S -1.41033979375000 -7.02257365312500 9.332600000000069E-002
 S -0.683749793750001 -2.39719265312500 -3.88907100000000 
 S -3.62000079375000 -2.49676365312500 -0.960964999999999 
 S -1.24548479375000 -3.81544865312500 -1.904899999999943E-002
