16

 C -2.41901051875001 -6.34230032187500 -2.32773645937500 
 C -1.29253251875001 -6.92244132187500 -1.67003345937500 
 C -2.38781251875001 -2.22436432187500 -2.51330245937500 
 C -1.22084451875001 -2.79351632187500 -1.88369145937500 
 N -0.262759518750007 -7.04282132187500 -2.48013745937500 
 N -2.29840651875001 -6.05356132187500 -3.61882545937500 
 N -3.18222551875001 -6.65768832187500 0.148393540625001 
 N -0.136425518750007 -3.05222132187500 -2.61429345937500 
 N -2.24489651875001 -2.24096532187500 -3.87528045937500 
 N -2.90726351875001 -2.43521632187500 9.595406250006988E-004
 S -0.784090518750007 -6.58177032187500 -3.97557245937500 
 S -3.76718251875001 -5.95687132187500 -1.26596845937500 
 S -1.58700551875001 -7.22988732187500 6.868654062500057E-002
 S -0.701982518750008 -2.70811132187500 -4.21561745937500 
 S -3.58554251875001 -1.83479032187500 -1.37778845937500 
 S -1.37650051875001 -3.07508232187500 -0.198578459374999 
