16

 C -2.23048101562500 -6.32976103437500 -2.37117645625000 
 C -1.04342201562500 -6.87108103437500 -1.72769445625000 
 C -2.83893601562500 -2.53007603437500 -2.53472345625000 
 C -1.59356101562500 -2.92013003437500 -1.93496445625000 
 N 7.939843750008890E-004 -7.01907603437500 -2.56260345625000 
 N -2.04617801562500 -6.13013003437500 -3.67307445625000 
 N -2.80304301562500 -6.66617003437500 0.112527543750002 
 N -0.552415015624999 -2.85303303437500 -2.77462245625000 
 N -2.79707501562500 -2.31274103437500 -3.82124745625000 
 N -3.34715001562500 -2.82783103437500 -1.770145624999842E-002
 S -0.452597015624999 -6.50933003437500 -4.04431345625000 
 S -3.53583401562500 -6.16254303437500 -1.31548745625000 
 S -1.19980601562500 -7.09618903437500 -5.169456249998206E-003
 S -1.16234201562500 -2.51546903437500 -4.17913745625000 
 S -4.16967801562500 -2.46273003437500 -1.42164345625000 
 S -1.73032901562500 -3.11002703437500 -0.239525456249998 
