16

 C -2.59208197187500 -6.29763441562500 -2.51251537187500 
 C -1.33969397187500 -6.67502641562500 -1.91189937187500 
 C -2.62375597187500 -2.96801141562500 -2.32826637187500 
 C -1.43083297187500 -3.32252141562500 -1.69083737187500 
 N -0.310821971875001 -6.83048241562500 -2.73831537187500 
 N -2.51664497187500 -6.25790441562500 -3.84806437187500 
 N -2.98608797187500 -6.44058141562500 6.304562812500025E-002
 N -0.426998971875000 -3.45049041562500 -2.54993937187500 
 N -2.54683097187500 -2.72785641562500 -3.63680237187500 
 N -3.13938897187500 -3.03740941562500 0.232736628125000 
 S -0.955912971875001 -6.53203241562500 -4.22488637187500 
 S -3.84621797187500 -6.17691441562500 -1.34912437187500 
 S -1.35294097187500 -6.69757941562500 -0.130402371875000 
 S -1.02117697187500 -3.18099041562500 -4.05784037187500 
 S -3.88763297187500 -2.64150341562500 -1.21503237187500 
 S -1.55727397187500 -3.44084241562500 3.328062812500021E-002
