16

 C -2.17940550937500 -6.12181203125000 -2.59158920625000 
 C -1.02581750937500 -6.56295803125000 -1.83701020625000 
 C -2.34881750937500 -2.77053803125000 -2.49564920625000 
 C -1.10771050937500 -3.13534703125000 -1.85715320625000 
 N 4.769549062500111E-002 -6.88367503125000 -2.57776920625000 
 N -1.89870750937500 -5.97994003125000 -3.88877220625000 
 N -2.98854950937500 -6.36522903125000 -0.197158206249999 
 N -0.115898509374998 -3.37308203125000 -2.72944020625000 
 N -2.29791650937500 -2.70626103125000 -3.83394520625000 
 N -2.90982250937500 -2.88974603125000 4.385979375000071E-002
 S -0.407666509374998 -6.62548303125000 -4.11488520625000 
 S -3.59644550937500 -5.86840303125000 -1.67487220625000 
 S -1.38294550937500 -6.83646503125000 -0.129807206249999 
 S -0.727642509374999 -3.05036803125000 -4.22973820625000 
 S -3.75274850937500 -2.78764303125000 -1.42114420625000 
 S -1.28675350937500 -3.29955303125000 -0.138922206249999 
