16

 C -2.35021874687500 -6.44084826875000 -2.52464184062500 
 C -1.16323774687500 -6.87740326875000 -1.87574084062500 
 C -2.53966674687500 -2.59848226875000 -2.56274084062500 
 C -1.36339974687500 -2.99893326875000 -1.75518084062500 
 N -8.460774687500461E-002 -6.95524226875000 -2.60728884062500 
 N -2.18433074687500 -6.33671826875000 -3.80631584062500 
 N -2.83160274687500 -6.47903726875000 -1.784840625000284E-003
 N -0.251747746875004 -3.20351826875000 -2.49671884062500 
 N -2.22137574687500 -2.41330526875000 -3.86613284062500 
 N -3.35817374687500 -2.86534626875000 -0.140726840625000 
 S -0.530707746875004 -6.50762526875000 -4.14696884062500 
 S -3.64331874687500 -6.23936926875000 -1.42123584062500 
 S -1.27376474687500 -7.01845826875000 -0.164957840625000 
 S -0.690702746875004 -3.02863326875000 -4.09238384062500 
 S -4.08229674687500 -2.52944926875000 -1.62957784062500 
 S -1.67437774687500 -3.14601126875000 -7.812384062500022E-002
