16

 C -2.47362578749999 -6.54981335000000 -2.55402617812500 
 C -1.29486778749999 -7.06818535000000 -1.88215317812500 
 C -2.73328378749999 -2.89988535000000 -2.50522117812500 
 C -1.57057578749999 -3.44442935000000 -1.86631717812500 
 N -0.217917787499993 -7.15680335000000 -2.66143117812500 
 N -2.28062478749999 -6.27961735000000 -3.85057617812500 
 N -3.07928278749999 -6.78173835000000 -7.493117812499994E-002
 N -0.534154787499993 -3.61216335000000 -2.68752717812500 
 N -2.55497578749999 -2.57936535000000 -3.77873717812500 
 N -3.48500678749999 -3.23955735000000 -4.782517812499987E-002
 S -0.691923787499993 -6.60960435000000 -4.11101417812500 
 S -3.80778278749999 -6.32942835000000 -1.46688417812500 
 S -1.50638078749999 -7.26074835000000 -0.191961178125000 
 S -0.989094787499994 -3.18239835000000 -4.22138817812500 
 S -4.02041078749999 -2.47234235000000 -1.40884717812500 
 S -1.87677278749999 -3.74209335000000 -9.977717812499987E-002
