16

 C -2.18825143437500 -6.26699788125001 -2.43664851250000 
 C -1.02519343437500 -6.81788688125001 -1.79039851250000 
 C -2.54951543437500 -3.09730388125001 -2.44438851250000 
 C -1.26477043437500 -3.19093288125001 -1.70161851250000 
 N -4.170443437500282E-002 -7.03165088125001 -2.63521651250000 
 N -2.18330243437500 -6.17725888125001 -3.75651051250000 
 N -2.86919643437500 -6.89121288125001 8.769448750000075E-002
 N -0.193419434375003 -3.22273888125001 -2.48201451250000 
 N -2.41199143437500 -3.03601088125001 -3.76499651250000 
 N -3.08716243437500 -2.70179688125001 8.745548750000087E-002
 S -0.666993434375003 -6.64569388125001 -4.19503551250000 
 S -3.58597143437500 -6.12708088125001 -1.27668651250000 
 S -1.31320743437500 -7.24969788125001 -0.100735512499999 
 S -0.765613434375003 -3.11368988125001 -4.08849551250000 
 S -3.87158143437500 -2.68832288125001 -1.42012951250000 
 S -1.44363643437500 -3.03068688125001 3.603548750000085E-002
