16

 C -2.40633215937500 -6.26234300000000 -2.37548195625000 
 C -1.34357115937500 -6.96565500000000 -1.68868095625000 
 C -2.42712515937500 -2.30052300000000 -2.46710895625000 
 C -1.31278915937500 -2.95247900000000 -1.83985595625000 
 N -0.250540159375001 -7.09161900000000 -2.44109395625000 
 N -2.12545215937500 -5.94464700000000 -3.64079495625000 
 N -3.12479515937500 -6.56015800000000 7.231504374999864E-002
 N -0.348800159375002 -3.32430700000000 -2.67693995625000 
 N -2.28950415937500 -2.09721400000000 -3.74895995625000 
 N -3.06190215937500 -2.33909600000000 4.121304374999868E-002
 S -0.602461159375002 -6.59082300000000 -4.01204695625000 
 S -3.75562115937500 -5.97334600000000 -1.37318295625000 
 S -1.59449815937500 -7.23321600000000 -2.225495625000118E-002
 S -0.789894159375002 -2.80077300000000 -4.12032495625000 
 S -3.77806315937500 -2.02135300000000 -1.43985095625000 
 S -1.55327915937500 -3.00508100000000 -5.883795625000143E-002
