16

 C -2.28698539062500 -6.30258424687500 -2.46631334062500 
 C -1.12315439062500 -6.88440724687500 -1.82314734062500 
 C -2.27295939062500 -2.69785224687500 -2.37484734062500 
 C -1.03898139062500 -3.27585824687500 -1.79649734062500 
 N -0.157975390625001 -7.13192624687500 -2.68344934062500 
 N -2.13721039062500 -5.97536824687500 -3.73259634062500 
 N -3.00525439062500 -6.84385624687500 -4.275034062499983E-002
 N -5.364639062500132E-002 -3.57832424687500 -2.64285934062500 
 N -2.25631339062500 -2.66825324687500 -3.70982834062500 
 N -2.65566939062500 -3.01334824687500 0.167477659375000 
 S -0.631382390625001 -6.59590424687500 -4.21728634062500 
 S -3.65557239062500 -6.11215224687500 -1.40272434062500 
 S -1.39887239062500 -7.20142124687500 -0.108707340625000 
 S -0.694369390625001 -3.13522024687500 -4.14683834062500 
 S -3.49772239062500 -2.67482624687500 -1.19030034062500 
 S -1.18268339062500 -3.63831624687500 -8.990034062500007E-002
