16

 C -2.72929129999999 -6.38471644375000 -2.64544532500000 
 C -1.51997929999999 -6.86002444375000 -2.02850932500000 
 C -2.38576129999999 -2.89343744375000 -2.40547832500000 
 C -1.04355629999999 -3.20094844375000 -1.81513832500000 
 N -0.409130299999990 -6.83993244375000 -2.76210332500000 
 N -2.57643329999999 -6.12764844375000 -3.92900232500000 
 N -3.30745929999999 -6.69036744375000 -0.216665325000000 
 N -6.518129999999012E-002 -3.30558244375000 -2.73180232500000 
 N -2.37882029999999 -2.77450044375000 -3.75022332500000 
 N -2.70640329999999 -2.99553644375000 0.145874675000000 
 S -0.961410299999990 -6.35945544375000 -4.23092232500000 
 S -4.11583929999999 -6.33601844375000 -1.61685632500000 
 S -1.72566529999999 -7.17830444375000 -0.367155325000000 
 S -0.806900299999990 -3.02362844375000 -4.18253932500000 
 S -3.60029829999999 -2.67434444375000 -1.21698132500000 
 S -1.13557129999999 -3.43561944375000 -4.410132500000041E-002
