16

 C -2.46219484062500 -6.62835562500000 -2.43443983750000 
 C -1.21116484062500 -6.69560862500000 -1.77266783750000 
 C -2.43709884062500 -2.16645262500000 -2.74697583750000 
 C -1.42644984062500 -2.93340162500000 -2.03683983750000 
 N -0.160972840625001 -6.64610462500000 -2.58133083750000 
 N -2.34735984062500 -6.52781662500000 -3.75259683750000 
 N -3.06556084062500 -6.50977862500000 2.285316250000102E-002
 N -0.324704840625000 -3.12989962500000 -2.77381683750000 
 N -2.05252784062500 -1.75748062500000 -3.97421183750000 
 N -3.47979084062500 -2.69637562500000 -0.470001837499999 
 S -0.721137840625000 -6.41648462500000 -4.15166883750000 
 S -3.77367284062500 -6.38146362500000 -1.43453683750000 
 S -1.35397884062500 -6.79136262500000 -5.943083749999900E-002
 S -0.629586840625000 -2.52046662500000 -4.26888283750000 
 S -3.93426484062500 -1.85678962500000 -1.84563683750000 
 S -1.96601484062500 -3.32435162500000 -0.443376837499999 
