16

 C -2.65804969687500 -6.50122681250000 -2.44011893125000 
 C -1.48897469687500 -7.04087381250000 -1.77884993125000 
 C -2.12634369687500 -2.91565381250000 -2.38979793125000 
 C -1.01587969687500 -3.47847681250000 -1.73913693125000 
 N -0.416083696874998 -7.26910681250000 -2.53906293125000 
 N -2.45466869687500 -6.35947981250000 -3.75547993125000 
 N -3.25630069687500 -6.75803981250000 9.111706875000070E-002
 N 7.373230312500212E-002 -3.69301381250000 -2.49895193125000 
 N -1.89569869687500 -2.50688981250000 -3.63697593125000 
 N -2.92286169687500 -3.32748881250000 -1.639193124999938E-002
 S -0.889804696874998 -6.83068281250000 -4.11998693125000 
 S -3.93275469687500 -6.20904881250000 -1.32849193125000 
 S -1.64140869687500 -7.17702881250000 3.809068750000755E-003
 S -0.357677696874998 -3.03226881250000 -4.00415993125000 
 S -3.58700869687500 -2.81477181250000 -1.39334593125000 
 S -1.31747569687500 -3.78006181250000 -5.445093124999922E-002
