16

 C -2.71750074687501 -6.52141912187500 -2.33462432187500 
 C -1.50193074687501 -6.97137612187500 -1.72928732187500 
 C -2.45642574687501 -3.24818312187500 -2.40806232187500 
 C -1.14490274687501 -3.24021712187500 -1.83101632187500 
 N -0.503259746875007 -7.26368212187500 -2.55069432187500 
 N -2.66933274687501 -6.39263412187500 -3.67239532187500 
 N -3.22729974687501 -6.54889612187500 0.177452678125000 
 N -0.197834746875007 -3.20757212187500 -2.78076432187500 
 N -2.54441074687501 -3.08541612187500 -3.72658032187500 
 N -2.83090674687501 -3.08101412187500 0.161647678125000 
 S -1.07278974687501 -6.88268512187500 -4.10143132187500 
 S -3.97812074687501 -6.16980812187500 -1.18146132187500 
 S -1.58627274687501 -6.89414912187500 3.815467812500017E-002
 S -0.930946746875008 -3.21256312187500 -4.21679532187500 
 S -3.75784374687501 -3.11573912187500 -1.21201532187500 
 S -1.15117174687501 -3.26083112187500 -7.010332187499979E-002
