16

 C -2.55525830625000 -6.21774240625001 -2.47872738750000 
 C -1.28319430625000 -6.56012840625001 -1.82282638750000 
 C -2.38511130625000 -2.93109040625001 -2.53799838750000 
 C -1.20731830625000 -3.22963440625001 -1.81307238750000 
 N -0.290943306249997 -6.70427440625001 -2.73294638750000 
 N -2.51089330625000 -6.09914740625001 -3.80670738750000 
 N -2.96535330625000 -6.45433840625001 5.731461249999814E-002
 N -0.171613306249998 -3.52674140625001 -2.62225338750000 
 N -2.28615830625000 -3.05090940625001 -3.87843038750000 
 N -3.07693130625000 -2.81678040625001 -3.539638750000185E-002
 S -0.983002306249998 -6.47821340625001 -4.20147738750000 
 S -3.78389030625000 -5.95018940625001 -1.34676638750000 
 S -1.34815730625000 -6.82921340625001 -0.137683387500002 
 S -0.692416306249998 -3.36564740625001 -4.16650338750000 
 S -3.74963930625000 -2.76366240625001 -1.56690938750000 
 S -1.42736130625000 -3.16454340625001 -7.352738750000176E-002
