16

 C -2.47498130312499 -6.45763367812499 -2.32483828750000 
 C -1.19274030312499 -6.85464567812499 -1.72100128750000 
 C -2.53726930312499 -2.80602067812499 -2.37025628750000 
 C -1.36084830312499 -3.25894767812499 -1.69879228750000 
 N -0.180569303124994 -7.01710967812499 -2.58865328750000 
 N -2.42407330312499 -6.37198067812499 -3.65919228750000 
 N -2.96858630312499 -6.91678467812499 0.177222712500000 
 N -0.261618303124994 -3.37174267812499 -2.44469428750000 
 N -2.40268230312499 -2.75529467812499 -3.69828328750000 
 N -3.09009730312499 -2.91444767812499 0.177871712500000 
 S -0.864736303124994 -6.64678767812499 -4.09770528750000 
 S -3.75181830312499 -6.49802467812499 -1.20855828750000 
 S -1.29668630312499 -7.21043767812499 2.285771250000002E-002
 S -0.837569303124994 -3.09322867812499 -4.09711328750000 
 S -3.83507330312499 -2.48411667812499 -1.23324228750000 
 S -1.53740130312499 -3.50195467812499 -3.332728750000014E-002
