16

 C -2.45185565312500 -6.69180658750000 -2.27475838750000 
 C -1.26895565312500 -7.22625058750000 -1.67209538750000 
 C -2.23909665312499 -2.44251158750000 -2.51954838750000 
 C -1.08217265312499 -2.94116658750000 -1.84453238750000 
 N -0.212628653124995 -7.33996058750000 -2.49577438750000 
 N -2.40226665312499 -6.48961158750000 -3.61658738750000 
 N -2.96211665312499 -6.84218258750000 0.281897612499999 
 N -1.610165312499490E-002 -3.19079358750000 -2.61059938750000 
 N -2.06583165312500 -2.17487258750000 -3.79058938750000 
 N -3.01913965312499 -2.73524458750000 -9.071338750000080E-002
 S -0.838583653124995 -6.90396458750000 -3.99626738750000 
 S -3.70394065312500 -6.22754258750000 -1.08241538750000 
 S -1.40844865312499 -7.20654558750000 0.122875612499999 
 S -0.522014653124995 -2.66339458750000 -4.10883338750000 
 S -3.72035765312499 -2.42632158750000 -1.55003138750000 
 S -1.40131965312499 -3.20815758750000 -0.178642387500001 
