16

 C -2.60076534687499 -6.67751665937500 -2.39436066562500 
 C -1.41112334687500 -7.08398865937500 -1.75317366562500 
 C -2.48615534687499 -2.89945565937500 -2.37882266562500 
 C -1.23744234687500 -3.36238365937500 -1.80971466562500 
 N -0.354413346874995 -7.24727965937500 -2.52799366562500 
 N -2.45721534687500 -6.52994765937500 -3.69118666562500 
 N -3.09689934687500 -6.86920565937500 0.146040334375000 
 N -0.310381346874995 -3.63853565937500 -2.77702766562500 
 N -2.46771134687499 -2.61908665937500 -3.67659266562500 
 N -2.90264734687499 -3.23538765937500 0.167084334375000 
 S -0.811918346874995 -6.79328465937500 -4.02187166562500 
 S -3.91941934687499 -6.54414365937500 -1.24923366562500 
 S -1.49404434687500 -7.28319965937500 -9.546665624999839E-003
 S -0.931956346874995 -3.14985165937500 -4.16155566562500 
 S -3.76520334687500 -2.66016665937500 -1.14772966562500 
 S -1.33050334687499 -3.52635065937500 -5.468166562499954E-002
