16

 C -2.27529478437500 -6.72234120312501 -2.39669611250000 
 C -1.09810178437500 -7.16704720312501 -1.67206611250000 
 C -2.95329078437500 -3.07258920312501 -2.34909011250000 
 C -1.77029378437500 -3.57119520312501 -1.71434911250000 
 N -6.939478437499780E-002 -7.45824120312501 -2.44673211250000 
 N -2.14883678437500 -6.67676320312501 -3.72221011250000 
 N -2.97579478437500 -6.88347420312501 0.107866887499999 
 N -0.734663784374997 -3.89611020312501 -2.49633611250000 
 N -2.84561878437500 -2.94538120312501 -3.66892011250000 
 N -3.49136978437500 -3.33101920312501 0.168267887499999 
 S -0.573873784374997 -7.18818820312501 -4.00541511250000 
 S -3.70709378437500 -6.53717420312501 -1.36774911250000 
 S -1.37376678437500 -7.27856520312501 3.089888749999936E-002
 S -1.26599578437500 -3.42002920312501 -4.05166311250000 
 S -4.23613478437500 -2.78561320312501 -1.20803411250000 
 S -1.86991178437500 -3.75229720312501 4.307188749999935E-002
