16

 C -2.21052686250001 -6.63687396875001 -2.21289439062500 
 C -0.930282862500009 -7.12040196875001 -1.69639539062500 
 C -2.45852986250001 -2.71602496875001 -2.30618239062500 
 C -1.30084886250001 -3.27654196875001 -1.75998139062500 
 N 4.116313749999012E-002 -7.16873796875001 -2.60321339062500 
 N -2.25533986250001 -6.38297196875001 -3.50339939062500 
 N -2.59163486250001 -6.99520796875001 0.341298609374999 
 N -0.282929862500009 -3.54649796875001 -2.58883539062500 
 N -2.36679486250001 -2.38671196875001 -3.60503139062500 
 N -2.99231786250001 -3.18116396875001 0.219772609374999 
 S -0.689922862500009 -6.63394896875001 -4.02769839062500 
 S -3.43312486250001 -6.42821796875001 -0.988926390625001 
 S -1.01284986250001 -7.22808196875001 4.897660937499926E-002
 S -0.890901862500010 -2.98823696875001 -4.06701339062500 
 S -3.74289086250001 -2.47925996875001 -1.11608439062500 
 S -1.39252986250001 -3.52928196875001 -4.568339062500071E-002
