16

 C -2.65725532500000 -6.37955869687500 -2.29393013437500 
 C -1.39582532500000 -6.86193169687500 -1.71235013437500 
 C -2.39919632500000 -2.81247969687500 -2.41886413437500 
 C -1.18402532500000 -3.25117669687500 -1.81264113437500 
 N -0.430588324999999 -6.95905269687500 -2.58833013437500 
 N -2.56387232500000 -6.08242669687500 -3.55930113437500 
 N -3.04076232500000 -6.78039769687500 0.240108865624998 
 N -0.172945324999999 -3.32602969687500 -2.72633513437500 
 N -2.36655232500000 -2.59215969687500 -3.72116113437500 
 N -2.98613532500000 -3.16300469687500 5.009686562499827E-002
 S -1.04378332500000 -6.56889869687500 -4.08476113437500 
 S -3.88564232500000 -6.15309269687500 -1.08815513437500 
 S -1.48070032500000 -7.21780769687500 -6.861013437500185E-002
 S -0.779692324999998 -2.92269069687500 -4.19499913437500 
 S -3.81384332500000 -2.77282369687500 -1.33808513437500 
 S -1.38446332500000 -3.67585469687500 -0.123650134375002 
