16

 C -2.42842691562501 -6.18081471250000 -2.38735145625000 
 C -1.27253091562501 -6.80119571250000 -1.79805945625000 
 C -2.54484991562501 -2.50886871250000 -2.43163645625000 
 C -1.38460191562501 -3.08837371250000 -1.72989845625000 
 N -0.271569915625006 -6.98164271250000 -2.65802245625000 
 N -2.34227591562501 -5.96911571250000 -3.71498545625000 
 N -2.90519391562501 -6.33817671250000 9.163254375000163E-002
 N -0.339201915625007 -3.29604971250000 -2.52248545625000 
 N -2.40673391562501 -2.34729271250000 -3.73751545625000 
 N -3.04016191562501 -2.49984871250000 0.133876543750002 
 S -0.798581915625006 -6.41826671250000 -4.13391845625000 
 S -3.77911491562501 -6.10367871250000 -1.31201345625000 
 S -1.34840091562501 -7.08499271250000 -0.120052456249998 
 S -0.873093915625007 -2.91306971250000 -4.05706645625000 
 S -3.77012791562501 -1.97100971250000 -1.29951545625000 
 S -1.58092391562501 -3.28101371250000 1.860754375000151E-002
