16

 C -2.50671917187500 -6.21117774062500 -2.47175913750000 
 C -1.33402817187500 -6.88357474062500 -1.88401013750000 
 C -2.46868017187500 -2.65783374062500 -2.17939113750000 
 C -1.36683617187500 -3.28885974062500 -1.61692113750000 
 N -0.300256171875003 -7.10956374062500 -2.69501313750000 
 N -2.38852617187500 -6.12147974062500 -3.79014213750000 
 N -3.09633717187500 -6.70403174062500 2.635086250000085E-002
 N -0.420705171875004 -3.54214574062500 -2.49202913750000 
 N -2.38091817187500 -2.31027974062500 -3.44126713750000 
 N -2.90913817187500 -2.80307774062500 0.339080862500001 
 S -0.850703171875003 -6.70409374062500 -4.22836813750000 
 S -3.79765917187500 -5.94365974062500 -1.32292313750000 
 S -1.52880917187500 -7.23136174062500 -0.170379137499999 
 S -0.880634171875004 -2.90485074062500 -3.99074813750000 
 S -3.72796817187500 -2.33138874062500 -1.02670413750000 
 S -1.43611517187500 -3.45794374062500 0.122284862500001 
