16

 C -2.40758596874999 -6.63551225312500 -2.35270921250000 
 C -1.14226096874999 -6.96330425312500 -1.70077621250000 
 C -2.36246396874999 -2.79484625312500 -2.45131221250000 
 C -1.17099996874999 -3.12470025312500 -1.68604621250000 
 N -0.114077968749990 -6.98176925312500 -2.52732321250000 
 N -2.31905396874999 -6.42603125312500 -3.67492321250000 
 N -2.90826996874999 -7.09145025312500 0.107463787499999 
 N -6.257196874999060E-002 -3.29750225312500 -2.37663521250000 
 N -2.15224896874999 -2.79017325312500 -3.75991521250000 
 N -3.11274296874999 -2.78860825312500 -3.098521250000097E-002
 S -0.691340968749991 -6.58913825312500 -3.98923221250000 
 S -3.67018296874999 -6.61408325312500 -1.22767021250000 
 S -1.27596896874999 -7.29581425312500 -2.048321250000074E-002
 S -0.581143968749990 -3.05327725312500 -3.96819821250000 
 S -3.75211996874999 -2.51143025312500 -1.48522221250000 
 S -1.47251596874999 -3.16205125312500 -1.985221250000091E-002
