16

 C -2.19337294374999 -6.41151276875000 -2.40210293125000 
 C -0.956611943749990 -6.74522376875000 -1.75349293125000 
 C -2.58715994374999 -2.63708776875000 -2.33536193125000 
 C -1.32223194374999 -2.99202876875000 -1.67802693125000 
 N 6.300805625001082E-002 -6.79668876875000 -2.58774393125000 
 N -2.18946994374999 -6.24600376875000 -3.73473993125000 
 N -2.67957194374999 -6.85682476875000 8.296806875000029E-002
 N -0.342875943749990 -3.22094276875000 -2.53334193125000 
 N -2.44697494374999 -2.55189776875000 -3.64128293125000 
 N -3.17393894374999 -3.02436776875000 0.149834068750000 
 S -0.570509943749990 -6.51805676875000 -4.10712993125000 
 S -3.49258894374999 -6.30961476875000 -1.24884393125000 
 S -1.02367794374999 -7.03655676875000 -7.114793124999985E-002
 S -0.871189943749989 -2.91722576875000 -4.07332793125000 
 S -3.88052394374999 -2.53386376875000 -1.27927693125000 
 S -1.48864894374999 -3.31942176875000 7.092068750000236E-003
