16

 C -2.42710177812500 -6.70484390000000 -2.39201830937500 
 C -1.09431377812500 -7.03124690000000 -1.95026230937500 
 C -2.45962877812500 -2.89833090000000 -2.44644630937500 
 C -1.40729877812500 -3.50659290000000 -1.78221830937500 
 N -0.192922778125004 -7.05308690000000 -2.93123030937500 
 N -2.51042977812500 -6.48895990000000 -3.68280430937500 
 N -2.66607477812500 -7.18752690000000 4.294569062500031E-002
 N -0.326950778125004 -3.65656290000000 -2.52386030937500 
 N -2.30431377812500 -2.73306790000000 -3.72598530937500 
 N -3.13017677812500 -3.11715590000000 -4.601030937499972E-002
 S -1.00193577812500 -6.71730390000000 -4.32767430937500 
 S -3.65331177812500 -6.73352990000000 -1.22862530937500 
 S -1.06130477812500 -7.34895690000000 -0.259867309375000 
 S -0.762689778125003 -3.18838290000000 -4.06143030937500 
 S -3.83659777812500 -2.63088590000000 -1.47924130937500 
 S -1.62649177812500 -3.73169390000000 -0.104140309375000 
