16

 C -2.50518385937500 -6.48792287812500 -2.54044827500000 
 C -1.31173385937500 -6.74053487812500 -1.78762727500000 
 C -2.58386885937500 -2.59915087812500 -2.47656927500000 
 C -1.33244885937500 -3.00789387812500 -1.83523727500000 
 N -0.214087859375002 -6.74543187812500 -2.54039827500000 
 N -2.41905685937500 -6.30760287812500 -3.84838727500000 
 N -3.21270885937500 -6.65415087812500 -5.175927500000022E-002
 N -0.290380859375001 -3.24633887812500 -2.64010927500000 
 N -2.46837085937500 -2.41759187812500 -3.80695727500000 
 N -2.97776985937500 -2.62587187812500 7.287172499999972E-002
 S -0.749320859375001 -6.44451687812500 -4.08262927500000 
 S -3.90021385937500 -6.41817887812500 -1.52929627500000 
 S -1.59091985937500 -6.92687287812500 -0.108306275000000 
 S -0.944438859375001 -2.82918487812500 -4.11370727500000 
 S -3.75884985937500 -2.24135987812500 -1.30405527500000 
 S -1.44256285937500 -3.19892987812500 -0.100187275000000 
