16

 C -2.66583277500001 -6.32253304375000 -2.31094605625000 
 C -1.46708977500001 -6.89042004375000 -1.76301805625000 
 C -2.40184377500001 -2.70285104375000 -2.44645205625000 
 C -1.19237877500001 -3.25133704375000 -1.83398905625000 
 N -0.425149775000007 -7.01131204375000 -2.60288505625000 
 N -2.59938077500001 -6.06444604375000 -3.63307105625000 
 N -3.07044377500001 -6.76848504375000 0.238042943749999 
 N -0.158858775000007 -3.39617604375000 -2.64155205625000 
 N -2.27913477500001 -2.49468204375000 -3.72654805625000 
 N -2.98095477500001 -3.13029104375000 5.535894374999906E-002
 S -1.06533777500001 -6.54798204375000 -4.05569105625000 
 S -3.89024277500001 -6.13272904375000 -1.06596005625000 
 S -1.47953777500001 -7.25168204375000 -4.098105625000104E-002
 S -0.773103775000007 -2.85787504375000 -4.20108105625000 
 S -3.72056377500001 -2.65787304375000 -1.37032305625000 
 S -1.35554177500001 -3.56257204375000 -0.115524056250001 
