16

 C -2.67908788750000 -6.33835920937500 -2.34953725625000 
 C -1.48548288750000 -6.82041220937500 -1.71646625625000 
 C -2.36023788750000 -2.75558020937500 -2.48749325625000 
 C -1.16211588750000 -3.04502920937500 -1.76443625625000 
 N -0.458378887499999 -7.15305620937500 -2.52671025625000 
 N -2.52544888750000 -6.26745520937500 -3.68311925625000 
 N -3.16116488750000 -6.24875620937500 0.204342743750001 
 N -8.666988749999849E-002 -3.24952420937500 -2.47872325625000 
 N -2.18774788750000 -2.68944720937500 -3.81156725625000 
 N -3.02749688750000 -2.85355520937500 6.219574375000114E-002
 S -1.03025488750000 -6.79605520937501 -4.05887925625000 
 S -3.96440488750000 -5.98816220937500 -1.26666025625000 
 S -1.72411288750000 -6.96732320937500 2.481474375000103E-002
 S -0.602756887499998 -3.03233320937500 -4.14218225625000 
 S -3.68756588750000 -2.40937620937500 -1.41858125625000 
 S -1.43379388750000 -3.23444820937500 -7.784625624999908E-002
