16

 C -2.42585837812500 -6.56537675000000 -2.29383278750000 
 C -1.28439937812500 -7.04256675000000 -1.56719878750000 
 C -2.42365037812500 -2.83616075000000 -2.43660378750000 
 C -1.21024937812500 -3.16457375000000 -1.79541878750000 
 N -0.139848378125000 -7.19079175000000 -2.22942778750000 
 N -2.22257737812500 -6.40809575000000 -3.61691678750000 
 N -3.09966137812500 -6.65946775000000 0.218642212500001 
 N -9.947637812499988E-002 -3.14493675000000 -2.52977978750000 
 N -2.30259737812500 -2.43449475000000 -3.70442478750000 
 N -3.06875637812500 -3.31720675000000 7.636212500001127E-003
 S -0.560008378125000 -6.76760075000000 -3.77759678750000 
 S -3.76305937812500 -6.22211975000000 -1.23539178750000 
 S -1.54365237812500 -7.21819475000000 7.948121250000129E-002
 S -0.700692378125000 -2.68009875000000 -4.04876778750000 
 S -3.80851837812500 -2.72022975000000 -1.35994178750000 
 S -1.43824737812500 -3.55091975000000 -0.103544787499999 
