16

 C -2.67587918124999 -6.61542146250000 -2.31808894687500 
 C -1.36050818124999 -6.79277946250000 -1.71787994687500 
 C -2.32708018125000 -3.07417146250000 -2.47829994687500 
 C -1.04645018124999 -3.30115146250000 -1.87849294687500 
 N -0.294083181249995 -6.75814146250000 -2.52871094687500 
 N -2.59144618124999 -6.43904646250000 -3.61433794687500 
 N -3.14428418125000 -6.93755146250000 0.203417053125001 
 N -8.826718124999466E-002 -3.53537546250000 -2.78106694687500 
 N -2.36129618124999 -2.98535346250000 -3.80271794687500 
 N -2.69973018125000 -3.04153446250000 7.180005312500137E-002
 S -0.962472181249995 -6.67188646250000 -4.08723094687500 
 S -3.98055718125000 -6.82633846250000 -1.20958694687500 
 S -1.49001418124999 -7.16629446250000 2.642605312500135E-002
 S -0.755771181249995 -3.25739846250000 -4.24150894687500 
 S -3.65814818125000 -2.88737746250000 -1.32941494687500 
 S -1.11080618124999 -3.33382546250000 -0.187699946874999 
