16

 C -2.50978544375000 -6.22968355625000 -2.48590566562500 
 C -1.38064844375000 -6.88375955625000 -1.90459966562500 
 C -2.49073144375000 -2.63311555625000 -2.20206066562500 
 C -1.31369244375000 -3.31552055625000 -1.60553866562500 
 N -0.370689443749996 -7.11026055625000 -2.73389366562500 
 N -2.38148844375000 -6.04842055625000 -3.80801666562500 
 N -3.08519244375000 -6.65394055625000 5.501933437500006E-002
 N -0.407955443749996 -3.63748155625000 -2.53501066562500 
 N -2.36317544375000 -2.28948355625000 -3.49744366562500 
 N -2.93407144375000 -2.75441855625000 0.352328334375000 
 S -0.883011443749996 -6.69534755625000 -4.23702566562500 
 S -3.78805044375000 -5.98196955625000 -1.29306966562500 
 S -1.55948144375000 -7.25420855625000 -0.174735665625000 
 S -0.891027443749996 -2.94297055625000 -3.95123966562500 
 S -3.73968144375000 -2.36705955625000 -1.05629366562500 
 S -1.45675344375000 -3.51140255625000 0.109992334375000 
