16

 C -2.37042126562500 -6.41902356562501 -2.62983036562500 
 C -1.23531326562500 -6.78399156562501 -1.85278736562500 
 C -2.34734526562500 -2.55064456562501 -2.54229936562500 
 C -1.12752426562500 -3.00925556562501 -2.01292736562500 
 N -0.162908265624998 -6.93085056562501 -2.61739136562500 
 N -2.20504626562500 -6.27278256562501 -3.93223936562500 
 N -3.01193026562500 -6.37962056562501 -9.818736562500052E-002
 N -0.119213265624998 -3.14317256562501 -2.84481236562500 
 N -2.30232226562500 -2.38004756562501 -3.86420636562500 
 N -2.85422126562500 -3.13813456562501 -5.313336562500059E-002
 S -0.640660265624998 -6.72508656562501 -4.16809836562500 
 S -3.71543426562500 -6.17229956562501 -1.61454236562500 
 S -1.41434226562500 -6.87270556562501 -0.199014365625001 
 S -0.690186265624998 -2.72500356562501 -4.35603836562500 
 S -3.64440626562500 -2.63826356562501 -1.40237736562500 
 S -1.22555426562500 -3.37053156562501 -0.343386365625001 
