16

 C -2.52634348125000 -6.35996461562500 -2.54037266250000 
 C -1.29782448125000 -6.65398061562500 -1.87453266250000 
 C -2.42204348125000 -2.84330361562500 -2.59262166250000 
 C -1.20702248125000 -3.05892861562500 -1.86072666250000 
 N -0.240629481249996 -6.77927761562500 -2.61781766250000 
 N -2.36509348125000 -6.21810761562500 -3.84721366250000 
 N -3.06509748125000 -6.53867861562500 -6.638166249999911E-002
 N -0.156287481249995 -3.30129061562500 -2.60526466250000 
 N -2.36450548125000 -2.95639961562500 -3.89920366250000 
 N -2.98513748125000 -2.70236461562500 -2.463166249999915E-002
 S -0.738932481249996 -6.46518961562500 -4.16409266250000 
 S -3.84761148125000 -6.15599661562500 -1.49019166250000 
 S -1.41004048125000 -6.76441561562500 -0.137092662499999 
 S -0.701678481249996 -3.20120261562500 -4.21952966250000 
 S -3.73264248125000 -2.57325361562500 -1.46745266250000 
 S -1.36906048125000 -3.15196461562500 -0.105750662499999 
