16

 C -2.31625024062500 -6.29784775312500 -2.57985678125000 
 C -1.04539024062500 -6.65680875312500 -1.98632678125000 
 C -2.78052124062500 -2.76778875312500 -2.30629478125000 
 C -1.58137324062500 -3.11732175312500 -1.66865678125000 
 N -3.383124062499743E-002 -6.87915475312500 -2.80948178125000 
 N -2.27654524062500 -6.34523375312500 -3.88320878125000 
 N -2.77927824062500 -6.39994275312500 -5.973278125000081E-002
 N -0.550544240624998 -3.38025775312500 -2.48379478125000 
 N -2.73351624062500 -2.75289775312500 -3.63654778125000 
 N -3.37048824062500 -2.81073075312500 0.192898218749999 
 S -0.717504240624998 -6.83138075312500 -4.33945878125000 
 S -3.63726324062500 -6.04469175312500 -1.45001778125000 
 S -1.14904024062500 -6.79937475312500 -0.261159781250001 
 S -1.10571524062500 -2.99193075312500 -4.01805178125000 
 S -4.13860824062500 -2.39058875312500 -1.25984678125000 
 S -1.73966124062500 -3.16555175312500 5.962321874999921E-002
