16

 C -2.65861954687500 -6.45615836875000 -2.40554832500000 
 C -1.43903554687500 -6.75486236875000 -1.72581932500000 
 C -2.62335154687500 -2.40032436875000 -2.41089632500000 
 C -1.44576754687500 -2.97900836875000 -1.77702232500000 
 N -0.327473546874995 -6.89222736875000 -2.43937132500000 
 N -2.45715254687500 -6.23878836875000 -3.71124332500000 
 N -3.24220054687500 -6.65210436875000 8.821767500000011E-002
 N -0.485337546874995 -3.29419836875000 -2.62703732500000 
 N -2.50772854687500 -2.17332336875000 -3.72880532500000 
 N -3.20342354687500 -2.80588136875000 7.797467500000010E-002
 S -0.813076546874996 -6.56748736875000 -3.98823132500000 
 S -4.02309154687500 -6.61166936875000 -1.36473932500000 
 S -1.64738454687500 -6.98241736875000 -4.001532499999993E-002
 S -1.01173654687500 -2.71292336875000 -4.13004632500000 
 S -3.95371854687500 -2.20129836875000 -1.28353032500000 
 S -1.61413454687500 -3.18187436875000 -8.603232499999991E-002
