16

 C -2.21722535000000 -6.18155134375000 -2.45481611250000 
 C -1.10183935000000 -6.86627934375000 -1.87851211250000 
 C -2.28064535000000 -2.90329434375000 -2.35241411250000 
 C -1.01494635000001 -3.45721634375000 -1.83578311250000 
 N -0.107886350000005 -7.12667734375000 -2.70666611250000 
 N -2.06512535000001 -5.99315734375000 -3.75031811250000 
 N -2.97713035000000 -6.79636834375000 -0.133631112499999 
 N -5.850035000000542E-002 -3.60933234375000 -2.73951611250000 
 N -2.15783735000000 -2.53991434375000 -3.62360711250000 
 N -2.65022235000001 -3.13826134375000 0.201662887500001 
 S -0.613891350000005 -6.58784934375000 -4.18702611250000 
 S -3.60739935000001 -6.10891334375000 -1.48145811250000 
 S -1.36721435000000 -7.15103934375000 -0.189188112499999 
 S -0.682908350000005 -3.03571534375000 -4.17866411250000 
 S -3.56244735000000 -2.69400434375000 -1.16467911250000 
 S -1.07812035000001 -3.70417534375000 -0.106409112499999 
