16

 C -2.25647585312499 -6.45156793437500 -2.32339103750000 
 C -1.06645185312499 -7.10491493437500 -1.77483903750000 
 C -2.24344585312499 -2.69385493437500 -2.44820303750000 
 C -1.07238185312499 -3.16586693437500 -1.72088803750000 
 N -0.108900853124991 -7.36828193437499 -2.68805703750000 
 N -2.15371685312499 -6.22683193437500 -3.62339703750000 
 N -2.60620085312499 -6.59205393437500 0.189393962500002 
 N -3.419485312499138E-002 -3.38048093437500 -2.53081503750000 
 N -2.06929185312499 -2.44596793437500 -3.73944903750000 
 N -2.96130585312499 -2.91376793437500 1.316296250000204E-002
 S -0.681769853124991 -6.75265193437500 -4.11458703750000 
 S -3.47260485312499 -6.09531093437499 -1.12514603750000 
 S -1.17028885312499 -7.32299493437500 -4.979103749999791E-002
 S -0.477311853124991 -2.85612493437500 -4.02731003750000 
 S -3.65776485312499 -2.38263993437500 -1.45348003750000 
 S -1.38171785312499 -3.43392993437500 -2.826903749999787E-002
