16

 C -2.47131467187499 -6.52926382187500 -2.39410268750000 
 C -1.22812167187499 -7.07905182187500 -1.92231968750000 
 C -2.56965667187499 -2.57294182187500 -2.36984968750000 
 C -1.55505267187499 -3.20467082187500 -1.66715168750000 
 N -0.273949671874991 -7.15527982187500 -2.82556968750000 
 N -2.38391067187499 -6.21831482187500 -3.68488168750000 
 N -2.79708367187499 -7.04705582187500 0.163010312500001 
 N -0.644071671874991 -3.77107682187500 -2.45142068750000 
 N -2.34225367187499 -2.44459082187500 -3.67783868750000 
 N -3.38902067187499 -2.62624582187500 1.242312500000509E-003
 S -0.909534671874991 -6.61941982187500 -4.24794868750000 
 S -3.67053967187499 -6.47032482187500 -1.13699168750000 
 S -1.26725267187499 -7.44395282187500 -0.273974687500000 
 S -0.961896671874992 -3.36494982187500 -4.01533768750000 
 S -3.94831267187499 -2.01761482187500 -1.45123068750000 
 S -1.88222067187499 -3.23297482187500 3.403231250000061E-002
