16

 C -2.36414166875000 -6.43389183125000 -2.32237492187500 
 C -1.08981266875000 -6.86279383125000 -1.78161492187500 
 C -2.55948766875000 -2.69613383125000 -2.39221592187500 
 C -1.44629066875000 -3.29548883125000 -1.73983992187500 
 N -0.159340668749998 -6.92647683125000 -2.71225992187500 
 N -2.34058266875000 -6.20395483125000 -3.61609292187500 
 N -2.68071666875000 -6.78642583125000 0.237073078124999 
 N -0.348106668749997 -3.45260783125000 -2.52218492187500 
 N -2.36627066875000 -2.52166483125000 -3.69546892187500 
 N -3.26725566875000 -2.98196283125000 3.109307812499940E-002
 S -0.778323668749998 -6.45864783125000 -4.14566392187500 
 S -3.58298466875000 -6.39260083125000 -1.10795092187500 
 S -1.07621866875000 -7.16829183125000 -7.869492187500082E-002
 S -0.836254668749998 -2.99884883125000 -4.05488292187500 
 S -3.91848066875000 -2.39913383125000 -1.43505592187500 
 S -1.65403466875000 -3.38258883125000 -1.118192187500044E-002
