16

 C -2.51845991562500 -6.58394963750000 -2.48329608437500 
 C -1.30484891562500 -7.12742163750000 -1.87533808437500 
 C -2.66559791562500 -2.75706663750000 -2.51770208437500 
 C -1.55804491562500 -3.41610463750000 -1.82799108437500 
 N -0.265535915624997 -7.26862463750000 -2.65157508437500 
 N -2.32446391562500 -6.29584563750000 -3.75981108437500 
 N -3.00999391562500 -6.85933063750000 -4.560608437500191E-002
 N -0.522209915624997 -3.71508963750000 -2.61531108437500 
 N -2.51681791562500 -2.69163463750000 -3.83033908437500 
 N -3.45869091562500 -3.25556163750000 -0.104843084375002 
 S -0.736348915624998 -6.60061963750000 -4.11606208437500 
 S -3.82050491562500 -6.33343863750000 -1.48746608437500 
 S -1.39165891562500 -7.41190163750000 -0.127069084375002 
 S -1.00452791562500 -3.14375563750000 -4.15502908437500 
 S -4.09746391562500 -2.44219363750000 -1.46308608437500 
 S -1.84621191562500 -3.62312763750000 -0.149940084375002 
