16

 C -2.32019049062501 -6.49189859062500 -2.50336804687500 
 C -1.08465049062501 -6.69721659062500 -1.78043104687500 
 C -2.60333749062501 -2.73863459062500 -2.51768104687500 
 C -1.36929949062501 -3.01505659062500 -1.77040704687500 
 N -2.704149062500605E-002 -6.91309659062500 -2.54764604687500 
 N -2.18400649062501 -6.44019459062500 -3.80209104687500 
 N -3.07396949062501 -6.44868459062500 -2.096904687500012E-002
 N -0.261213490625006 -3.01419559062500 -2.51949504687500 
 N -2.44854849062501 -2.61197859062500 -3.87285504687500 
 N -3.26009549062501 -2.98728459062500 2.623995312499994E-002
 S -0.578581490625006 -6.77886959062500 -4.16098804687500 
 S -3.75709549062501 -6.18908859062500 -1.53451904687500 
 S -1.45871149062501 -6.82318459062500 1.818895312499991E-002
 S -0.819365490625006 -2.80223859062500 -4.07070504687500 
 S -3.96207949062501 -2.56893459062500 -1.42429304687500 
 S -1.65390449062501 -3.26599759062500 -2.474904687500001E-002
