16

 C -2.40588393437500 -6.33595497812500 -2.54206754062500 
 C -1.11640693437500 -6.59929797812500 -1.94843754062500 
 C -2.80902993437500 -2.77185297812500 -2.36224254062500 
 C -1.57970593437500 -3.31900997812500 -1.69523554062500 
 N -0.136939934375001 -6.84877497812500 -2.82479454062500 
 N -2.40931693437500 -6.35163497812500 -3.86721354062500 
 N -2.79629293437500 -6.33900697812500 -9.755540624998504E-003
 N -0.572589934375001 -3.47640497812500 -2.52529554062500 
 N -2.69362993437500 -2.54381697812500 -3.66987954062500 
 N -3.27997993437500 -2.86963697812500 0.212247459375002 
 S -0.812012934375001 -6.68059597812500 -4.34714254062500 
 S -3.62745693437500 -6.09527997812500 -1.40955354062500 
 S -1.16546593437500 -6.67714097812500 -0.168891540624998 
 S -1.14894393437500 -3.13223797812500 -4.04962254062500 
 S -4.05216293437500 -2.58100297812500 -1.22234854062500 
 S -1.68032193437500 -3.26719797812500 1.110845937500149E-002
