16

 C -2.31401594062500 -6.37786386875000 -2.23019895625000 
 C -1.13084394062500 -6.88106386875000 -1.63277095625000 
 C -2.41202294062500 -2.65644686875000 -2.42866695625000 
 C -1.17549194062500 -3.11813786875000 -1.83429895625000 
 N -0.138445940624996 -6.90960786875000 -2.48559895625000 
 N -2.27031494062500 -6.18078486875000 -3.56421095625000 
 N -2.86640294062500 -6.70661786875000 0.312690043749997 
 N -0.162542940624996 -3.19506486875000 -2.71783795625000 
 N -2.27197694062500 -2.40390286875000 -3.72735295625000 
 N -3.02787994062500 -3.11280886875000 1.211204374999664E-002
 S -0.708173940624995 -6.49785686875000 -4.04860295625000 
 S -3.66212694062500 -6.28284786875000 -1.15345395625000 
 S -1.34617594062500 -7.25001586875000 6.981004374999666E-002
 S -0.734367940624995 -2.72383486875000 -4.17740295625000 
 S -3.78157694062500 -2.50980186875000 -1.38202295625000 
 S -1.32650594062500 -3.49804886875000 -8.531995625000333E-002
