16

 C -2.21193974375000 -6.42095053437500 -2.40553781875000 
 C -0.948689743749998 -6.72379253437500 -1.75443081875000 
 C -2.57714674375000 -2.64467853437500 -2.30911381875000 
 C -1.33180474375000 -3.03985553437500 -1.70235481875000 
 N 6.225125625000061E-002 -6.84271853437500 -2.60271481875000 
 N -2.19607474375000 -6.23085553437500 -3.71427481875000 
 N -2.69234674375000 -6.86304553437500 8.805818125000209E-002
 N -0.319348743749998 -3.22234153437500 -2.52723981875000 
 N -2.47167574375000 -2.50801053437500 -3.61201281875000 
 N -3.14663774375000 -3.03886153437500 0.161553181250002 
 S -0.575152743749999 -6.51911153437500 -4.09464581875000 
 S -3.49894974375000 -6.29943953437500 -1.25829781875000 
 S -1.04323774375000 -7.01756753437500 -7.666281874999781E-002
 S -0.880948743749999 -2.88292053437500 -4.06162881875000 
 S -3.88729974375000 -2.53487553437500 -1.25310881875000 
 S -1.47073974375000 -3.29012553437500 3.786181250001963E-003
