16

 C -2.34792805937499 -6.44707537187500 -2.51623925625000 
 C -1.11191405937499 -6.83476237187500 -1.84447625625000 
 C -2.51011705937499 -2.65796237187500 -2.51466225625000 
 C -1.31343605937499 -2.96760237187500 -1.77941325625000 
 N -9.705059374987002E-003 -6.93726237187500 -2.60388225625000 
 N -2.18363505937499 -6.27269137187500 -3.85458825625000 
 N -2.77997405937499 -6.52876637187500 5.951774375000052E-002
 N -0.220706059374987 -3.23019037187500 -2.45799925625000 
 N -2.29905505937499 -2.57653237187500 -3.79955725625000 
 N -3.29967605937499 -2.83658037187500 -7.454525624999930E-002
 S -0.595120059374986 -6.54786737187500 -4.12042225625000 
 S -3.64180805937499 -6.20049737187500 -1.42337525625000 
 S -1.27376805937499 -7.11469137187500 -0.166838256249999 
 S -0.693189059374986 -3.07449737187500 -4.10463725625000 
 S -4.06177405937499 -2.59646537187500 -1.59794725625000 
 S -1.63183805937499 -3.11517037187500 -6.077125624999935E-002
