16

 C -2.21295968437499 -6.52337232187500 -2.25000037812500 
 C -1.04183468437499 -7.15678632187500 -1.75415037812500 
 C -2.27684568437499 -2.66400732187500 -2.38386637812500 
 C -1.08213168437499 -3.14688332187500 -1.73533237812500 
 N -0.107676684374987 -7.35656332187500 -2.66115837812500 
 N -2.18216768437499 -6.28719332187500 -3.54832537812500 
 N -2.58116868437499 -6.54378332187500 0.237191621875001 
 N -6.395268437498647E-002 -3.35645532187500 -2.54983137812500 
 N -2.08762068437499 -2.45717632187500 -3.66989537812500 
 N -2.90621368437499 -2.91322332187500 -3.615737812499908E-002
 S -0.726739684374986 -6.75880432187500 -4.12669437812500 
 S -3.45591468437499 -6.03509032187500 -1.13731437812500 
 S -1.11237668437499 -7.39668332187500 -1.207637812499907E-002
 S -0.493674684374986 -2.81541432187500 -4.07287537812500 
 S -3.66394368437499 -2.37812932187500 -1.45236637812500 
 S -1.36411968437499 -3.52677332187500 -6.940137812499914E-002
