16

 C -2.39208601250000 -6.44630452812500 -2.62897439062500 
 C -1.15321701250000 -6.85642252812500 -1.89719839062500 
 C -2.31571501250000 -2.56572952812500 -2.55116739062500 
 C -1.01593801250000 -2.98448452812500 -2.04444539062500 
 N -9.688301250000286E-002 -7.06286552812500 -2.70084839062500 
 N -2.22080001250000 -6.35971852812500 -3.93694039062500 
 N -3.00519201250000 -6.51846952812500 -0.137211390624999 
 N -3.499401250000300E-002 -3.00477052812500 -2.94196739062500 
 N -2.22844301250000 -2.20590252812500 -3.82417839062500 
 N -2.77022401250000 -3.22411352812500 -0.162051390624999 
 S -0.624406012500003 -6.75437852812500 -4.26916039062500 
 S -3.76750901250000 -6.08349852812500 -1.53769439062500 
 S -1.36811101250000 -6.88679352812500 -0.193518390624999 
 S -0.774551012500003 -2.61599152812500 -4.37327139062500 
 S -3.68169901250000 -2.62783152812500 -1.45016139062500 
 S -1.15751601250000 -3.53443752812500 -0.335047390624999 
