16

 C -2.42119708750000 -6.23270387500000 -2.41122955625000 
 C -1.21613008750000 -6.75653787500000 -1.81542255625000 
 C -2.50971308750000 -2.44037587500000 -2.39448755625000 
 C -1.42641608750000 -3.11538987500000 -1.76234355625000 
 N -0.226139087500002 -6.95928787500000 -2.67483255625000 
 N -2.23162208750000 -5.91477387500000 -3.70418055625000 
 N -2.90928908750000 -6.60932987500000 0.148752443750002 
 N -0.475157087500002 -3.54720187500000 -2.56843655625000 
 N -2.35068708750000 -2.35615887500000 -3.71697855625000 
 N -3.07179908750000 -2.38742587500000 7.819744375000193E-002
 S -0.732835087500002 -6.43631787500000 -4.17271055625000 
 S -3.67318708750000 -6.06793987500000 -1.16441155625000 
 S -1.31276008750000 -7.05718387500000 -0.147149556249998 
 S -0.897695087500002 -3.03834687500000 -4.11708355625000 
 S -3.86602408750000 -2.07356087500000 -1.38787955625000 
 S -1.65124208750000 -3.20711287500000 -8.964855624999823E-002
