16

 C -2.17106298125000 -6.02792149062500 -2.61665372187500 
 C -1.09434398125000 -6.63809149062500 -1.89198572187500 
 C -2.43336298125000 -2.83902249062500 -2.52648672187500 
 C -1.19176698125000 -3.08155649062500 -1.82859372187500 
 N 2.159601875000217E-002 -6.94160749062500 -2.60099072187500 
 N -1.92454598125000 -6.01251749062500 -3.92333172187500 
 N -3.03523798125000 -6.28211949062500 -0.156378721875000 
 N -0.177268981249997 -3.17372549062500 -2.66141972187500 
 N -2.30691398125000 -2.70711649062500 -3.83785072187500 
 N -3.00352598125000 -2.99646749062500 -6.848772187499996E-002
 S -0.352962981249997 -6.52826449062500 -4.19682672187500 
 S -3.63650198125000 -5.82524549062500 -1.63169272187500 
 S -1.47082498125000 -6.82845849062500 -0.198614721875000 
 S -0.717405981249998 -3.02467649062500 -4.25632472187500 
 S -3.76663198125000 -2.71909149062500 -1.50566172187500 
 S -1.40537298125000 -3.30094649062500 -0.117921721875000 
