16

 C -2.17870692812500 -6.51347991250000 -2.49967103125000 
 C -1.03914192812500 -7.12058091250000 -1.81155403125000 
 C -2.45265792812500 -2.94324091250000 -2.34359003125000 
 C -1.25715992812500 -3.38160191250000 -1.70230003125000 
 N -5.332092812500022E-002 -7.38139991250000 -2.68068303125000 
 N -2.05775592812500 -6.28651891250000 -3.80416703125000 
 N -3.00718192812500 -6.84109991250000 -6.227603124999681E-002
 N -0.230466928125001 -3.66266591250000 -2.53153503125000 
 N -2.28961692812500 -2.72596091250000 -3.62589203125000 
 N -2.92110392812500 -2.91443491250000 0.183011968750003 
 S -0.582352928125000 -6.86089291250000 -4.21293603125000 
 S -3.55332892812500 -6.19927791250000 -1.47836103125000 
 S -1.39362092812500 -7.33387291250000 -9.015703124999663E-002
 S -0.726646928125001 -3.20903691250000 -3.98806603125000 
 S -3.77309592812500 -2.71906191250000 -1.24825503125000 
 S -1.33451292812500 -3.46189891250000 6.690296875000334E-002
