16

 C -2.59637865937500 -6.41461657500000 -2.43556439687500 
 C -1.35353865937500 -6.75387557500000 -1.71887139687500 
 C -2.61150865937500 -2.47177457500000 -2.43871339687500 
 C -1.39318065937500 -2.98469457500000 -1.84337439687500 
 N -0.262017659374999 -6.83269657500000 -2.49603639687500 
 N -2.44080765937500 -6.22300857500000 -3.73746639687500 
 N -3.29768665937500 -6.65412157500000 8.939060312499802E-002
 N -0.397714659374999 -3.31524957500000 -2.70582539687500 
 N -2.48277065937500 -2.20181457500000 -3.73854039687500 
 N -3.13666665937500 -2.72704657500000 8.688860312499802E-002
 S -0.806271659374999 -6.54009857500000 -4.06073839687500 
 S -4.05252765937500 -6.58194257500000 -1.42818439687500 
 S -1.62780665937500 -6.95531257500000 -9.160396875002030E-003
 S -0.994530659374999 -2.71858057500000 -4.17738339687500 
 S -3.97732765937500 -2.21145557500000 -1.25848139687500 
 S -1.56489465937500 -3.18681457500000 -5.712239687500187E-002
