16

 C -2.38291463437500 -6.54015533125000 -2.39321972812500 
 C -1.15536963437500 -6.91107033125000 -1.77275572812500 
 C -2.14893263437500 -2.59683333125000 -2.26740472812500 
 C -1.06020063437500 -3.24839933125000 -1.61569972812500 
 N -0.115238634374997 -7.05541133125000 -2.61022272812500 
 N -2.34904663437500 -6.40171633125000 -3.68994172812500 
 N -2.95045263437500 -6.76696733125000 0.106673271875003 
 N -3.755763437499660E-002 -3.51013133125000 -2.40302272812500 
 N -1.89281663437500 -2.24673533125000 -3.53586372812500 
 N -2.83732063437500 -3.19480733125000 0.194178271875003 
 S -0.759945634374997 -6.66559533125000 -4.11451472812500 
 S -3.73220063437500 -6.55267433125000 -1.33542572812500 
 S -1.34844563437500 -7.19010533125000 -2.053172812499660E-002
 S -0.352567634374997 -2.73621033125000 -3.84667772812500 
 S -3.57031963437500 -2.52574133125000 -1.20637772812500 
 S -1.24590363437500 -3.74211833125000 3.444627187500338E-002
