16

 C -2.39973393437500 -6.58181996875000 -2.31079138437500 
 C -1.23516893437500 -7.18029796875000 -1.76759338437500 
 C -2.67700393437500 -2.48165596875000 -2.35250438437500 
 C -1.66209493437500 -3.24601096875000 -1.64271538437500 
 N -0.334703934375002 -7.36897396875000 -2.71887338437500 
 N -2.35299393437500 -6.22746496875000 -3.58992038437500 
 N -2.91932493437500 -7.03686996875000 0.156494615625000 
 N -0.713584934375002 -3.70114096875000 -2.42782138437500 
 N -2.39377293437500 -2.33557896875000 -3.61753238437500 
 N -3.40260093437500 -2.55118496875000 7.761561562499941E-002
 S -0.917603934375003 -6.71096896875000 -4.14598038437500 
 S -3.71008993437500 -6.46659096875000 -1.19843638437500 
 S -1.34999193437500 -7.48400696875000 -4.740838437500061E-002
 S -0.933398934375003 -3.15301296875000 -3.92700838437500 
 S -3.97064293437500 -2.04429396875000 -1.40945338437500 
 S -1.96819293437500 -3.30312896875000 5.349561562499949E-002
