16

 C -2.49483484062500 -6.29018543437500 -2.46985987187500 
 C -1.34664484062500 -6.83651943437500 -1.83417487187500 
 C -2.43589184062500 -2.49993643437500 -2.51434087187500 
 C -1.22518684062500 -2.97200943437500 -1.81134687187500 
 N -0.360272840625001 -7.07084543437500 -2.68931287187500 
 N -2.38340584062500 -6.12973443437500 -3.79521087187500 
 N -3.15262584062500 -6.38242743437500 -1.580587187500027E-002
 N -0.284733840625002 -3.33269743437500 -2.64935787187500 
 N -2.26260984062500 -2.32514843437500 -3.81951387187500 
 N -3.06888784062500 -2.60948043437500 1.490012812499963E-002
 S -0.867471840625002 -6.73219343437500 -4.21928887187500 
 S -3.83600384062500 -5.94313443437500 -1.43168187187500 
 S -1.61570584062500 -7.04037843437500 -0.143091871875000 
 S -0.714291840625001 -2.92765843437500 -4.14531387187500 
 S -3.74177484062500 -2.11277643437500 -1.42820287187500 
 S -1.45834684062500 -2.96690643437500 -5.940487187500021E-002
