16

 C -2.46904732500000 -6.30802717812500 -2.56132161875000 
 C -1.33366632500000 -6.83613717812500 -1.81261161875000 
 C -2.42600632500000 -2.46735717812500 -2.43719261875000 
 C -1.23571832500000 -3.05195017812500 -1.74710261875000 
 N -0.286658324999996 -7.14818417812500 -2.57700961875000 
 N -2.33800732500000 -6.22485717812500 -3.89824561875000 
 N -3.22098932500000 -6.54700517812500 -8.418361874999869E-002
 N -0.195303324999996 -3.26677317812500 -2.51140661875000 
 N -2.26575232500000 -2.39793217812500 -3.72581661875000 
 N -3.08274832500000 -2.54895017812500 6.449381250001274E-003
 S -0.778628324999995 -6.70814417812500 -4.14975061875000 
 S -3.87523832500000 -5.98809817812500 -1.54017761875000 
 S -1.62935832500000 -6.97389717812500 -9.407161874999881E-002
 S -0.745904324999995 -2.82050617812500 -4.08069761875000 
 S -3.79644632500000 -2.15857117812500 -1.44253261875000 
 S -1.44316232500000 -3.01172417812500 -6.324618749999011E-003
