16

 C -2.53215894374999 -6.38102864375000 -2.33339443437500 
 C -1.32945194374999 -6.89523964375000 -1.73267643437500 
 C -2.65445294374999 -3.04016464375000 -2.50952643437500 
 C -1.44281594375000 -3.38231264375000 -1.83614743437500 
 N -0.312678943749995 -7.12672264375000 -2.57893043437500 
 N -2.43661994374999 -6.22761964375000 -3.63744643437500 
 N -3.05087394374999 -6.64108764375000 9.189156562499901E-002
 N -0.392091943749994 -3.40966264375000 -2.62582443437500 
 N -2.53163994374999 -2.77313464375000 -3.81913943437500 
 N -3.11385294374999 -3.05646364375000 8.882356562499893E-002
 S -0.927401943749994 -6.63771664375000 -4.01605743437500 
 S -3.78562094374999 -6.14334864375000 -1.29850143437500 
 S -1.47092094375000 -7.00815864375000 -4.852043437500098E-002
 S -0.908459943749994 -3.17156164375000 -4.16493243437500 
 S -3.95350494374999 -3.02540864375000 -1.35842343437500 
 S -1.57644094374999 -3.60533064375000 -0.115369434375001 
