16

 C -2.60143826875000 -6.62309201562500 -2.15160325625000 
 C -1.39792026875000 -7.03186801562500 -1.50217225625000 
 C -2.24386126875000 -2.50975901562500 -2.44818025625000 
 C -1.16923826875000 -3.22614101562500 -1.89628425625000 
 N -0.330343268749997 -7.07855601562500 -2.30072125625000 
 N -2.41575726875000 -6.25289201562500 -3.40295125625000 
 N -3.25656526875000 -6.97356001562500 0.305497743750001 
 N -0.112439268749998 -3.43353701562500 -2.69861925625000 
 N -2.11925926875000 -2.18777301562500 -3.74045225625000 
 N -2.83060226875000 -2.91335901562500 5.143574375000104E-002
 S -0.810660268749998 -6.43228901562500 -3.75975825625000 
 S -4.02797426875000 -6.65131001562500 -1.15912225625000 
 S -1.63816126875000 -7.35325701562500 0.192598743750001 
 S -0.661870268749998 -2.86615101562500 -4.18117325625000 
 S -3.61388726875000 -2.34688501562500 -1.32574625625000 
 S -1.31651926875000 -3.54235601562500 -0.155954256249999 
