16

 C -2.19613423437500 -6.67971625625000 -2.24137827500000 
 C -0.967968234374998 -7.00865925625000 -1.60274127500000 
 C -2.51657423437500 -2.61925725625000 -2.48078727500000 
 C -1.23974523437500 -2.93469025625000 -1.86321627500000 
 N 6.466076562500245E-002 -7.06240625625000 -2.44966127500000 
 N -2.14585623437500 -6.43001225625000 -3.55311427500000 
 N -2.67606323437500 -6.71759425625000 0.247259725000000 
 N -0.200914234374998 -2.99252025625000 -2.67168027500000 
 N -2.48109423437500 -2.54492225625000 -3.79314227500000 
 N -3.00569123437500 -2.77381625625000 3.432972500000031E-002
 S -0.498806234374998 -6.58516825625000 -3.94651827500000 
 S -3.53386123437500 -6.48555625625000 -1.14126527500000 
 S -1.10596523437500 -7.30937325625000 8.244372500000030E-002
 S -0.871493234374998 -2.85839725625000 -4.20932527500000 
 S -3.84980723437500 -2.47977925625000 -1.36419427500000 
 S -1.34637923437500 -3.10026325625000 -9.612427499999976E-002
