16

 C -2.49570122187499 -6.70239498437500 -2.37215520625000 
 C -1.41867322187499 -7.29606898437500 -1.64495220625000 
 C -2.50573622187499 -2.48429298437501 -2.44429920625000 
 C -1.34983122187499 -3.06153998437501 -1.80608720625000 
 N -0.426900221874995 -7.58147898437501 -2.45023020625000 
 N -2.34815922187499 -6.64617898437501 -3.68435120625000 
 N -3.07537922187499 -6.55742198437501 7.172779374999938E-002
 N -0.332629221874995 -3.32856298437501 -2.61337920625000 
 N -2.35976722187499 -2.25827398437501 -3.74560520625000 
 N -3.18402622187499 -3.02140698437501 -6.928206250000679E-003
 S -0.772877221874994 -7.10041998437501 -4.01058420625000 
 S -3.82042422187499 -6.12564998437501 -1.30328620625000 
 S -1.51787122187499 -7.22891498437501 5.727479374999933E-002
 S -0.869213221874994 -2.95342398437501 -4.14774820625000 
 S -3.82920522187499 -2.24075598437500 -1.33185120625000 
 S -1.58093522187500 -3.36105898437501 -4.832720625000064E-002
