16

 C -2.34880581562499 -6.37228270625000 -2.25498105937500 
 C -1.12758381562499 -6.86476870625000 -1.65470005937500 
 C -2.38395681562499 -2.71044970625000 -2.45318205937500 
 C -1.19145281562499 -3.12208270625000 -1.82728305937500 
 N -9.911581562498917E-002 -6.93334970625000 -2.50643805937500 
 N -2.28747681562499 -6.13814170625000 -3.56713705937500 
 N -2.91086081562499 -6.73490870625000 0.297724940625001 
 N -0.165710815624990 -3.12965470625000 -2.70152805937500 
 N -2.30337781562499 -2.38123970625000 -3.75587805937500 
 N -3.00064481562499 -3.12302970625000 -1.349005937499870E-002
 S -0.709602815624989 -6.47529270625000 -4.02779405937500 
 S -3.64412281562499 -6.25825870625000 -1.13717605937500 
 S -1.32709581562499 -7.22374170625000 9.255694062500130E-002
 S -0.741334815624989 -2.71462870625000 -4.20408305937500 
 S -3.78337881562499 -2.54869870625000 -1.40243505937500 
 S -1.31998981562499 -3.48996770625000 -9.671905937499869E-002
