16

 C -2.22009488750001 -6.19185606562501 -2.45895384687500 
 C -1.08851888750001 -6.87265706562501 -1.88352284687500 
 C -2.26790588750001 -2.88029306562501 -2.33305384687500 
 C -1.00316888750001 -3.40810406562501 -1.78148884687500 
 N -8.812288750000619E-002 -7.14013206562501 -2.70943984687500 
 N -2.06255688750001 -5.99022506562501 -3.74201384687500 
 N -2.99301588750001 -6.81385006562501 -0.118894846875003 
 N -9.564088750000632E-002 -3.60046206562501 -2.74927784687500 
 N -2.15259888750001 -2.57676906562501 -3.63396184687500 
 N -2.67053188750001 -3.10683506562501 0.200729153124997 
 S -0.635601887500006 -6.58597806562501 -4.18316184687500 
 S -3.60512288750001 -6.11667606562501 -1.47122384687500 
 S -1.37441388750001 -7.15946306562501 -0.177125846875003 
 S -0.679906887500006 -3.05719106562501 -4.17499984687500 
 S -3.55369988750001 -2.68488806562501 -1.16521184687500 
 S -1.09782088750001 -3.68488906562501 -0.126840846875003 
