16

 C -2.52663992499999 -6.82675950312501 -2.38399001250000 
 C -1.22396092499999 -7.03571950312501 -1.77659901250000 
 C -2.19938692499999 -2.92761350312501 -2.45374401250000 
 C -1.00411392499999 -3.33666450312501 -1.72376101250000 
 N -0.154561924999991 -6.86410650312501 -2.63691001250000 
 N -2.40290692499999 -6.45312050312500 -3.65620601250000 
 N -3.09421592499999 -7.13915950312501 0.143555987499999 
 N 6.224607500000978E-002 -3.54567150312501 -2.47215101250000 
 N -1.98028492499999 -2.77494050312501 -3.77170501250000 
 N -2.87090292499999 -3.00466650312501 4.926198749999910E-002
 S -0.837196924999991 -6.51279050312501 -4.10728201250000 
 S -3.86392892499999 -6.89104250312501 -1.27866801250000 
 S -1.41465992499999 -7.17489650312501 3.543098749999918E-002
 S -0.419027924999990 -3.22665750312501 -4.05969601250000 
 S -3.59502492499999 -2.68849650312501 -1.39179301250000 
 S -1.24002592499999 -3.50522650312501 -8.497301250000078E-002
