16

 C -2.46605936562500 -6.47356700000000 -2.12642713125000 
 C -1.29576736562500 -6.94109600000000 -1.47787613125000 
 C -2.29467036562500 -2.53459600000000 -2.45962013125000 
 C -1.10164336562500 -3.15087700000000 -1.91391013125000 
 N -0.254720365624996 -7.02940600000000 -2.31499413125000 
 N -2.29100636562500 -6.07905100000000 -3.40108013125000 
 N -3.16150036562500 -7.13393400000000 0.270284868750001 
 N -0.128708365624997 -3.43059700000000 -2.77547413125000 
 N -2.22603636562500 -2.34506400000000 -3.77518613125000 
 N -2.83282836562500 -3.02755100000000 4.216386875000078E-002
 S -0.777072365624996 -6.52435400000000 -3.77423313125000 
 S -3.89568036562500 -6.71064500000000 -1.16598913125000 
 S -1.54257436562500 -7.42176400000000 0.172786868750001 
 S -0.747536365624996 -2.81611000000000 -4.21101913125000 
 S -3.60101236562500 -2.36511700000000 -1.29534213125000 
 S -1.24242736562500 -3.38847400000000 -0.158310131249999 
