16

 C -2.34736036562500 -6.68570927812500 -2.39496391875000 
 C -1.13430336562500 -7.15911327812500 -1.72053691875000 
 C -2.38810436562500 -2.49786027812500 -2.26383691875000 
 C -1.33253736562500 -3.32947627812500 -1.76724391875000 
 N -0.120579365624999 -7.34756627812500 -2.56386291875000 
 N -2.24170336562500 -6.34462427812500 -3.72313391875000 
 N -3.02455536562500 -7.00679127812500 0.147540081250000 
 N -0.355482365624999 -3.71617927812500 -2.61329991875000 
 N -2.23487036562500 -2.26063127812500 -3.56117691875000 
 N -2.97332336562500 -2.81573227812500 0.161809081250000 
 S -0.631912365624999 -6.76168427812500 -4.04968591875000 
 S -3.71638236562500 -6.43296727812500 -1.23339691875000 
 S -1.36515336562500 -7.29853027812500 4.913708125000005E-002
 S -0.806219365624998 -2.96897127812500 -4.08071691875000 
 S -3.65645036562500 -2.06966427812500 -1.19294891875000 
 S -1.55239036562500 -3.68797427812500 -3.464891874999987E-002
