16

 C -2.29529849062500 -6.38168959375000 -2.42016210625000 
 C -1.04507449062500 -6.80337759375000 -1.81953910625000 
 C -2.48742749062500 -2.79564859375000 -2.51679310625000 
 C -1.29768949062500 -3.03672259375000 -1.74083210625000 
 N -2.842749062500083E-002 -6.88771659375000 -2.66363610625000 
 N -2.18015249062500 -6.20301959375000 -3.71290410625000 
 N -2.89212349062500 -6.64473959375000 1.533589374999900E-002
 N -0.259106490625001 -3.26383459375000 -2.50087210625000 
 N -2.36797949062500 -2.90554459375000 -3.82559710625000 
 N -3.21267149062500 -2.76820359375000 -7.647106250000979E-003
 S -0.612750490625001 -6.63063659375000 -4.19579310625000 
 S -3.62152949062500 -6.14746759375000 -1.34372510625000 
 S -1.26057849062500 -7.24194859375000 -0.113182106250001 
 S -0.748372490625001 -3.07349959375000 -4.04158410625000 
 S -3.85789549062500 -2.67979359375000 -1.48228210625000 
 S -1.60201849062500 -3.05518759375000 -2.001510625000091E-002
