16

 C -2.34465894374999 -6.23760115000001 -2.26999040937500 
 C -1.16734394374999 -6.86085115000000 -1.67922240937500 
 C -2.50813594374999 -2.75596515000001 -2.62521040937500 
 C -1.21562594374999 -2.96488215000000 -2.03351940937500 
 N -0.137612943749994 -7.03032015000000 -2.53800340937500 
 N -2.23911794374999 -5.84180315000000 -3.53483640937500 
 N -2.93736694374999 -6.84802115000000 0.198101590625000 
 N -0.134795943749994 -2.99837815000001 -2.83320040937500 
 N -2.39070394374999 -2.57107915000000 -3.94612440937500 
 N -2.89249294374999 -3.06524715000000 -0.112245409375000 
 S -0.681840943749995 -6.34651115000000 -3.93071740937500 
 S -3.69142394374999 -6.14615415000000 -1.08198240937500 
 S -1.22767394374999 -7.06020015000001 2.808559062499971E-002
 S -0.747057943749994 -2.56608215000001 -4.35425040937500 
 S -3.84777694374999 -2.90884515000000 -1.51025540937500 
 S -1.26578194374999 -3.38635915000000 -0.326556409375000 
