16

 C -2.49565870624999 -6.41932109062501 -2.52225805000000 
 C -1.25177270624999 -6.79932409062501 -1.87348305000000 
 C -2.70404770624999 -2.91355209062501 -2.53447705000000 
 C -1.58492170624999 -3.55584709062501 -1.89919205000000 
 N -0.173727706249994 -6.98115009062501 -2.63596905000000 
 N -2.32318670624999 -6.28368809062501 -3.82914805000000 
 N -3.17733470624999 -6.66544209062501 -4.488705000000048E-002
 N -0.528070706249994 -3.60688209062501 -2.68994205000000 
 N -2.55938770624999 -2.54844109062501 -3.80267605000000 
 N -3.35776570624999 -3.31039509062501 7.549949999999583E-003
 S -0.758135706249994 -6.68133009062501 -4.14808705000000 
 S -3.83167970624999 -6.18392809062501 -1.47494205000000 
 S -1.55255070624999 -7.00657909062501 -0.158965050000000 
 S -0.997678706249994 -3.11828009062501 -4.21656705000000 
 S -4.00784170624999 -2.80483609062501 -1.39335905000000 
 S -1.76884170624999 -3.76761209062501 -0.167880050000000 
