16

 C -2.58780796250000 -6.32047354062500 -2.28678446250000 
 C -1.30445996250000 -6.85745254062500 -1.75069546250000 
 C -2.51433796250000 -2.95241854062500 -2.46985846250000 
 C -1.29094496250000 -3.29229054062500 -1.82075246250000 
 N -0.327070962499995 -7.03794054062500 -2.64250846250000 
 N -2.55744896250000 -6.19339254062500 -3.58758146250000 
 N -3.06185696250000 -6.75981254062500 0.199242537499999 
 N -0.189140962499995 -3.31218154062500 -2.61976046250000 
 N -2.40771796250000 -2.70085054062500 -3.77843346250000 
 N -2.96292896250000 -3.21189154062500 8.490253749999899E-002
 S -1.02228496250000 -6.54069254062500 -4.08416046250000 
 S -3.87323196250000 -6.20315554062500 -1.13185246250000 
 S -1.46488396250000 -7.17583354062500 7.834537499999072E-003
 S -0.837645962499995 -2.97167854062500 -4.16916146250000 
 S -3.81476196250000 -2.90638554062500 -1.30412646250000 
 S -1.41525096250000 -3.75098754062500 -0.189678462500001 
