16

 C -2.45825844062500 -6.50970399687500 -2.46382350625000 
 C -1.18089744062500 -6.82768899687500 -1.83343250625000 
 C -2.64983744062500 -2.60740999687500 -2.34721750625000 
 C -1.49834744062500 -3.20695499687500 -1.73573050625000 
 N -0.138966440625001 -6.98342399687500 -2.64205350625000 
 N -2.34888744062500 -6.50880099687500 -3.78757750625000 
 N -2.85779144062500 -6.63747499687500 0.131119493749998 
 N -0.516660440625001 -3.40504299687500 -2.58789650625000 
 N -2.56383744062500 -2.47270699687500 -3.66559050625000 
 N -3.19708044062500 -2.79835999687500 0.137832493749998 
 S -0.748475440625001 -6.85506599687500 -4.19861550625000 
 S -3.65909244062500 -6.29518699687500 -1.27868450625000 
 S -1.32961144062500 -7.12958099687500 -0.138755506250002 
 S -0.945439440625002 -2.95180199687500 -4.09548550625000 
 S -3.92590844062500 -2.28560499687500 -1.22036050625000 
 S -1.74730344062500 -3.47467199687500 -7.077450625000181E-002
