16

 C -2.53066013750000 -6.28881046875000 -2.49047540312500 
 C -1.30584713750000 -6.59266246875000 -1.80234040312500 
 C -2.77381013750000 -2.61777246875000 -2.55073940312500 
 C -1.50234513750000 -3.00694046875000 -1.98550740312500 
 N -0.250868137499999 -6.70805246875000 -2.60530740312500 
 N -2.46838813750000 -6.24637446875000 -3.81597940312500 
 N -3.11666813750000 -6.55568446875000 5.078159687499939E-002
 N -0.451992137500000 -3.02720446875000 -2.82714040312500 
 N -2.68377113750000 -2.49932246875000 -3.88763340312500 
 N -3.16324213750000 -3.12669046875000 -8.796440312500042E-002
 S -0.869549137499999 -6.39867046875000 -4.12982040312500 
 S -3.95917513750000 -6.44899446875000 -1.41282340312500 
 S -1.50801913750000 -6.90448446875000 -0.115050403125001 
 S -1.14168213750000 -2.74627346875000 -4.36484740312500 
 S -3.99731613750000 -2.45397146875000 -1.34331340312500 
 S -1.51508113750000 -3.35912746875000 -0.306744403125001 
