16

 C -2.53870697187499 -6.18423026249999 -2.48860733437500 
 C -1.42097697187499 -6.86190526249999 -1.86219533437500 
 C -2.57977297187499 -2.60211526249999 -2.42716933437500 
 C -1.49067397187499 -3.13221426249999 -1.68690033437500 
 N -0.397024971874992 -7.09075526249999 -2.63624933437500 
 N -2.31076997187499 -5.96050526249999 -3.76301433437500 
 N -3.22697297187499 -6.66277226249999 -4.329933437499944E-002
 N -0.403598971874992 -3.26256626249999 -2.47489233437500 
 N -2.47005697187499 -2.47611626249999 -3.76624033437500 
 N -3.45293897187499 -2.87876426249999 -4.729533437499933E-002
 S -0.759499971874992 -6.54363926249999 -4.14553933437500 
 S -3.84682897187499 -5.93839526249999 -1.41222433437500 
 S -1.66212097187499 -7.27918926249999 -0.226409334374999 
 S -0.846470971874992 -2.84534926249999 -3.98936133437500 
 S -3.97776197187499 -2.18433626249999 -1.48689033437500 
 S -1.86610397187499 -3.34813526249999 8.225665625000822E-003
