16

 C -2.51971199062500 -6.50056829687500 -2.39396628437500 
 C -1.34385599062500 -6.96924929687500 -1.76116528437500 
 C -2.58283899062500 -2.69691729687500 -2.52654128437500 
 C -1.33558799062500 -3.18782829687500 -1.83906028437500 
 N -0.345501990625000 -7.18259329687500 -2.59690728437500 
 N -2.38271099062500 -6.26263229687500 -3.70377128437500 
 N -3.08935499062500 -6.84332129687500 9.937571562499992E-002
 N -0.227052990625000 -3.28997629687500 -2.57555328437500 
 N -2.30974099062500 -2.51662229687500 -3.83465728437500 
 N -3.19179599062500 -2.95797029687500 -4.181728437500021E-002
 S -0.845259990625000 -6.71779229687500 -4.07346328437500 
 S -3.88801999062500 -6.44825829687500 -1.30488928437500 
 S -1.48994099062500 -7.17738929687500 -8.913628437500010E-002
 S -0.758429990625000 -2.93491129687500 -4.13098228437500 
 S -3.95772399062500 -2.64046829687500 -1.51704928437500 
 S -1.56633399062500 -3.31181729687500 -0.120209284375000 
