16

 C -2.36929323125000 -6.53083595000000 -2.49633188125000 
 C -1.25481323125000 -7.01905995000000 -1.72877288125000 
 C -2.37491023125000 -2.85586095000000 -2.54095688125000 
 C -1.16629323125000 -3.39062695000000 -1.86978288125000 
 N -0.102098231250003 -7.19950995000000 -2.38530388125000 
 N -2.10089123125000 -6.40168095000000 -3.81739588125000 
 N -3.14841723125000 -6.82694395000000 -2.530288125000224E-002
 N -5.757923125000364E-002 -3.46922695000000 -2.60041988125000 
 N -2.22713023125000 -2.69688395000000 -3.84614388125000 
 N -2.94110623125000 -3.10612395000000 -8.194788125000230E-002
 S -0.544818231250003 -6.90014795000000 -3.95468388125000 
 S -3.77058723125000 -6.28058895000000 -1.48607288125000 
 S -1.59645523125000 -7.31233495000000 -7.531288125000213E-002
 S -0.655934231250003 -3.09700095000000 -4.16165688125000 
 S -3.71363523125000 -2.68262495000000 -1.49558988125000 
 S -1.39050023125000 -3.65658295000000 -0.209445881250002 
