16

 C -2.33845097812500 -6.54765643437500 -2.49986170312500 
 C -1.13478997812500 -6.84032243437500 -1.74696770312500 
 C -2.36028697812500 -3.41675343437500 -2.23168670312500 
 C -1.12392097812500 -3.52071743437500 -1.55221970312500 
 N -8.038497812499923E-002 -7.05856143437500 -2.51761970312500 
 N -2.22106197812500 -6.64498243437500 -3.82763270312500 
 N -2.94027697812500 -6.61038143437500 2.621829687500221E-002
 N -6.386297812499908E-002 -3.60304543437500 -2.37476070312500 
 N -2.28297597812500 -3.45431043437500 -3.55594070312500 
 N -2.92726897812500 -3.40964243437500 0.264358296875002 
 S -0.595955978125000 -6.86807643437500 -4.09472170312500 
 S -3.69084197812500 -6.29486243437500 -1.37200070312500 
 S -1.28938497812500 -6.92080743437500 -5.497270312499802E-002
 S -0.682670978125000 -3.57285643437500 -3.94876170312500 
 S -3.70665297812500 -3.25522043437500 -1.21511770312500 
 S -1.27242197812500 -3.52287243437500 0.186495296875002 
