16

 C -2.19225297500000 -6.42498602187500 -2.38243075625000 
 C -0.885057975000003 -6.71841702187500 -1.81073075625000 
 C -2.52888197500000 -2.84332402187500 -2.43754675625000 
 C -1.35623997500000 -3.17587102187500 -1.73409575625000 
 N 0.148545024999997 -6.79730002187500 -2.65282875625000 
 N -2.14336397500000 -6.27764802187500 -3.69348175625000 
 N -2.64209797500000 -6.68809702187500 0.142723243750001 
 N -0.303147975000003 -3.28628602187500 -2.50280175625000 
 N -2.37455397500000 -2.70346702187500 -3.74003675625000 
 N -3.22449097500000 -2.84780402187500 4.826124375000163E-002
 S -0.553700975000003 -6.46863602187500 -4.15706575625000 
 S -3.48442597500000 -6.39725502187500 -1.23774875625000 
 S -1.04684697500000 -7.10162802187500 -0.108999756249998 
 S -0.787111975000003 -3.07718102187500 -4.08218975625000 
 S -3.93592397500000 -2.48630802187500 -1.43226475625000 
 S -1.63059297500000 -3.39835902187500 -0.100046756249998 
