16

 C -2.80038987500000 -6.41456303750000 -2.48566872500000 
 C -1.58887687500000 -6.78104803749999 -1.77578272500000 
 C -2.34576987500000 -2.89501703749999 -2.24775772500000 
 C -1.10449587500000 -3.30947003749999 -1.61101872500000 
 N -0.534278874999998 -6.90529703750000 -2.58349772500000 
 N -2.63031487500000 -6.20168003749999 -3.80479772500000 
 N -3.35182687500000 -6.60672903749999 3.363327499999991E-002
 N -8.852187499999786E-002 -3.32899403749999 -2.47486772500000 
 N -2.21834287500000 -2.72035503749999 -3.56057672500000 
 N -2.86185787500000 -3.11478803749999 0.245599275000000 
 S -1.05052287500000 -6.46756903750000 -4.08618372500000 
 S -4.13993787500000 -6.08923103749999 -1.35963972500000 
 S -1.73624187500000 -6.99841603749999 -6.571972500000034E-002
 S -0.690641874999998 -3.16061803749999 -4.00112372500000 
 S -3.66130387500000 -2.84784403749999 -1.18843372500000 
 S -1.27834687500000 -3.48673503749999 0.114158275000000 
