16

 C -2.36340787812500 -6.37248104687500 -2.26695101562500 
 C -1.12587387812500 -6.85649304687500 -1.66374101562500 
 C -2.38122887812500 -2.72605704687500 -2.46873301562500 
 C -1.19008587812500 -3.12536504687500 -1.82756401562500 
 N -8.337087812499799E-002 -6.94489304687500 -2.51667201562500 
 N -2.29298087812500 -6.12024704687500 -3.56648401562500 
 N -2.92924087812500 -6.74609004687500 0.285913984375001 
 N -0.165596878124998 -3.10656004687500 -2.69111301562500 
 N -2.31766787812500 -2.37412604687500 -3.76563501562500 
 N -2.98797287812500 -3.12700704687500 -2.233501562499884E-002
 S -0.710231878124998 -6.46682904687500 -4.01596101562500 
 S -3.63915987812500 -6.24813004687500 -1.12944601562500 
 S -1.31767887812500 -7.21321504687500 9.937098437500125E-002
 S -0.744620878124998 -2.71085904687500 -4.21278601562500 
 S -3.78093787812500 -2.56564104687500 -1.40933601562500 
 S -1.32097487812500 -3.48514904687500 -0.105282015624999 
