16

 C -2.50891395625000 -6.49562529062501 -2.38810090312500 
 C -1.33273195625000 -6.97620429062501 -1.75025790312500 
 C -2.57963495625000 -2.70654429062501 -2.51547590312500 
 C -1.33389995625000 -3.17994229062501 -1.83257090312500 
 N -0.339674956249999 -7.18323529062501 -2.58259590312500 
 N -2.36670595625000 -6.26737929062501 -3.68909090312500 
 N -3.09939395625000 -6.82442029062501 0.103491096874998 
 N -0.239280956249999 -3.28051429062501 -2.58259390312500 
 N -2.31239995625000 -2.50616629062501 -3.81974890312500 
 N -3.18864895625000 -2.97421729062501 -4.058790312500205E-002
 S -0.848463956249999 -6.72004729062501 -4.06464690312500 
 S -3.87804395625000 -6.44744129062501 -1.30824790312500 
 S -1.50814495625000 -7.17579429062501 -8.439990312500179E-002
 S -0.749859956249999 -2.92531529062501 -4.12890990312500 
 S -3.94943795625000 -2.65121429062501 -1.51599390312500 
 S -1.56417595625000 -3.31489029062501 -0.129356903125002 
