16

 C -2.35203697500000 -6.37244920937500 -2.13320471562500 
 C -1.12562197500000 -6.95431420937500 -1.56835171562500 
 C -2.26760997500000 -2.77575120937500 -2.65574471562500 
 C -1.07695197500000 -3.10954220937500 -1.87610471562500 
 N -0.139214975000002 -7.00160920937500 -2.47085571562500 
 N -2.34362197500000 -6.08932620937500 -3.42790171562500 
 N -2.91244597500000 -6.98455920937500 0.284037284375000 
 N -3.114097500000135E-002 -3.22710420937500 -2.65429271562500 
 N -2.04796197500000 -2.67832620937500 -3.94937271562500 
 N -2.85663897500000 -2.59358920937500 -0.135169715625000 
 S -0.752664975000002 -6.39209520937500 -3.87254871562500 
 S -3.68635497500000 -6.41899720937500 -1.00951371562500 
 S -1.29569497500000 -7.43893320937500 7.495128437499976E-002
 S -0.447116975000002 -3.05142920937500 -4.27117571562500 
 S -3.57023797500000 -2.30673520937500 -1.64871371562500 
 S -1.30939097500000 -3.21950820937500 -0.160519715625000 
