16

 C -2.40553639375000 -6.64366488750000 -2.45093371562500 
 C -1.16137539375000 -6.91407888750000 -1.77227371562500 
 C -2.27862539375000 -3.42582688750000 -2.25052971562500 
 C -1.02165039375000 -3.57925588750000 -1.54093771562500 
 N -8.863239375000287E-002 -7.05632888750000 -2.58571671562500 
 N -2.23383739375000 -6.59365488750000 -3.77400171562500 
 N -2.87250739375000 -6.58121488750000 0.100653284374998 
 N 1.265660624999665E-002 -3.62007188750000 -2.39231571562500 
 N -2.24274739375000 -3.53445288750000 -3.55052871562500 
 N -2.92211839375000 -3.37261688750000 0.253712284374998 
 S -0.620087393750003 -6.89481188750000 -4.11559371562500 
 S -3.65492139375000 -6.29796188750000 -1.37597471562500 
 S -1.26770539375000 -6.90066088750000 -4.980471562500188E-002
 S -0.608377393750003 -3.58954588750000 -3.89341871562500 
 S -3.69792139375000 -3.20924588750000 -1.21282871562500 
 S -1.21950439375000 -3.53729188750000 0.219145284374998 
