16

 C -2.31064589687500 -6.48857090000000 -2.41032742812500 
 C -1.13006289687500 -6.94557090000000 -1.73172342812500 
 C -2.59521589687500 -2.68466490000000 -2.60013442812500 
 C -1.30280189687500 -3.01233190000000 -1.95049642812500 
 N -6.904589687500007E-002 -7.26854290000000 -2.54507542812500 
 N -2.14516889687500 -6.26595490000000 -3.71558842812500 
 N -2.88962689687500 -6.29083790000000 0.110551571875000 
 N -0.247439896875001 -3.21019690000000 -2.77393042812500 
 N -2.51106089687500 -2.62317990000000 -3.92834242812500 
 N -3.14772389687500 -2.90516190000000 -4.917142812500042E-002
 S -0.633082896875001 -6.87032890000000 -4.08408042812500 
 S -3.62906089687500 -6.02951590000000 -1.35637842812500 
 S -1.36193789687500 -6.79163290000000 2.249557187499973E-002
 S -0.904833896875001 -2.80737890000000 -4.24330142812500 
 S -3.97796089687500 -2.58418190000000 -1.47550542812500 
 S -1.47178389687500 -3.08950490000000 -0.206272428125000 
