16

 C -2.31079681874999 -6.54461259375000 -2.40817326875000 
 C -1.06024481874999 -7.04815259375000 -1.82621426875000 
 C -2.40844881874999 -2.99484059375000 -2.40772026875000 
 C -1.15937581874999 -3.29499459375000 -1.75476226875000 
 N -5.505681874999180E-002 -7.05923959375000 -2.70124926875000 
 N -2.21047881874999 -6.07116159375000 -3.65430326875000 
 N -2.83638181874999 -6.77449759375000 0.132364731250001 
 N -0.137556818749991 -3.38234559375000 -2.56430426875000 
 N -2.28658181874999 -2.86974659375000 -3.76228026875000 
 N -2.96054681874999 -3.45220159375000 3.815073125000068E-002
 S -0.723188818749992 -6.50523859375000 -4.16794226875000 
 S -3.58059681874999 -6.28538159375000 -1.24504826875000 
 S -1.25253281874999 -7.35789259375000 -5.791026874999927E-002
 S -0.690769818749992 -3.13866759375000 -4.08844326875000 
 S -3.76667481874999 -2.82770959375000 -1.32382226875000 
 S -1.31997781874999 -3.66475959375000 -9.880326874999934E-002
