16

 C -2.17888157500000 -6.52080348437500 -2.50435060000000 
 C -1.02927257500000 -7.08990348437500 -1.81817160000000 
 C -2.67626657500000 -2.36123848437500 -2.40279660000000 
 C -1.46036057500000 -2.93368748437500 -1.76015360000000 
 N -1.479357500000056E-002 -7.31585648437500 -2.60533960000000 
 N -2.07567957500000 -6.38446148437500 -3.82244060000000 
 N -2.69996557500000 -6.54564948437500 4.141940000000077E-002
 N -0.471658575000000 -3.25281248437500 -2.60020560000000 
 N -2.52701857500000 -2.20404948437500 -3.72249760000000 
 N -3.24193757500000 -2.65155248437500 3.760440000000087E-002
 S -0.457739575000001 -6.84370948437500 -4.15699060000000 
 S -3.47381357500000 -6.11322448437500 -1.37388760000000 
 S -1.24778757500000 -7.32566948437500 -0.132546599999999 
 S -1.01469857500000 -2.86707248437500 -4.14605160000000 
 S -3.89003957500000 -1.87134448437500 -1.30322560000000 
 S -1.66994557500000 -3.19001648437500 -3.671759999999913E-002
