16

 C -2.23839912187501 -6.41017092187500 -2.12610853750000 
 C -1.04132812187501 -6.94498992187500 -1.50072253750000 
 C -2.38419812187501 -2.67998492187500 -2.27006653750000 
 C -1.19755312187501 -3.32745892187500 -1.71797253750000 
 N -3.340912187500766E-002 -7.24561392187500 -2.32751953750000 
 N -2.07549912187501 -6.20107092187500 -3.43308253750000 
 N -2.90746412187501 -6.74422592187500 0.289884462499998 
 N -0.218976121875007 -3.32821392187500 -2.59536753750000 
 N -2.28347812187501 -2.30714592187500 -3.52614353750000 
 N -2.94755212187501 -3.12738992187500 0.178858462499998 
 S -0.582995121875007 -6.79365192187500 -3.84877853750000 
 S -3.60009412187501 -6.38849392187500 -1.13580053750000 
 S -1.31274812187501 -7.24920392187500 0.158767462499998 
 S -0.728181121875007 -2.76391192187500 -4.03537253750000 
 S -3.70933412187501 -2.63187292187500 -1.19505553750000 
 S -1.37651312187501 -3.63075892187500 -6.841153750000184E-002
