16

 C -2.31774366875001 -6.32119152812500 -2.57386092187500 
 C -1.05468266875001 -6.55497252812500 -1.93434692187500 
 C -2.78904066875001 -2.80294552812500 -2.35052492187500 
 C -1.61294766875001 -3.26237752812500 -1.73116892187500 
 N -0.126134668750009 -6.83851452812500 -2.81459292187500 
 N -2.36213166875001 -6.36482252812500 -3.89135092187500 
 N -2.76389666875001 -6.36169152812500 -2.528692187499826E-002
 N -0.540569668750009 -3.47960452812500 -2.52376392187500 
 N -2.70341466875001 -2.61778152812500 -3.67245892187500 
 N -3.28658066875001 -2.82773052812500 0.191913078125002 
 S -0.798671668750009 -6.74472152812500 -4.33227192187500 
 S -3.61103066875001 -6.07350652812500 -1.43029092187500 
 S -1.16746966875001 -6.72025652812500 -0.212537921874998 
 S -1.14541866875001 -3.06099752812500 -4.04984092187500 
 S -4.11702266875001 -2.51611052812500 -1.22492192187500 
 S -1.70586866875001 -3.21954652812500 5.548407812500167E-002
