16

 C -2.66050933750000 -6.49083707812500 -2.46463470937500 
 C -1.46449233750000 -6.96821707812500 -1.81631070937500 
 C -2.18236433750000 -2.85992407812500 -2.36574570937500 
 C -1.04946033750000 -3.39653507812500 -1.74556270937500 
 N -0.426760337500005 -7.22232107812500 -2.58472370937500 
 N -2.41680933750000 -6.23827407812500 -3.71584970937500 
 N -3.34774533750000 -6.80611907812500 -4.732370937499697E-002
 N -4.110233750000436E-002 -3.54556407812500 -2.56878970937500 
 N -2.04332433750000 -2.58655407812500 -3.64270470937500 
 N -2.86493733750000 -3.29210107812500 4.565229062500298E-002
 S -0.915119337500005 -6.72522407812500 -4.10279470937500 
 S -4.01360433750000 -6.24722107812500 -1.48257070937500 
 S -1.71758033750000 -7.26789807812500 -0.158511709374997 
 S -0.490075337500005 -3.01856407812500 -4.10454570937500 
 S -3.56162333750000 -2.76793407812500 -1.34693670937500 
 S -1.21778233750000 -3.64906907812500 -2.327970937499702E-002
