16

 C -2.52502778437500 -6.72965299062500 -2.28728550937500 
 C -1.28096878437500 -7.09714799062500 -1.75914850937500 
 C -2.29263678437500 -3.12181299062500 -2.31058850937500 
 C -1.05699978437500 -3.63131899062500 -1.76080250937500 
 N -0.326942784375002 -7.27393399062500 -2.67685450937500 
 N -2.57050578437500 -6.71944199062500 -3.61987950937500 
 N -2.89724878437500 -6.76818899062500 0.211751490625000 
 N -8.724678437500266E-002 -3.82710099062500 -2.65503650937500 
 N -2.22827178437500 -2.94862399062500 -3.65214650937500 
 N -2.72924178437500 -3.38236899062500 0.208893490625000 
 S -1.00884278437500 -6.98490899062500 -4.14200050937500 
 S -3.72579378437500 -6.41161899062500 -1.16827450937500 
 S -1.30124078437500 -7.14338899062500 2.076349062500027E-002
 S -0.659522784375002 -3.40435999062500 -4.06700250937500 
 S -3.58652378437500 -2.85365999062500 -1.14490350937500 
 S -1.14429078437500 -3.85594699062500 -2.150550937499984E-002
