16

 C -2.61391746250000 -6.66964521562500 -2.36247908750000 
 C -1.38939946250000 -7.07432021562500 -1.69241908750000 
 C -2.52144246250000 -2.88925521562500 -2.34096608750000 
 C -1.26808346250000 -3.41631321562500 -1.85111208750000 
 N -0.396072462499999 -7.29575721562500 -2.53664008750000 
 N -2.44805846250000 -6.52981421562500 -3.68578808750000 
 N -3.12433446250000 -6.81798321562500 0.138241912499999 
 N -0.332397462499999 -3.65412121562500 -2.74961108750000 
 N -2.42073946250000 -2.63161421562500 -3.65934308750000 
 N -2.89812446250000 -3.29662121562500 0.167383912499999 
 S -0.832331462499999 -6.82916621562500 -4.03992808750000 
 S -3.91362946250000 -6.57265721562500 -1.26267808750000 
 S -1.51448246250000 -7.30158321562500 -1.365708750000127E-002
 S -0.929736462499999 -3.15809021562500 -4.21438308750000 
 S -3.75452146250000 -2.68047621562500 -1.14024508750000 
 S -1.26748846250000 -3.55452321562500 -7.011808750000093E-002
