16

 C -2.55339052187500 -6.56897570937500 -2.45539001875000 
 C -1.31584352187500 -7.00352170937500 -1.90775001875000 
 C -2.57276452187500 -2.76856970937500 -2.53722501875000 
 C -1.42257152187500 -3.15171870937500 -1.83894901875000 
 N -0.332791521875004 -7.04463670937500 -2.80222201875000 
 N -2.48293352187500 -6.32939770937500 -3.76597701875000 
 N -2.97912152187500 -6.97582870937500 7.107198124999869E-002
 N -0.361728521875004 -3.45264570937500 -2.57459001875000 
 N -2.39749852187500 -2.71063270937500 -3.83293301875000 
 N -3.24087152187500 -2.75190270937500 -2.518901875000124E-002
 S -0.959774521875004 -6.61372270937500 -4.26579301875000 
 S -3.83198752187500 -6.46984570937500 -1.25939601875000 
 S -1.36816352187500 -7.24818470937500 -0.197798018750001 
 S -0.783398521875004 -3.11742270937500 -4.14319501875000 
 S -3.90033752187500 -2.38808170937500 -1.51997601875000 
 S -1.69444652187500 -3.25497870937500 -9.317001875000130E-002
