16

 C -2.21619845000000 -6.18234453437500 -2.45535317812500 
 C -1.10489145000000 -6.86440653437500 -1.87371817812500 
 C -2.27981745000000 -2.90659153437500 -2.35665017812500 
 C -1.02102245000000 -3.46621153437500 -1.84836917812500 
 N -0.112762450000000 -7.12399753437500 -2.70567717812500 
 N -2.06722545000000 -5.99208353437500 -3.75424817812500 
 N -2.97340745000000 -6.79274353437500 -0.135178178124999 
 N -5.043145000000049E-002 -3.61124453437500 -2.73589217812500 
 N -2.16131045000000 -2.53290853437500 -3.62169817812500 
 N -2.64558345000000 -3.14474553437500 0.200271821875001 
 S -0.608668450000001 -6.58834453437500 -4.18877417812500 
 S -3.60933745000000 -6.10664753437500 -1.48307217812500 
 S -1.36569045000000 -7.14972853437500 -0.191157178124999 
 S -0.683445450000000 -3.03130753437500 -4.17898717812500 
 S -3.56282345000000 -2.69652453437500 -1.16448017812500 
 S -1.07477145000000 -3.70813253437500 -0.101880178124999 
