16

 C -2.26067010000000 -6.39459818125000 -2.41959165937500 
 C -1.00618410000000 -6.79732018125000 -1.82376065937500 
 C -2.55305110000000 -2.78337918125000 -2.54230065937500 
 C -1.40824210000000 -3.32766818125000 -1.82608265937500 
 N 1.500889999999888E-002 -6.97115218125000 -2.64432465937500 
 N -2.18690810000000 -6.25053218125000 -3.73779765937500 
 N -2.80805710000000 -6.78073518125000 8.388334062499858E-002
 N -0.325006100000001 -3.56757618125000 -2.54742265937500 
 N -2.34923210000000 -2.64022218125000 -3.84974865937500 
 N -3.29572110000000 -2.91669418125000 -0.139560659375001 
 S -0.572383100000001 -6.58023118125000 -4.15109665937500 
 S -3.57174810000000 -6.32798118125000 -1.30356465937500 
 S -1.16620010000000 -6.88218418125000 -6.861065937500155E-002
 S -0.789051100000002 -3.23787118125000 -4.12823765937500 
 S -3.96094910000000 -2.43715418125000 -1.55207965937500 
 S -1.70303710000000 -3.32746918125000 -0.124659659375001 
