16

 C -2.50855718125001 -6.43305764375000 -2.49237336562500 
 C -1.20329718125001 -6.70690264375000 -1.95078836562500 
 C -2.66987418125001 -2.71310764375000 -2.32424236562500 
 C -1.43344718125001 -3.22005864375000 -1.70306036562500 
 N -0.196535181250008 -6.86426964375000 -2.79564036562500 
 N -2.45417718125001 -6.26787664375000 -3.79182236562500 
 N -2.85870118125001 -6.35756164375000 4.233663437500113E-002
 N -0.482631181250008 -3.62040864375000 -2.55720136562500 
 N -2.64683218125001 -2.67575164375000 -3.64929836562500 
 N -3.19690618125001 -2.98739164375000 0.177581634375001 
 S -0.862221181250008 -6.56744764375000 -4.30127136562500 
 S -3.76547118125001 -6.13198264375000 -1.34017036562500 
 S -1.24328318125001 -6.62447464375000 -0.206104365624999 
 S -1.11132318125001 -3.16083164375000 -4.08114836562500 
 S -4.08018418125001 -2.62579864375000 -1.20484736562500 
 S -1.59217318125001 -3.39403164375000 2.890563437500115E-002
