16

 C -2.47408222500000 -6.46198194687500 -2.32440843125000 
 C -1.19603922500000 -6.85886694687500 -1.72406743125000 
 C -2.54173422500000 -2.81047294687500 -2.37136643125000 
 C -1.35480722500000 -3.25582194687500 -1.70761343125000 
 N -0.176744224999999 -7.02234294687500 -2.58567843125000 
 N -2.42842022500000 -6.37660594687500 -3.66397843125000 
 N -2.97073222500000 -6.91985394687500 0.176751568750001 
 N -0.260089224999999 -3.37379494687500 -2.44455543125000 
 N -2.40502922500000 -2.75236794687500 -3.69685343125000 
 N -3.08579722500000 -2.91481694687500 0.173423568750001 
 S -0.867795224999999 -6.64769194687500 -4.09602843125000 
 S -3.75408422500000 -6.49814094687500 -1.21240443125000 
 S -1.30314322500000 -7.21129594687500 2.733856875000140E-002
 S -0.839893224999999 -3.09515694687500 -4.09785743125000 
 S -3.83621322500000 -2.48637094687500 -1.23052643125000 
 S -1.53146022500000 -3.50484694687500 -3.007343124999862E-002
