16

 C -2.35415170625000 -6.28398825625000 -2.66750309375000 
 C -1.21837170625000 -6.81454825625000 -1.96165509375000 
 C -2.52974470625000 -2.83149325625000 -2.59408909375000 
 C -1.27261270625000 -3.03033925625000 -1.88028009375000 
 N -0.149942706250004 -6.90529725625000 -2.77271309375000 
 N -2.16597870625000 -6.01037125625000 -3.96705509375000 
 N -3.10471670625000 -6.42840225625000 -0.221866093750002 
 N -0.191430706250004 -3.12537825625000 -2.65259009375000 
 N -2.32917170625000 -2.72577725625000 -3.89907509375000 
 N -3.08761370625000 -2.90719125625000 -8.996109375000216E-002
 S -0.589020706250004 -6.34941925625000 -4.24316409375000 
 S -3.77553970625000 -5.90420625625000 -1.68736609375000 
 S -1.48243870625000 -6.83368525625000 -0.259272093750002 
 S -0.679597706250004 -2.87772225625000 -4.19983009375000 
 S -3.85000770625000 -2.66334025625000 -1.50610909375000 
 S -1.48062570625000 -3.20939225625000 -0.157673093750002 
