16

 C -2.30709096875000 -6.28356643750000 -2.26808119375000 
 C -1.16830296875000 -6.77174543750000 -1.55197419375000 
 C -2.34712396875000 -2.50181143750000 -2.11525419375000 
 C -1.16762196875000 -3.13602343750000 -1.65637519375000 
 N -0.161202968749997 -7.03987843750000 -2.35472319375000 
 N -2.21999396875000 -6.22395943750000 -3.61058819375000 
 N -2.99853396875000 -6.62662243750000 0.143244806250000 
 N -0.138226968749997 -3.24738243750000 -2.50098619375000 
 N -2.12827296875000 -1.94751443750000 -3.30640419375000 
 N -2.85167196875000 -3.43644543750000 0.211295806250000 
 S -0.652183968749997 -6.66595743750000 -3.91442319375000 
 S -3.74812396875000 -6.09124643750000 -1.31748019375000 
 S -1.41828396875000 -7.03889843750000 0.101288806250000 
 S -0.682479968749997 -2.41420643750000 -3.88636519375000 
 S -3.62380196875000 -2.48968643750000 -0.946249193750000 
 S -1.27547596875000 -3.80414843750000 -4.491819374999961E-002
