16

 C -2.59076217500000 -6.53645390937500 -2.36559944062500 
 C -1.32815817500000 -6.90894390937500 -1.76201344062500 
 C -2.34420917500000 -2.96595190937500 -2.39218644062500 
 C -1.13362917500000 -3.39985890937500 -1.75613544062500 
 N -0.356229174999998 -7.04588290937500 -2.65227044062500 
 N -2.58389917500000 -6.30883290937500 -3.68120844062500 
 N -2.95444017500000 -6.66552690937500 0.168710559375001 
 N -0.109094174999998 -3.59796690937500 -2.57274744062500 
 N -2.20935617500000 -2.80241490937500 -3.69629144062500 
 N -2.91382117500000 -3.20414890937500 0.100343559375001 
 S -1.01854317500000 -6.67031090937500 -4.13259744062500 
 S -3.80132917500000 -6.25026190937500 -1.18852344062500 
 S -1.33834817500000 -6.97573390937500 -7.104844062499938E-002
 S -0.627727174999998 -3.19448790937500 -4.14506344062500 
 S -3.64600017500000 -2.74103690937500 -1.33052544062500 
 S -1.27325517500000 -3.53746690937500 -3.542244062499922E-002
