16

 C -2.35935978125000 -6.46033018750001 -2.56564547500000 
 C -1.19316478125000 -6.80930518750001 -1.76282347500000 
 C -2.63488378125000 -2.84879118750001 -2.42004447500000 
 C -1.42840778125000 -3.16867018750001 -1.69361247500000 
 N -0.137889781249999 -6.91229018750001 -2.52926447500000 
 N -2.20603878125000 -6.43417618750001 -3.88457347500000 
 N -3.01276478125000 -6.52282218750001 -9.380475000001054E-003
 N -0.350960781250000 -3.12325618750001 -2.44351147500000 
 N -2.40928278125000 -2.62165618750001 -3.71399147500000 
 N -3.35002878125000 -3.10422818750001 -3.950547500000101E-002
 S -0.564882781250000 -6.61978318750001 -4.09017347500000 
 S -3.75174178125000 -6.26325018750001 -1.47467947500000 
 S -1.39094678125000 -6.80525518750001 -8.699947500000116E-002
 S -0.783455781250000 -2.85504118750001 -4.03790047500000 
 S -3.97791378125000 -2.47673118750001 -1.42503547500000 
 S -1.67220778125000 -3.33913818750001 -3.855647500000114E-002
