16

 C -2.45361445625000 -6.58389841250001 -2.25629507500000 
 C -1.18153745625000 -6.78206341250001 -1.56057407500000 
 C -2.40955845625000 -2.80235641250001 -2.56289607500000 
 C -1.17454845625000 -3.24395741250001 -1.96270907500000 
 N -0.140177456249996 -6.84282941250001 -2.37521307500000 
 N -2.37056445625000 -6.46622941250001 -3.59165607500000 
 N -2.90844645625000 -6.81899541250001 0.233800924999999 
 N -0.162583456249997 -3.52391241250001 -2.77980207500000 
 N -2.26141345625000 -2.57544041250001 -3.88778407500000 
 N -2.80436145625000 -2.96776041250001 -1.453207500000131E-002
 S -0.747425456249996 -6.70303641250001 -3.89417207500000 
 S -3.78955545625000 -6.73808241250001 -1.17274407500000 
 S -1.31344945625000 -7.00968141250001 9.257792499999873E-002
 S -0.793262456249996 -3.08845541250001 -4.27981807500000 
 S -3.60428045625000 -2.41222841250001 -1.39132807500000 
 S -1.21601745625000 -3.40610741250001 -0.229967075000001 
