16

 C -2.41715505625000 -6.34751842187500 -2.48124452187500 
 C -1.21337105625000 -6.60235742187500 -1.74518652187500 
 C -2.25217905625000 -2.89612842187500 -2.41059752187500 
 C -1.01291505625000 -3.19094842187500 -1.82647652187500 
 N -0.124358056250004 -6.71075142187500 -2.50630252187500 
 N -2.24543805625000 -6.26984142187500 -3.82372352187500 
 N -3.05758605625000 -6.46953642187500 4.547947812500008E-002
 N -6.853056250003320E-003 -3.29040842187500 -2.71435152187500 
 N -2.20218605625000 -2.72704142187500 -3.73696652187500 
 N -2.66080505625000 -3.25519342187500 7.384347812500014E-002
 S -0.639411056250004 -6.61423142187500 -4.09269652187500 
 S -3.81526505625000 -6.13096642187500 -1.42325152187500 
 S -1.46043205625000 -6.80398842187500 6.052478125000205E-003
 S -0.616216056250003 -2.98897142187500 -4.16109952187500 
 S -3.54555205625000 -2.84673042187500 -1.25256152187500 
 S -1.01991005625000 -3.53429642187500 -0.112596521875000 
