16

 C -2.57555633750000 -6.21963040625000 -2.48684515937500 
 C -1.40311733750000 -6.80745940625000 -1.87959915937500 
 C -2.42536033750000 -2.38151240625000 -2.53659815937500 
 C -1.25944833750000 -2.95632140625000 -1.84277215937500 
 N -0.400427337499997 -7.11654040625000 -2.68883315937500 
 N -2.43834333750000 -6.07949040625000 -3.82176515937500 
 N -2.96803733750000 -6.30398740625000 6.756884062499857E-002
 N -0.276283337499998 -3.25841440625000 -2.63695915937500 
 N -2.31259633750000 -2.37801440625000 -3.85271715937500 
 N -3.06807033750000 -2.60241440625000 -3.772815937500140E-002
 S -0.934493337499998 -6.67396040625000 -4.19173915937500 
 S -3.80274933750000 -5.86178140625000 -1.32837815937500 
 S -1.50294733750000 -7.11051940625000 -0.167307159375002 
 S -0.839691337499998 -2.96116540625000 -4.27281215937500 
 S -3.75952633750000 -2.07837240625000 -1.46384415937500 
 S -1.44775533750000 -2.96760940625000 -0.158625159375002 
