16

 C -2.35832908125000 -6.30162739062501 -2.15144130000000 
 C -1.16070508125000 -6.88187739062501 -1.60505230000000 
 C -2.22467208125000 -2.74946139062501 -2.63901230000000 
 C -1.03702508125000 -3.10303939062501 -1.91918730000000 
 N -0.143839081249997 -7.01648439062501 -2.46020230000000 
 N -2.33497308125000 -6.09745239062501 -3.48996830000000 
 N -2.86560308125000 -6.91120539062501 0.377568700000000 
 N 0.100244918750004 -3.21886939062501 -2.63194030000000 
 N -2.04529308125000 -2.62567239062501 -3.96549230000000 
 N -2.92000608125000 -2.68208939062501 -0.168188300000000 
 S -0.758543081249996 -6.48825639062501 -3.91814730000000 
 S -3.74572408125000 -6.45257439062501 -0.980850300000000 
 S -1.32386108125000 -7.46157639062501 5.432069999999989E-002
 S -0.458268081249996 -3.02293639062501 -4.19143830000000 
 S -3.59446908125000 -2.29012039062501 -1.62214830000000 
 S -1.30679308125000 -3.18331939062501 -0.178375300000000 
