16

 C -2.58197298124999 -6.60787536562500 -2.34733118750000 
 C -1.34514498124999 -6.93234236562500 -1.68446618750000 
 C -2.61115898124999 -2.84566436562500 -2.46641818750000 
 C -1.37961798124999 -3.24575936562500 -1.90825518750000 
 N -0.325718981249994 -7.16422136562500 -2.49142818750000 
 N -2.43796098124999 -6.53357436562500 -3.66269218750000 
 N -3.18297598124999 -6.47519836562500 0.118509812499999 
 N -0.338336981249994 -3.39888236562500 -2.74248918750000 
 N -2.59406198124999 -2.62766736562500 -3.79527418750000 
 N -3.03699498124999 -2.89245436562500 8.471881249999846E-002
 S -0.876192981249995 -6.84993436562500 -4.02461418750000 
 S -3.91824498124999 -6.18295336562500 -1.34120918750000 
 S -1.56846998124999 -6.83332436562500 2.406581249999862E-002
 S -1.05641998124999 -3.04114736562500 -4.23142918750000 
 S -3.90823998124999 -2.50663236562500 -1.29609318750000 
 S -1.44974798124999 -3.36429736562500 -0.195495187500001 
