16

 C -2.47261350937500 -6.36829431874999 -2.58985805312500 
 C -1.28447850937500 -6.73610331874999 -1.82249705312500 
 C -2.43344250937499 -2.90103931874999 -2.53607305312500 
 C -1.15579050937500 -3.12132031874999 -1.87277305312500 
 N -0.191313509374996 -6.77086631874999 -2.59095805312500 
 N -2.34618250937500 -6.17913031874999 -3.90656205312500 
 N -3.04635850937500 -6.47811631874999 -6.372105312499721E-002
 N -8.598350937499522E-002 -3.28407131874999 -2.68114605312500 
 N -2.32586750937500 -2.86964731874999 -3.88817105312500 
 N -2.95000850937500 -2.75212831874999 -4.232805312499721E-002
 S -0.721093509374995 -6.51992231874999 -4.13120305312500 
 S -3.80852350937499 -6.19593731874999 -1.53893605312500 
 S -1.45873950937500 -6.76395331874999 -0.156688053124997 
 S -0.759380509374995 -3.09235131874999 -4.20553505312500 
 S -3.70241050937500 -2.54690631874999 -1.47422605312500 
 S -1.36964050937500 -3.14427331874999 -0.143744053124997 
