16

 C -2.48061712500000 -6.66107364062500 -2.48461435937500 
 C -1.21556912500000 -6.81259564062500 -1.85075435937500 
 C -2.31017112500000 -3.16441064062500 -2.21268935937500 
 C -1.13519712500000 -3.67209464062500 -1.53246435937500 
 N -0.191628125000005 -7.00078764062500 -2.72537135937500 
 N -2.42393812500000 -6.56919964062500 -3.83065435937500 
 N -3.03655812500000 -6.60826264062500 8.404264062499922E-002
 N -0.104617125000004 -3.89594464062500 -2.36186735937500 
 N -2.15957612500000 -2.90492764062500 -3.51202135937500 
 N -2.91509112500000 -3.48197364062500 0.292111640624999 
 S -0.847939125000004 -6.85517864062500 -4.30500935937500 
 S -3.86933012500000 -6.41990564062500 -1.39958835937500 
 S -1.39725912500000 -6.80701564062500 -9.452735937500067E-002
 S -0.577625125000004 -3.28808264062500 -3.84080735937500 
 S -3.69355612500000 -3.18802064062500 -1.12273535937500 
 S -1.28805612500000 -3.78094464062500 0.199734640624999 
