16

 C -2.37051245625000 -6.30159330937500 -2.15180478437500 
 C -1.16945745625000 -6.87274230937500 -1.60692678437500 
 C -2.22089145625000 -2.74275630937500 -2.63618378437500 
 C -1.03005645625000 -3.10198530937500 -1.92254878437500 
 N -0.143164456249997 -7.01739130937500 -2.46199678437500 
 N -2.32671545625000 -6.09817030937500 -3.48819578437500 
 N -2.86001445625000 -6.90522430937500 0.386201215625001 
 N 0.107440543750002 -3.22059430937500 -2.62929478437500 
 N -2.04504845625000 -2.62238430937500 -3.96563378437500 
 N -2.92589645625000 -2.69133030937500 -0.170283784374998 
 S -0.759047456249998 -6.49743030937500 -3.92338678437500 
 S -3.74846145625000 -6.45430230937500 -0.980776784374998 
 S -1.32641745625000 -7.46271930937500 5.256321562500155E-002
 S -0.458952456249997 -3.01902130937500 -4.18539678437500 
 S -3.59656945625000 -2.28979730937500 -1.61987478437500 
 S -1.30757945625000 -3.17926630937500 -0.181461784374998 
