16

 C -2.41135977187500 -6.65336718750000 -2.27876305312500 
 C -1.16913377187500 -7.00071418750000 -1.72660005312500 
 C -2.58914277187500 -3.17439318750000 -2.04694005312500 
 C -1.38221877187500 -3.49111118750000 -1.36951005312500 
 N -0.177977771875003 -7.09623118750000 -2.57681805312500 
 N -2.36497777187500 -6.49659518750000 -3.58323805312500 
 N -2.91171077187500 -6.88292218750000 0.185310946874999 
 N -0.325333771875004 -3.60200918750000 -2.14017705312500 
 N -2.50833977187500 -3.09873818750000 -3.35056705312500 
 N -3.25200577187500 -3.32290318750000 0.454321946874999 
 S -0.812606771875004 -6.65447418750000 -4.04923605312500 
 S -3.71300877187500 -6.45880518750000 -1.19904205312500 
 S -1.26944177187500 -7.18794018750000 -3.178005312500054E-002
 S -0.899508771875003 -3.24162718750000 -3.66720705312500 
 S -3.97988977187500 -3.17489618750000 -1.04308405312500 
 S -1.60660077187500 -3.58571918750000 0.340258946874999 
