16

 C -2.32693079374999 -6.03316137500000 -2.29862096562500 
 C -1.18042279374999 -6.74306437500000 -1.82864496562500 
 C -2.71919779374999 -2.39902537500000 -2.68497196562500 
 C -1.50831479374999 -2.88484537500000 -2.05746896562500 
 N -0.285129793749991 -7.12450537500000 -2.71363796562500 
 N -2.30522479374999 -5.89362637500000 -3.61373696562500 
 N -2.72327779374999 -6.35875137500000 0.215434034375001 
 N -0.482104793749992 -3.10989537500000 -2.87159896562500 
 N -2.62724179374999 -2.38621037500000 -4.02346496562500 
 N -3.12399379374999 -2.39440537500000 -0.224598965624999 
 S -0.885611793749991 -6.56098237500000 -4.15110196562500 
 S -3.52964579374999 -5.75847437500000 -1.06715796562500 
 S -1.22335479374999 -7.08919737500000 -0.118649965624999 
 S -1.06963479374999 -2.76298237500000 -4.44581496562500 
 S -4.01161179374999 -2.13769037500000 -1.58095196562500 
 S -1.53676279374999 -2.87476937500000 -0.361860965624999 
