16

 C -2.45832016562500 -6.51327357187500 -2.46166760000000 
 C -1.18191116562500 -6.84103657187500 -1.85119160000000 
 C -2.66147816562500 -2.59572257187500 -2.33799160000000 
 C -1.51465816562500 -3.22586957187500 -1.72170560000000 
 N -0.135860165625002 -6.98427157187500 -2.64768560000000 
 N -2.35182116562500 -6.49337857187500 -3.78009760000000 
 N -2.86138416562500 -6.64532857187500 0.139708399999999 
 N -0.524646165625001 -3.39811757187500 -2.57478560000000 
 N -2.55715516562500 -2.47561657187500 -3.66378760000000 
 N -3.19827616562500 -2.80456057187500 0.138920399999999 
 S -0.746750165625002 -6.84726357187500 -4.21090760000000 
 S -3.65513716562500 -6.28986257187500 -1.30292360000000 
 S -1.33699916562500 -7.13289657187500 -0.152448600000001 
 S -0.961071165625002 -2.94382157187500 -4.08619560000000 
 S -3.92511516562500 -2.27949757187500 -1.22796560000000 
 S -1.75371716562500 -3.46839157187500 -5.778560000000099E-002
