16

 C -2.47369135312501 -6.84361464687499 -2.26645237187500 
 C -1.15290035312501 -7.19430864687499 -1.82466437187500 
 C -2.58780435312501 -2.77400564687499 -2.36294537187500 
 C -1.43776635312501 -3.31814264687499 -1.78918037187500 
 N -0.298114353125009 -7.34628264687499 -2.81005237187500 
 N -2.59111735312501 -6.71873164687499 -3.58688637187500 
 N -2.62468235312501 -6.92213564687499 0.270284628124999 
 N -0.450771353125009 -3.54362564687499 -2.63183937187500 
 N -2.47487135312501 -2.53764664687499 -3.66700037187500 
 N -3.18158635312501 -3.28947164687499 -1.136237187500133E-002
 S -1.08628435312501 -7.00456064687499 -4.22830837187500 
 S -3.69387435312501 -6.80082164687499 -1.07275837187500 
 S -1.04540235312501 -7.34670964687499 -7.521437187500113E-002
 S -0.969428353125009 -2.98316364687499 -4.13603637187500 
 S -3.96499535312501 -2.59761164687499 -1.35432337187500 
 S -1.54053035312501 -3.54546964687499 -6.539937187500144E-002
