16

 C -2.30421526562500 -6.90415714374999 -2.62304120937500 
 C -1.06040926562500 -7.22146014375000 -1.91817720937500 
 C -2.58536026562500 -2.77037314375000 -2.51606520937500 
 C -1.37648526562500 -3.29109614374999 -1.98017020937500 
 N -9.150826562500036E-002 -7.54759414375000 -2.71776720937500 
 N -2.22966226562500 -6.98186914374999 -3.96912020937500 
 N -2.76585526562500 -6.58885914374999 -1.889420937500352E-002
 N -0.374628265625001 -3.33158514374999 -2.84083720937500 
 N -2.53491526562500 -2.50380714375000 -3.80228120937500 
 N -2.91036626562500 -2.68139014374999 -4.310209375003593E-003
 S -0.609279265625000 -7.40474014375000 -4.32275420937500 
 S -3.50913626562500 -6.18943214375000 -1.46053220937500 
 S -1.14476626562500 -7.00740414375000 -0.194130209375003 
 S -0.991709265625000 -2.92789314375000 -4.31299320937500 
 S -3.76211726562500 -2.22064914374999 -1.41885820937500 
 S -1.38037726562500 -3.35485314375000 -0.204719209375003 
