16

 C -2.33993460000000 -6.34507842500000 -2.32294526562500 
 C -1.12863960000000 -6.85141642500000 -1.76608626562500 
 C -2.40048060000000 -2.92336542500000 -2.50128126562500 
 C -1.13976260000000 -3.32783042500000 -1.83006326562500 
 N -0.134982599999996 -7.04085542500000 -2.64996726562500 
 N -2.30425960000000 -6.15122542500000 -3.64430826562500 
 N -2.83910060000000 -6.84093342500000 0.139298734375001 
 N -0.102357599999996 -3.31382942500000 -2.65607226562500 
 N -2.35152960000000 -2.74541342500000 -3.77999926562500 
 N -2.99228560000000 -3.36361742500000 4.473734375001204E-003
 S -0.750492599999997 -6.46613642500000 -4.05674626562500 
 S -3.69752860000000 -6.41472442500000 -1.19743026562500 
 S -1.22237660000000 -7.23594742500000 -8.647626562499866E-002
 S -0.795879599999997 -2.95433542500000 -4.28538526562500 
 S -3.74195160000000 -2.93387742500000 -1.38939126562500 
 S -1.35491460000000 -3.62890042500000 -0.147244265624999 
