16

 C -2.26858706250000 -6.30179918750000 -2.08716541562500 
 C -1.13744106250000 -6.94192718750000 -1.50310141562500 
 C -2.38153806250000 -2.64006418750000 -2.26179941562500 
 C -1.22021606250000 -3.20125218750000 -1.61592641562500 
 N -0.102791062500001 -6.94161918750000 -2.33152841562500 
 N -2.14010506250000 -5.73063518750000 -3.28865841562500 
 N -2.97026606250000 -6.72826718750000 0.354709584375001 
 N -0.166313062500002 -3.45339618750000 -2.39455441562500 
 N -2.07679806250000 -2.23245118750000 -3.49562041562500 
 N -3.08493006250000 -2.99631518750000 0.208496584375001 
 S -0.598108062500001 -6.18975318750000 -3.74869341562500 
 S -3.66939306250000 -6.14234618750000 -1.02109941562500 
 S -1.34357406250000 -7.16867118750000 0.192988584375001 
 S -0.469350062500002 -2.78395918750000 -3.84751441562500 
 S -3.75922406250000 -2.48226218750000 -1.21349041562500 
 S -1.43434806250000 -3.33000318750000 0.151373584375001 
