16

 C -2.59448825312500 -6.28126291562500 -2.29168421875000 
 C -1.45676525312500 -6.92080191562500 -1.68679221875000 
 C -2.28704725312500 -2.43517191562500 -2.49399621875000 
 C -1.10371925312500 -2.97269891562500 -1.86477121875000 
 N -0.490370253125001 -7.18226791562500 -2.56759921875000 
 N -2.45986925312500 -5.92140891562500 -3.57864221875000 
 N -3.08555625312500 -6.69197191562500 0.216895781250001 
 N -0.133199253125001 -3.21969491562500 -2.73067421875000 
 N -2.17820725312500 -2.21502591562500 -3.76398621875000 
 N -2.88386125312500 -2.68667291562500 -1.948221874999856E-002
 S -0.966941253125001 -6.54808591562500 -4.05096921875000 
 S -3.89634525312500 -6.09473391562500 -1.12941321875000 
 S -1.55180325312500 -7.23951291562500 -2.401321874999862E-002
 S -0.653654253125001 -2.72688391562500 -4.20801821875000 
 S -3.56254125312500 -2.14278491562500 -1.40339821875000 
 S -1.33674425312500 -3.25812491562500 -0.138528218749999 
