16

 C -2.38009858125000 -6.60819455937500 -2.50072247500000 
 C -1.14143558125000 -7.06085655937500 -1.92220447500000 
 C -2.41306658125000 -2.93909955937500 -2.51379247500000 
 C -1.24187058125000 -3.49478755937500 -1.79583947500000 
 N -5.747458125000016E-002 -7.13288455937500 -2.71732547500000 
 N -2.25397558125000 -6.27494555937500 -3.78387347500000 
 N -2.84624158125000 -7.04678955937500 2.579352500000032E-002
 N -0.197315581250001 -3.80624555937500 -2.58219047500000 
 N -2.20930058125000 -2.68716155937500 -3.81925647500000 
 N -3.08856458125000 -3.19888255937500 -2.803147499999969E-002
 S -0.679193581250001 -6.57881455937500 -4.17751347500000 
 S -3.71810958125000 -6.64178355937500 -1.37112547500000 
 S -1.23168758125000 -7.35665955937500 -0.236771475000000 
 S -0.677011581250000 -3.28097355937500 -4.06949447500000 
 S -3.73978458125000 -2.68249055937500 -1.49618547500000 
 S -1.50202458125000 -3.70868655937500 -0.140392475000000 
