16

 C -2.36494819062499 -6.03164028750001 -2.12491611562500 
 C -1.18771219062500 -6.63343328750001 -1.62677811562500 
 C -2.57923519062500 -2.46151228750001 -2.53429911562500 
 C -1.36912519062500 -2.91538228750001 -1.85911111562500 
 N -0.251107190624995 -6.94123528750001 -2.53211911562500 
 N -2.31806719062499 -5.88420428750001 -3.43750011562500 
 N -2.77212819062500 -6.24861928750001 0.326025884375001 
 N -0.399885190624995 -3.16103428750001 -2.70298311562500 
 N -2.49683619062499 -2.39780728750001 -3.83116411562500 
 N -3.07330119062500 -2.39907128750001 -1.688311562499933E-002
 S -0.873512190624996 -6.42781028750001 -3.97433411562500 
 S -3.66296319062500 -5.88570628750001 -1.05491611562500 
 S -1.27373719062500 -6.85152728750001 8.590088437500065E-002
 S -0.949680190624996 -2.80654228750001 -4.26433411562500 
 S -3.86166119062500 -2.12571928750001 -1.44753311562500 
 S -1.55038419062500 -2.93710028750001 -0.154260115624999 
