16

 C -2.56694357500000 -6.65726087500000 -2.50155171250000 
 C -1.24089357500000 -7.08400887500000 -1.97599171250000 
 C -2.54767657500000 -2.66177287500000 -2.24178071250000 
 C -1.33532657500000 -3.12389887500000 -1.59048371250000 
 N -0.235308575000002 -7.14989687500000 -2.87798571250000 
 N -2.56398957500000 -6.49644987500000 -3.83215871250000 
 N -2.90095557500000 -6.74567987500000 -1.720371249999908E-002
 N -0.383450575000002 -3.40109987500000 -2.43821271250000 
 N -2.57435257500000 -2.64703587500000 -3.56065771250000 
 N -3.11918757500000 -2.98854187500000 0.255446287500001 
 S -1.04399957500000 -6.82427587500000 -4.30319371250000 
 S -3.78705057500000 -6.40671987500000 -1.32601671250000 
 S -1.20327057500000 -7.05717087500000 -0.169903712499999 
 S -1.00881257500000 -3.05221987500000 -3.95595771250000 
 S -3.86743057500000 -2.54133587500000 -1.12541871250000 
 S -1.57626857500000 -3.64258487500000 6.687928750000105E-002
