16

 C -2.72129805000001 -6.74420837187500 -2.33228174687500 
 C -1.42875705000001 -6.97411937187500 -1.65387974687500 
 C -2.48086405000000 -3.12046537187500 -2.46055674687500 
 C -1.11336105000001 -3.11316937187500 -1.93323474687500 
 N -0.444614050000005 -6.99833237187500 -2.50313274687500 
 N -2.73867705000001 -6.64816137187500 -3.63747574687500 
 N -3.16315205000001 -6.70888637187500 0.151233253124998 
 N -0.153242050000005 -3.23985437187500 -2.85534274687500 
 N -2.52963705000001 -3.23388037187500 -3.77192274687500 
 N -2.72735305000000 -3.10932737187500 0.140712253124998 
 S -1.07315505000000 -6.66824137187500 -4.01072974687500 
 S -4.01682105000000 -6.43036337187500 -1.19722974687500 
 S -1.49887105000001 -7.07571737187500 5.583253124998411E-003
 S -0.908745050000005 -3.24827037187500 -4.28281874687500 
 S -3.62525005000001 -2.96885537187500 -1.24740674687500 
 S -1.11060305000001 -3.34153337187500 -0.163181746875002 
