16

 C -2.48737389687500 -6.42991970000000 -2.53280170937500 
 C -1.25656289687500 -6.82990970000000 -1.85251470937500 
 C -2.69717089687500 -2.91650870000000 -2.52137870937500 
 C -1.57042289687500 -3.53187770000000 -1.89663570937500 
 N -0.181420896875003 -6.98104670000000 -2.65428670937500 
 N -2.32147989687500 -6.28023970000000 -3.83764870937500 
 N -3.18508089687500 -6.67257870000000 -3.936370937500078E-002
 N -0.527636896875003 -3.60309970000000 -2.69957170937500 
 N -2.57005989687500 -2.55005970000000 -3.78928970937500 
 N -3.34326589687500 -3.30653870000000 1.002329062499929E-002
 S -0.753051896875003 -6.67820470000000 -4.16088070937500 
 S -3.84535089687500 -6.17484370000000 -1.43706870937500 
 S -1.55022189687500 -6.99804770000000 -0.146961709375001 
 S -0.996493896875003 -3.12087870000000 -4.21353970937500 
 S -4.00034589687500 -2.82906770000000 -1.40784870937500 
 S -1.76850689687500 -3.75528170000000 -0.169678709375001 
