16

 C -2.64215534687500 -6.36825625312499 -2.28379075937500 
 C -1.45031934687499 -6.89884525312499 -1.69001675937500 
 C -2.45138834687500 -2.82022425312499 -2.39279475937500 
 C -1.19232734687500 -3.26278325312499 -1.80838975937500 
 N -0.423702346874995 -7.20495925312499 -2.48804875937500 
 N -2.54431934687500 -6.31494925312499 -3.61496175937500 
 N -3.16940334687499 -6.44902125312499 0.199521240625001 
 N -0.265417346874995 -3.44731125312499 -2.73960475937500 
 N -2.37472634687500 -2.65797725312499 -3.70440875937500 
 N -2.88103734687499 -2.93816325312499 0.100221240625001 
 S -1.04271134687500 -6.84502825312499 -3.99528575937500 
 S -3.97052934687499 -6.16521025312499 -1.23033875937500 
 S -1.63199734687499 -7.01552625312499 3.732124062500142E-002
 S -0.902436346874995 -3.15282725312499 -4.21313375937500 
 S -3.75863634687499 -2.59928425312499 -1.26597375937500 
 S -1.27714134687499 -3.31837025312499 -0.137906759374999 
