16

 C -2.44607250937500 -6.48289596875000 -2.34663391875000 
 C -1.16838350937500 -6.80298196875000 -1.72776391875000 
 C -2.58179550937500 -2.84987296875000 -2.59306691875000 
 C -1.31734950937500 -3.30581196875000 -2.05010591875000 
 N -0.126135509374999 -6.73991496875000 -2.58906191875000 
 N -2.39291150937500 -6.23961296875000 -3.66119891875000 
 N -2.97163450937500 -6.82559696875000 0.164432081250001 
 N -0.250654509374999 -3.28797896875000 -2.82645191875000 
 N -2.47546450937500 -2.52790396875000 -3.83310691875000 
 N -2.89678750937500 -3.19621696875000 -5.688991874999916E-002
 S -0.813624509374999 -6.41969496875000 -4.06669791875000 
 S -3.78970950937500 -6.50491396875000 -1.21316291875000 
 S -1.29957150937500 -7.06322696875000 1.582008125000089E-002
 S -0.922652509374998 -2.72243596875000 -4.32704291875000 
 S -3.83210950937500 -2.90776096875000 -1.41897391875000 
 S -1.30582450937500 -3.45017196875000 -0.358107918749999 
