16

 C -2.44769414687500 -6.19912380937500 -2.35169873437500 
 C -1.28651014687500 -6.85945380937500 -1.85797373437500 
 C -2.64187314687500 -2.46665980937500 -2.66189373437500 
 C -1.41435014687500 -2.86884180937500 -2.01691273437500 
 N -0.385313146875003 -7.12284880937500 -2.81642073437500 
 N -2.38201714687500 -5.91608680937500 -3.63506573437500 
 N -2.81578114687500 -6.32251280937500 0.179989265624999 
 N -0.398465146875003 -3.07863380937500 -2.88261373437500 
 N -2.56255314687500 -2.40072880937500 -3.99452273437500 
 N -3.11018714687500 -2.45681880937500 -7.427773437500074E-002
 S -0.974498146875002 -6.57214780937500 -4.24639473437500 
 S -3.58487614687500 -5.76782180937500 -1.18058573437500 
 S -1.33306214687500 -7.09760780937500 -0.103548734375001 
 S -0.989633146875002 -2.86434380937500 -4.40444073437500 
 S -3.86128614687500 -2.06571380937500 -1.51494173437500 
 S -1.52566914687500 -2.93328780937500 -0.316048734375001 
