16

 C -2.42584106562499 -6.55058440937500 -2.37149655937500 
 C -1.22308806562499 -6.99471540937500 -1.73997755937500 
 C -2.20389606562499 -2.57003140937500 -2.15921555937500 
 C -1.10571606562499 -3.34114940937500 -1.69193555937500 
 N -0.158125065624992 -7.11810940937500 -2.55584755937500 
 N -2.24483706562499 -6.31730740937500 -3.69254155937500 
 N -2.99955306562499 -6.61488040937500 8.552744062499995E-002
 N -6.255606562499239E-002 -3.48077440937500 -2.52744255937500 
 N -1.94553006562499 -1.91824940937500 -3.28686555937500 
 N -2.84616506562499 -3.23656240937500 0.215469440625000 
 S -0.687200065624992 -6.69588140937500 -4.04109355937500 
 S -3.78006406562499 -6.36894140937500 -1.31179155937500 
 S -1.34042906562499 -7.07249440937500 1.233440624999860E-003
 S -0.536379065624992 -2.56052540937500 -3.90567255937500 
 S -3.57123106562499 -2.57971340937500 -1.05775355937500 
 S -1.26867506562499 -3.72071640937500 -4.116559375000106E-003
