16

 C -2.40961594062500 -6.57588997187500 -2.31381280312500 
 C -1.22823494062500 -7.17893897187500 -1.76752680312500 
 C -2.65264394062500 -2.47823197187500 -2.35225980312500 
 C -1.66949094062500 -3.25457097187500 -1.64384180312500 
 N -0.328419940624996 -7.37194297187500 -2.73289680312500 
 N -2.35863294062500 -6.22016797187500 -3.59498380312500 
 N -2.90829494062500 -7.04424497187500 0.140429196874999 
 N -0.711527940624996 -3.70599997187500 -2.42495180312500 
 N -2.39156394062500 -2.33515797187500 -3.62324480312500 
 N -3.40240094062500 -2.55632197187500 7.551419687499905E-002
 S -0.917829940624996 -6.70221397187500 -4.15549580312500 
 S -3.71098594062500 -6.46339497187500 -1.20380680312500 
 S -1.33428794062500 -7.48731697187500 -4.258380312500099E-002
 S -0.940420940624996 -3.16870197187500 -3.92609380312500 
 S -3.97301694062500 -2.04260997187500 -1.41846480312500 
 S -1.95698394062500 -3.29993197187500 5.551419687499903E-002
