16

 C -2.34855406562500 -6.23737356250000 -2.26184411562500 
 C -1.17401306562500 -6.86539156250000 -1.68517811562500 
 C -2.50736006562500 -2.75325356250000 -2.62141711562500 
 C -1.21092106562500 -2.96607256250000 -2.02506011562500 
 N -0.136792065625000 -7.03096056250000 -2.53377611562500 
 N -2.23899506562500 -5.85133956250000 -3.52901411562500 
 N -2.93514306562500 -6.85610456250000 0.195919884374999 
 N -0.137318065625000 -3.00176456250000 -2.83316911562500 
 N -2.38727806562500 -2.57154556250000 -3.94314511562500 
 N -2.89597506562500 -3.06809256250000 -0.104671115625002 
 S -0.681661065625001 -6.34806356250000 -3.93072211562500 
 S -3.69191206562500 -6.14300356250000 -1.08445111562500 
 S -1.22586706562500 -7.05851256250000 2.727988437499862E-002
 S -0.746500065625000 -2.56725056250000 -4.34695711562500 
 S -3.84582406562500 -2.90336056250000 -1.50646411562500 
 S -1.26942406562500 -3.38765856250000 -0.329433115625001 
