16

 C -2.55482725937501 -6.64330083750001 -2.37904593125000 
 C -1.33898925937501 -6.89316983750001 -1.66235993125000 
 C -2.66431725937501 -2.80797883750001 -2.48423193125000 
 C -1.42784725937500 -3.28463383750001 -1.91800793125000 
 N -0.292936259375005 -7.10802483750001 -2.48751093125000 
 N -2.41387225937501 -6.54271083750000 -3.69827993125000 
 N -3.14166725937501 -6.46594383750001 0.101657068749998 
 N -0.414825259375005 -3.41406183750001 -2.75299893125000 
 N -2.57451225937501 -2.70357583750001 -3.79654293125000 
 N -3.05284425937501 -2.88954683750001 4.843206874999839E-002
 S -0.854770259375005 -6.84396983750001 -4.02905793125000 
 S -3.92344625937501 -6.17805783750001 -1.36501693125000 
 S -1.52325625937500 -6.84982583750001 2.951506874999832E-002
 S -1.02837125937500 -3.00226583750001 -4.23624193125000 
 S -3.88004125937501 -2.49552283750001 -1.30189793125000 
 S -1.49192025937501 -3.36460883750001 -0.171154931250002 
