16

 C -2.29013766875000 -6.45107449375001 -2.46350665000000 
 C -1.06234666875000 -6.72692949375001 -1.75288565000000 
 C -2.55794266875000 -2.64461549375001 -2.55761165000000 
 C -1.43084666875000 -3.17260149375001 -1.79894665000000 
 N -5.213466874999817E-002 -6.93804249375001 -2.58741465000000 
 N -2.21031666875000 -6.28610749375001 -3.77301165000000 
 N -2.84651066875000 -6.72433449375001 6.316434999999698E-002
 N -0.431921668749998 -3.55236949375001 -2.60112665000000 
 N -2.33185466875000 -2.66962749375001 -3.87961465000000 
 N -3.27951166875000 -2.93941149375001 -8.348965000000286E-002
 S -0.631128668749998 -6.65048249375001 -4.13006465000000 
 S -3.62451766875000 -6.28734749375001 -1.36189565000000 
 S -1.18417766875000 -6.88836549375001 -2.392765000000319E-002
 S -0.813460668749999 -3.25674649375001 -4.17426265000000 
 S -3.94820966875000 -2.45628849375001 -1.55473065000000 
 S -1.68957266875000 -3.37651849375001 -9.865765000000293E-002
