16

 C -2.32891380000000 -6.68998815000000 -2.42025254687500 
 C -1.08184580000000 -6.99011315000000 -1.76753154687500 
 C -2.29122980000000 -3.47513715000000 -2.24712754687500 
 C -1.02684480000000 -3.54831815000000 -1.53682954687500 
 N -3.329779999999705E-002 -7.12229115000000 -2.60250054687500 
 N -2.28531680000000 -6.54946815000000 -3.75014354687500 
 N -2.87972980000000 -6.52867315000000 8.100445312499982E-002
 N 6.207020000000263E-002 -3.67716815000000 -2.25076354687500 
 N -2.12376380000000 -3.46277115000000 -3.54052454687500 
 N -2.82541280000000 -3.28983615000000 0.265404453125000 
 S -0.745937799999997 -6.90674315000000 -4.14522254687500 
 S -3.68229580000000 -6.32441115000000 -1.32333654687500 
 S -1.23015480000000 -6.89709415000000 -3.087154687500027E-002
 S -0.536369799999997 -3.62069515000000 -3.92207454687500 
 S -3.60310180000000 -3.18515515000000 -1.17615054687500 
 S -1.22461680000000 -3.56687215000000 0.185019453125000 
