16

 C -2.34490217500000 -6.27650474062500 -2.67924653437500 
 C -1.22571517500000 -6.82063374062500 -1.95912253437500 
 C -2.50361417500000 -2.79914674062500 -2.59921053437500 
 C -1.22808617500000 -3.07413074062500 -1.86321253437500 
 N -0.107342174999996 -6.94466374062500 -2.64131953437500 
 N -2.09199617500000 -5.96507474062500 -3.93376653437500 
 N -3.05402817500000 -6.36761674062500 -0.278908534374998 
 N -0.144408174999996 -3.14332574062500 -2.62763153437500 
 N -2.32454917500000 -2.80132374062500 -3.91137853437500 
 N -3.11742517500000 -2.99080974062500 -5.918353437499757E-002
 S -0.505355174999996 -6.37585474062500 -4.19522053437500 
 S -3.64990217500000 -5.81659474062500 -1.72162953437500 
 S -1.44157017500000 -6.80558474062500 -0.194710534374997 
 S -0.685051174999996 -2.89866374062500 -4.19237553437500 
 S -3.87720117500000 -2.65364774062500 -1.51059353437500 
 S -1.44233117500000 -3.24380174062500 -0.202153534374998 
