16

 C -2.52815296562500 -6.36389201250000 -2.29395870000000 
 C -1.30481496562500 -6.86845901250000 -1.70993470000000 
 C -2.54739696562500 -2.96833401250000 -2.46648570000000 
 C -1.31676596562500 -3.36957501250000 -1.84436370000000 
 N -0.327595965625001 -7.06201501250000 -2.60551770000000 
 N -2.54032496562500 -6.20706401250000 -3.63951470000000 
 N -3.05243096562500 -6.77187501250000 0.224306299999999 
 N -0.273818965625001 -3.31901601250000 -2.58201070000000 
 N -2.43870496562500 -2.78622601250000 -3.78056070000000 
 N -2.98672396562500 -3.23039001250000 9.331629999999835E-002
 S -0.999131965625002 -6.53529101250000 -4.10061670000000 
 S -3.85399396562500 -6.22272701250000 -1.17249470000000 
 S -1.45002996562500 -7.14210101250000 2.511429999999848E-002
 S -0.840706965625001 -2.98729301250000 -4.15777470000000 
 S -3.81327696562500 -2.96433101250000 -1.28907570000000 
 S -1.40590296562500 -3.76550001250000 -0.196392700000001 
