16

 C -2.21482298437500 -6.69375013750000 -2.18617595937500 
 C -0.928919984375004 -7.09409913750000 -1.73986295937500 
 C -2.52270998437500 -2.71488413750000 -2.35090895937500 
 C -1.27730898437500 -3.26407313750000 -1.72371595937500 
 N 1.764701562499571E-002 -7.09213213750000 -2.70074995937500 
 N -2.23623798437500 -6.43201413750000 -3.49606895937500 
 N -2.56170898437500 -6.99915113750000 0.298234040625000 
 N -0.310504984375005 -3.51466113750000 -2.59391495937500 
 N -2.38914498437500 -2.45455213750000 -3.65418295937500 
 N -3.02304298437500 -3.11593713750000 0.180345040625000 
 S -0.751242984375005 -6.62326513750000 -4.08008095937500 
 S -3.42180198437500 -6.45163513750000 -1.00257995937500 
 S -0.913188984375005 -7.25009013750000 3.366304062499959E-002
 S -0.924446984375004 -3.03708913750000 -4.05492695937500 
 S -3.75269298437500 -2.46906613750000 -1.12739195937500 
 S -1.41459598437500 -3.53871313750000 -4.029095937500027E-002
