16

 C -2.52109284062500 -6.58826699687500 -2.48010236875000 
 C -1.30707484062500 -7.13375399687500 -1.86963036875000 
 C -2.66418284062500 -2.75162399687500 -2.51923236875000 
 C -1.56080084062500 -3.40402799687500 -1.83128936875000 
 N -0.258765840624998 -7.27247599687500 -2.66372336875000 
 N -2.32292484062500 -6.29379599687500 -3.74324536875000 
 N -3.01995384062500 -6.86197999687500 -3.383336874999987E-002
 N -0.526152840624999 -3.72159799687500 -2.60671536875000 
 N -2.51513784062500 -2.69371699687500 -3.83593236875000 
 N -3.45324884062500 -3.25027399687500 -0.111409368750000 
 S -0.737671840624999 -6.60708999687500 -4.12378436875000 
 S -3.81626484062500 -6.33816499687500 -1.47669936875000 
 S -1.38591484062500 -7.42779599687500 -0.125490368750000 
 S -1.00475084062500 -3.14267399687500 -4.14153236875000 
 S -4.09685584062500 -2.44478599687500 -1.47184536875000 
 S -1.84353384062500 -3.60951399687500 -0.157111368750000 
