16

 C -2.43298810937500 -6.68997491562499 -2.28931041562500 
 C -1.20528910937500 -6.90836891562499 -1.62437441562500 
 C -2.35668210937500 -2.61722991562499 -2.50730041562500 
 C -1.10820110937500 -3.18991091562499 -2.03852641562500 
 N -0.123125109375003 -6.84424991562499 -2.38646441562500 
 N -2.31819310937500 -6.48320791562499 -3.61170441562500 
 N -2.92919610937500 -6.82449591562499 0.278520584375000 
 N -0.170300109375003 -3.29316491562499 -2.93907841562500 
 N -2.42242710937500 -2.47220691562499 -3.82693941562500 
 N -2.60282910937500 -2.91273891562499 4.790258437500050E-002
 S -0.723428109375003 -6.57641591562499 -3.88844441562500 
 S -3.73468410937500 -6.62012791562499 -1.18110841562500 
 S -1.29244610937500 -7.07671391562499 6.733558437500053E-002
 S -0.890282109375003 -2.98509591562499 -4.36824841562500 
 S -3.51403410937500 -2.42735591562499 -1.28962341562500 
 S -1.10027910937500 -3.48602391562499 -0.340049415624999 
