16

 C -2.38644140625000 -6.51496345625000 -2.38445039687500 
 C -1.17315740625000 -6.90948545625000 -1.74893939687500 
 C -2.40515140625000 -3.07684645625000 -2.14415739687500 
 C -1.04925640625000 -3.32400145625000 -1.66212239687500 
 N -0.176560406250001 -6.96105245625000 -2.60769539687500 
 N -2.32985140625000 -6.31282045625000 -3.69030339687500 
 N -2.88924740625000 -6.70652845625000 0.149056603124999 
 N -0.184832406250001 -3.42950945625000 -2.66000339687500 
 N -2.45400040625000 -2.89433345625000 -3.45101739687500 
 N -2.58041540625000 -3.35406945625000 0.363307603124999 
 S -0.765392406250001 -6.61036545625000 -4.11764539687500 
 S -3.70649640625000 -6.33829845625000 -1.24758239687500 
 S -1.29479740625000 -7.01050745625000 6.666031249993321E-004
 S -0.933808406250001 -3.11938045625000 -4.09816939687500 
 S -3.59027040625000 -3.18372745625000 -0.949264396875001 
 S -0.984802406250001 -3.49807945625000 2.492360312499931E-002
