16

 C -2.37093549687501 -6.21870517187500 -2.38064392500000 
 C -1.26151149687500 -6.93437417187500 -1.76156492500000 
 C -2.54120949687501 -2.34215217187500 -2.47184592500000 
 C -1.44623049687501 -2.98651317187500 -1.80048592500000 
 N -0.287791496875005 -7.25567817187500 -2.61882992500000 
 N -2.15988049687501 -5.93628317187500 -3.65884892500000 
 N -3.16346749687500 -6.61819017187500 2.748407500000027E-002
 N -0.375727496875006 -3.33927617187500 -2.46338792500000 
 N -2.29239949687500 -2.20981817187500 -3.79173492500000 
 N -3.18983249687501 -2.50351617187500 1.982807500000039E-002
 S -0.674131496875005 -6.50902117187500 -4.04566492500000 
 S -3.76463849687500 -5.96798817187500 -1.42674892500000 
 S -1.64856349687501 -7.21318317187500 -4.944092499999986E-002
 S -0.790366496875005 -2.85197517187500 -4.06848992500000 
 S -3.91988149687501 -2.08019717187500 -1.40866392500000 
 S -1.62046149687500 -3.13032917187500 -5.999492499999981E-002
