16

 C -2.41613149062500 -6.53061377500000 -2.35903728437500 
 C -1.21659349062501 -7.14339977500000 -1.88792128437500 
 C -2.62091749062501 -2.47671577500000 -2.41317928437500 
 C -1.58086849062501 -3.27619477500000 -1.65462028437500 
 N -0.281390490625005 -7.28090977500000 -2.81617528437500 
 N -2.41811649062500 -6.18623177500000 -3.64462928437500 
 N -2.85129649062501 -7.07885377500000 0.110883715625002 
 N -0.600435490625005 -3.80964577500000 -2.38422828437500 
 N -2.31052649062500 -2.37120477500000 -3.69360228437500 
 N -3.44182949062500 -2.58021677500000 1.434871562500151E-002
 S -0.898590490625005 -6.64545577500000 -4.21840228437500 
 S -3.71282749062500 -6.44997377500000 -1.17922628437500 
 S -1.23732249062501 -7.47378777500000 -0.128782284374999 
 S -1.00981449062501 -3.29164677500000 -3.96041728437500 
 S -3.99301149062501 -2.01879377500000 -1.44380328437500 
 S -1.86478849062500 -3.27663777500000 7.106871562500139E-002
