16

 C -2.45803184687500 -6.66137900937500 -2.42164738750000 
 C -1.16326084687500 -6.93951100937500 -1.79165138750000 
 C -2.43223384687500 -2.81329900937499 -2.46557138750000 
 C -1.21150884687500 -3.09494100937500 -1.64609238750000 
 N -7.027484687500252E-002 -6.87471100937500 -2.54810138750000 
 N -2.26861084687500 -6.44908600937500 -3.73548238750000 
 N -2.92238484687500 -7.11679400937500 0.108378612500000 
 N -0.134094846875002 -3.23007300937499 -2.39295338750000 
 N -2.19318384687500 -2.73452200937500 -3.77729738750000 
 N -3.11347484687500 -2.68345300937500 5.747061249999974E-002
 S -0.649675846875002 -6.53674500937499 -4.09732238750000 
 S -3.78166784687500 -6.55330300937499 -1.28188938750000 
 S -1.25763384687500 -7.30279200937500 -7.877038750000032E-002
 S -0.528601846875002 -3.06540100937500 -3.96225538750000 
 S -3.82083284687500 -2.41542500937499 -1.50494238750000 
 S -1.54019384687500 -3.20082000937500 4.334061249999976E-002
