16

 C -2.28972463125000 -6.39777469062500 -2.42825292812500 
 C -1.07901063125000 -6.81941469062500 -1.75713692812500 
 C -2.56279663125000 -2.60664269062500 -2.25002392812500 
 C -1.33637863125000 -3.11638569062500 -1.69565392812500 
 N -0.110646631250003 -7.02009969062500 -2.62565192812500 
 N -2.15956363125000 -6.08073869062500 -3.72181892812500 
 N -2.82149863125000 -6.56429669062500 0.115980071874999 
 N -0.301408631250003 -3.24647669062500 -2.55302592812500 
 N -2.52782263125000 -2.36899669062500 -3.57848692812500 
 N -2.94953863125000 -2.91890569062500 0.319105071874999 
 S -0.632102631250003 -6.56771869062500 -4.10581392812500 
 S -3.61776163125000 -6.30121569062500 -1.33363992812500 
 S -1.22274763125000 -6.99979669062500 -4.438692812500089E-002
 S -0.943998631250003 -2.69312369062500 -3.96530492812500 
 S -3.83549863125000 -2.53763769062500 -1.05305192812500 
 S -1.35394563125000 -3.26400369062500 8.259507187499882E-002
