16

 C -2.45451773750000 -6.58364932187500 -2.25457730937500 
 C -1.17848373750000 -6.85660332187500 -1.60163630937500 
 C -2.37480473750000 -2.69090932187500 -2.47518230937500 
 C -1.22916873750000 -3.32197332187500 -1.91704130937500 
 N -0.158694737500001 -7.01045732187500 -2.44861830937500 
 N -2.33387573750000 -6.46991932187500 -3.58401630937500 
 N -2.97854773750000 -6.73597332187500 0.281891690625000 
 N -0.267282737500001 -3.54768032187500 -2.80643730937500 
 N -2.30665473750000 -2.56026032187500 -3.79806630937500 
 N -2.96255173750000 -2.99399032187500 -2.148230937499984E-002
 S -0.728318737500001 -6.71685832187500 -4.00680230937500 
 S -3.82274273750000 -6.68655832187500 -1.14754230937500 
 S -1.23910373750000 -6.94842632187500 0.126071690625000 
 S -0.749903737500001 -3.08945532187500 -4.33303830937500 
 S -3.71053173750000 -2.40472332187500 -1.36488630937500 
 S -1.34028573750000 -3.39220132187500 -0.161986309375000 
