16

 C -2.46153523750000 -6.35128946250000 -2.33316680000000 
 C -1.29821223750000 -6.91815446250000 -1.68342480000000 
 C -2.37257223750000 -2.24068346250000 -2.51523380000000 
 C -1.19312823750000 -2.77840546250000 -1.87486280000000 
 N -0.244902237500000 -7.05189346250000 -2.48283280000000 
 N -2.30896523750000 -6.02038946250000 -3.60898280000000 
 N -3.19332923750000 -6.65689346250000 0.139620200000002 
 N -0.131643237500000 -3.03529146250000 -2.61597280000000 
 N -2.21779723750000 -2.25283646250000 -3.85282380000000 
 N -2.88572223750000 -2.44733246250000 -5.707999999984281E-004
 S -0.816268237499999 -6.58277746250000 -3.97848680000000 
 S -3.77295423750000 -5.96692546250000 -1.24946580000000 
 S -1.58099123750000 -7.23087246250000 7.110220000000145E-002
 S -0.692903237499999 -2.70473946250000 -4.23497080000000 
 S -3.58808823750000 -1.83452846250000 -1.37344080000000 
 S -1.37541223750000 -3.09758246250000 -0.204262799999999 
