16

 C -2.60100335312500 -6.68577518437500 -2.19436553750000 
 C -1.43877035312500 -7.28057318437500 -1.66084153750000 
 C -2.28551535312500 -2.85471218437500 -2.32626453750000 
 C -1.10388035312500 -3.40191018437500 -1.71545453750000 
 N -0.547529353125004 -7.51570618437500 -2.59890753750000 
 N -2.67186735312500 -6.46366518437500 -3.48609953750000 
 N -3.09478935312500 -7.06358018437500 0.294031462500002 
 N -9.890135312500359E-002 -3.59396218437500 -2.53797453750000 
 N -2.15127335312500 -2.66960918437500 -3.62746553750000 
 N -2.80841635312500 -3.15048218437500 0.176346462500002 
 S -1.21247335312500 -6.98590518437500 -4.01593453750000 
 S -3.89677435312500 -6.42362318437500 -1.07362853750000 
 S -1.50058035312500 -7.44728418437500 4.945446250000174E-002
 S -0.617570353125004 -3.18802518437500 -4.07002853750000 
 S -3.57081435312500 -2.54095018437500 -1.21211553750000 
 S -1.20936935312500 -3.55389318437500 4.601346250000171E-002
