16

 C -2.38005102812500 -6.53065617812499 -2.35768238437500 
 C -1.09544502812500 -6.97938117812499 -1.82694538437500 
 C -2.40583702812500 -2.60447317812499 -2.49992638437500 
 C -1.25359602812500 -3.23142617812499 -1.87163938437500 
 N -0.137356028125002 -7.18275017812499 -2.74385438437500 
 N -2.35674402812500 -6.39207917812499 -3.65695938437500 
 N -2.56396602812500 -6.52926417812499 0.251405615624999 
 N -0.364414028125002 -3.67573417812499 -2.77562638437500 
 N -2.32100702812500 -2.40474017812499 -3.81612238437500 
 N -3.06390602812500 -2.96401517812499 2.513761562499894E-002
 S -0.825367028125002 -6.77962117812499 -4.20401738437500 
 S -3.51251402812500 -6.13441217812499 -1.11386238437500 
 S -1.00651702812500 -6.92691817812499 -0.114309384375001 
 S -0.869874028125002 -2.98320217812499 -4.27281938437500 
 S -3.74577702812500 -2.37879417812499 -1.37138838437500 
 S -1.44885902812500 -3.37279417812499 -0.103952384375001 
