16

 C -2.44693731250000 -6.39317955312500 -2.34151454062500 
 C -1.22713631250000 -6.72231855312500 -1.67517554062500 
 C -2.52302031250000 -2.76488355312500 -2.88715754062500 
 C -1.21307531250000 -2.85135755312500 -2.26754054062500 
 N -0.197630312500003 -6.70948955312500 -2.50896254062500 
 N -2.35796031250000 -6.11244955312500 -3.65309154062500 
 N -2.94326231250000 -6.80315155312500 0.254216459375000 
 N -0.127924312500003 -2.72556355312500 -3.04283354062500 
 N -2.41374031250000 -2.50019155312500 -4.21483054062500 
 N -2.97853631250000 -3.11228955312500 -0.382191540625000 
 S -0.742518312500003 -6.25812655312500 -4.00662154062500 
 S -3.77051131250000 -6.16904755312500 -1.13024954062500 
 S -1.34291531250000 -7.08885655312500 1.314545937500045E-002
 S -0.790754312500002 -2.64702355312500 -4.55879254062500 
 S -3.75512631250000 -2.79952255312500 -1.75962654062500 
 S -1.33457231250000 -3.02855355312500 -0.545054540624999 
