16

 C -2.53705747187500 -6.52228636249999 -2.37091290312500 
 C -1.33029547187500 -6.96583136249999 -1.76127990312500 
 C -2.55860947187500 -3.17879836249999 -2.44112090312500 
 C -1.26946047187500 -3.43760236249999 -1.80128290312500 
 N -0.268337471875002 -7.02227336249999 -2.57789290312500 
 N -2.42150147187500 -6.19010336249999 -3.67544090312500 
 N -3.03458047187500 -6.79204436249999 0.141200096875002 
 N -0.249703471875002 -3.48317536249999 -2.62670790312500 
 N -2.48183947187500 -2.89140836249999 -3.74611090312500 
 N -3.00226847187500 -3.30309736249999 0.113704096875002 
 S -0.852039471875002 -6.61912136249999 -4.05135990312500 
 S -3.84043547187500 -6.26924236249999 -1.21027890312500 
 S -1.41980147187500 -7.02944236249999 -1.676890312499824E-002
 S -0.897910471875002 -3.04389836249999 -4.16464990312500 
 S -3.90886547187500 -3.08589636249999 -1.26216590312500 
 S -1.40129847187500 -3.74259736249999 -9.190290312499805E-002
