16

 C -2.52157511875000 -6.57279241874999 -2.39878853750000 
 C -1.24788511875001 -6.78563241874999 -1.77839653750000 
 C -2.65606111875000 -2.71443941874999 -2.56801053750000 
 C -1.35659211875001 -3.09027841874999 -2.03349453750000 
 N -0.190648118750005 -6.60163341874999 -2.56730253750000 
 N -2.43936111875001 -6.39447541874999 -3.71029853750000 
 N -3.05754811875001 -6.67090641874999 0.117195462499997 
 N -0.350287118750005 -3.13437841874999 -2.90971153750000 
 N -2.62959211875001 -2.47294841874999 -3.91576353750000 
 N -2.99327411875000 -3.17545641874999 -6.702253750000287E-002
 S -0.839792118750005 -6.33688241874999 -4.05959453750000 
 S -3.85234711875001 -6.46323341874999 -1.30011453750000 
 S -1.38329711875001 -6.97572841874999 -6.740537500002919E-003
 S -1.08010011875001 -2.66789841874999 -4.47653353750000 
 S -3.90632611875001 -2.72470441874999 -1.39661153750000 
 S -1.37663811875001 -3.36396441874999 -0.307110537500003 
