16

 C -2.24533460937499 -6.51261803750000 -2.27211239687500 
 C -1.04247360937499 -7.10296803750000 -1.74902639687500 
 C -2.25641460937499 -2.60706703750000 -2.46621939687500 
 C -1.10418760937499 -3.20022003750000 -1.84272939687500 
 N -9.501660937499334E-002 -7.32397003750000 -2.64827139687500 
 N -2.22793760937499 -6.30306703750000 -3.58612039687500 
 N -2.57954260937499 -6.59176003750000 0.272497603125001 
 N -2.282860937499365E-002 -3.28089503750000 -2.62233939687500 
 N -2.13170960937499 -2.31571203750000 -3.78521339687500 
 N -2.92743160937499 -3.00233503750000 8.511260312500135E-002
 S -0.753509609374993 -6.81926403750000 -4.08566939687500 
 S -3.35013360937499 -6.04746303750000 -1.06870239687500 
 S -1.15006260937499 -7.37698303750000 3.024460312500143E-002
 S -0.576273609374994 -2.80961803750000 -4.11378839687500 
 S -3.59010960937499 -2.41728203750000 -1.34804439687500 
 S -1.37480160937499 -3.58327603750000 -0.163421396874999 
