16

 C -2.47852510312500 -6.52030440312500 -2.22992543750000 
 C -1.22014910312500 -6.94208540312500 -1.70000843750000 
 C -2.51745310312500 -2.82401040312500 -2.47409043750000 
 C -1.40321210312500 -3.40329740312500 -1.80065843750000 
 N -0.244724103125001 -7.09269740312500 -2.62083643750000 
 N -2.46413610312500 -6.21957040312500 -3.53319343750000 
 N -2.83785810312500 -7.08700640312500 0.336480562500001 
 N -0.314553103125001 -3.56117840312500 -2.55711143750000 
 N -2.32871110312500 -2.62386940312500 -3.78476543750000 
 N -3.26618910312500 -3.10925140312500 -4.757943749999938E-002
 S -0.879705103125000 -6.54688340312500 -4.04067943750000 
 S -3.68526510312500 -6.36358840312500 -0.919372437499999 
 S -1.22677210312500 -7.39947440312500 -9.070437499999251E-003
 S -0.765638103125001 -3.17278540312500 -4.11180843750000 
 S -3.80325910312500 -2.34624840312500 -1.40198143750000 
 S -1.66919210312500 -3.60545140312500 -4.262743749999931E-002
