16

 C -2.52719332187500 -6.86369476250000 -2.35385915937500 
 C -1.18705232187500 -7.18320576250000 -1.90543615937500 
 C -2.55222632187500 -2.84667176250000 -2.41264215937500 
 C -1.41813732187500 -3.38010776250000 -1.81345015937500 
 N -0.256127321874996 -7.23702776250000 -2.84223415937500 
 N -2.60407332187500 -6.64733076250000 -3.66024015937500 
 N -2.57828632187500 -6.90944976250000 0.208895840625001 
 N -0.357857321874996 -3.48261776250000 -2.62668415937500 
 N -2.47753432187500 -2.65182476250000 -3.73932615937500 
 N -3.24154832187500 -3.23174276250000 3.982840625001316E-003
 S -1.05439232187500 -6.91659976250000 -4.28458615937500 
 S -3.63515732187500 -6.80912176250000 -1.04592315937500 
 S -1.06165932187500 -7.36664076250000 -0.206588159374999 
 S -0.879037321874996 -3.07282576250000 -4.09403315937500 
 S -3.89271932187500 -2.60129176250000 -1.34402115937500 
 S -1.67104532187500 -3.64621576250000 -0.102139159374999 
