16

 C -2.21369647187500 -6.40907229062500 -2.36076383125000 
 C -1.11851347187500 -6.92345229062500 -1.67110383125000 
 C -2.61653747187500 -2.73580729062500 -2.56813083125000 
 C -1.37760647187500 -3.01498629062500 -1.90817083125000 
 N -0.171073471875005 -7.23596829062500 -2.53843483125000 
 N -2.18961747187500 -6.26538029062500 -3.67814083125000 
 N -2.82557847187500 -6.16713829062500 9.772416875000012E-002
 N -0.349977471875004 -3.10576829062500 -2.73533183125000 
 N -2.50544647187500 -2.64509029062500 -3.86760883125000 
 N -3.11029447187500 -2.87522429062500 -0.117141831250000 
 S -0.685546471875004 -6.79007529062500 -4.06684683125000 
 S -3.58644147187500 -6.05300129062500 -1.35449983125000 
 S -1.27747447187500 -6.89743029062500 2.432216875000015E-002
 S -0.919783471875005 -2.93346229062500 -4.29614383125000 
 S -3.91534147187500 -2.46293529062500 -1.51079183125000 
 S -1.51394147187500 -3.14671229062500 -0.241943831250000 
