16

 C -2.62335320312500 -6.44783821250000 -2.47065162187500 
 C -1.35510120312501 -6.63143721250000 -1.80732662187500 
 C -2.67429720312500 -2.67094221250000 -2.56758962187500 
 C -1.38139520312501 -2.95208821250000 -2.00791962187500 
 N -0.269406203125005 -6.61926221250000 -2.57413962187500 
 N -2.44926220312500 -6.29532921250000 -3.77847062187500 
 N -3.09297220312500 -6.54619721250000 7.174237812499928E-002
 N -0.391351203125005 -3.00515621250000 -2.90406062187500 
 N -2.73192420312501 -2.46789121250000 -3.84414762187500 
 N -3.09952820312501 -3.13936821250000 -8.935962187500079E-002
 S -0.777489203125005 -6.38047821250000 -4.10914162187500 
 S -3.93301120312500 -6.45924121250000 -1.32379062187500 
 S -1.45171320312500 -6.92565521250000 -0.106286621875001 
 S -1.17712020312501 -2.73620821250000 -4.37298462187500 
 S -3.94181720312501 -2.52729221250000 -1.38803162187500 
 S -1.48527020312500 -3.34373421250000 -0.334451621875001 
