16

 C -2.49877487500000 -6.60273823437500 -2.47767712187500 
 C -1.30369487500000 -7.15137723437500 -1.85136112187500 
 C -2.67797987500000 -2.74982523437500 -2.51572512187500 
 C -1.56808687500000 -3.37472223437500 -1.84361512187500 
 N -0.248852875000003 -7.27331923437500 -2.68907912187500 
 N -2.31739787500000 -6.28380523437500 -3.72509912187500 
 N -3.03947687500000 -6.86732323437500 -7.083121875002263E-003
 N -0.536980875000003 -3.72586723437500 -2.59526312187500 
 N -2.51803187500000 -2.68590023437500 -3.84019812187500 
 N -3.44780987500000 -3.23208323437500 -0.124502121875002 
 S -0.742197875000003 -6.62411423437500 -4.13857712187500 
 S -3.80894487500000 -6.34958923437500 -1.44336412187500 
 S -1.38317087500000 -7.45593523437500 -0.127855121875002 
 S -0.996904875000003 -3.14626423437500 -4.11652712187500 
 S -4.08880987500000 -2.45394823437500 -1.49017412187500 
 S -1.83791087500000 -3.58393023437500 -0.168494121875002 
