16

 C -2.28470118125000 -6.37509939062499 -2.37866598437500 
 C -1.14307818125000 -6.95830239062499 -1.77454098437500 
 C -2.51482618125000 -3.08836339062499 -2.34634098437500 
 C -1.19608518125000 -3.24043339062499 -1.69887098437500 
 N -0.185245181249997 -7.19800939062499 -2.61073798437500 
 N -2.16407518125000 -6.11086739062499 -3.64720398437500 
 N -2.86655118125000 -6.97424539062499 2.916901562500107E-002
 N -0.170748181249998 -3.26233539062499 -2.54277098437500 
 N -2.39410518125000 -3.11032339062499 -3.65703998437500 
 N -2.96811318125000 -2.67710939062499 0.119814015625001 
 S -0.630591181249997 -6.68397939062499 -4.10218798437500 
 S -3.58295218125000 -6.14161439062499 -1.24281498437500 
 S -1.23345418125000 -7.23856139062499 -0.116509984374999 
 S -0.824094181249998 -3.17780439062499 -4.04571898437500 
 S -3.85310218125000 -2.72038539062499 -1.27091798437500 
 S -1.32821918125000 -3.06081439062499 1.238201562500119E-002
