16

 C -2.62132635625000 -6.42097325937500 -2.30323179375000 
 C -1.41835135625000 -6.86965025937500 -1.65787779375000 
 C -2.43862235625000 -2.87027325937500 -2.40679779375000 
 C -1.21811535625000 -3.35269925937500 -1.86479079375000 
 N -0.454897356250000 -7.17346125937500 -2.52792579375000 
 N -2.53152335625000 -6.30823025937500 -3.61191879375000 
 N -3.17459235625000 -6.44642625937500 0.207231206250001 
 N -0.169818356250000 -3.46938825937500 -2.69209379375000 
 N -2.36876435625000 -2.68816625937500 -3.71465979375000 
 N -2.85239235625000 -2.94629125937500 7.110720625000089E-002
 S -1.03578735625000 -6.79267525937500 -4.03494379375000 
 S -3.92972235625000 -6.14581725937500 -1.22731779375000 
 S -1.64291135625000 -7.06261325937500 4.984220625000102E-002
 S -0.856606356250000 -3.13993425937500 -4.19769379375000 
 S -3.75307535625000 -2.57277025937500 -1.26090079375000 
 S -1.23671635625000 -3.32086225937500 -8.977179374999888E-002
