16

 C -2.15427156562500 -6.38792674687500 -2.50219021562500 
 C -1.02930756562500 -7.03185274687500 -1.86854121562500 
 C -2.65153356562500 -2.40357174687500 -2.42412321562500 
 C -1.53064656562500 -3.01517074687500 -1.77767921562500 
 N 1.032043437500452E-002 -7.25990974687500 -2.67113721562500 
 N -2.03084156562500 -6.22981874687500 -3.82946521562500 
 N -2.80064156562500 -6.55294974687500 -4.062921562499966E-002
 N -0.538153565624996 -3.45417274687500 -2.54126721562500 
 N -2.47619356562500 -2.17686874687500 -3.70142921562500 
 N -3.25494656562500 -2.44767574687500 0.105690784375000 
 S -0.514703565624996 -6.87558274687500 -4.23250421562500 
 S -3.53811856562500 -6.11944474687500 -1.49352621562500 
 S -1.33333056562500 -7.31088974687500 -0.197279215625000 
 S -0.937494565624996 -2.78381974687500 -4.04890821562500 
 S -3.94491856562500 -1.93634774687500 -1.32564821562500 
 S -1.78125656562500 -3.14500674687500 -5.716421562499985E-002
