16

 C -2.48866035312501 -6.81027158750000 -2.26599640000000 
 C -1.20731235312501 -7.13953258750000 -1.75830440000000 
 C -2.64747935312501 -2.78759458750000 -2.44776840000000 
 C -1.40684035312501 -3.28097458750000 -1.82570040000000 
 N -0.236859353125007 -7.32988858750000 -2.67214240000000 
 N -2.51169735312501 -6.70773858750000 -3.59080440000000 
 N -2.74317935312501 -7.10178958750000 0.365794599999999 
 N -0.403861353125007 -3.51862258750000 -2.66838440000000 
 N -2.48204635312501 -2.44057458750000 -3.71422840000000 
 N -3.13031435312501 -3.21538858750000 0.150417599999999 
 S -1.00334335312501 -7.09705358750000 -4.12163940000000 
 S -3.70762535312501 -6.73071058750000 -0.983754400000001 
 S -1.14854635312501 -7.30393058750000 -9.901400000000615E-003
 S -0.987362353125008 -2.93937158750000 -4.19068540000000 
 S -3.89104335312501 -2.59831558750000 -1.20924940000000 
 S -1.51726735312501 -3.43218058750000 -0.110202400000001 
