16

 C -2.55412841875000 -6.46586809062500 -2.38713672500000 
 C -1.34245941875000 -6.92993309062501 -1.77966072500000 
 C -2.27098941875000 -2.89674009062501 -2.38728372500000 
 C -1.06909341875000 -3.36057009062501 -1.78993372500000 
 N -0.292178418749996 -7.12369309062501 -2.56295572500000 
 N -2.38266341875000 -6.23170609062501 -3.66929672500000 
 N -3.05652841875000 -6.65036009062501 0.104849275000001 
 N -2.481741874999610E-002 -3.49393309062501 -2.60312772500000 
 N -2.29422141875000 -2.76962909062501 -3.70786872500000 
 N -2.73786841875000 -2.91464509062501 0.132373275000001 
 S -0.796755418749997 -6.61152109062501 -4.05305072500000 
 S -3.78240541875000 -6.07341109062501 -1.27717872500000 
 S -1.50655941875000 -7.19918709062501 -0.107924724999999 
 S -0.721828418749997 -3.15513009062501 -4.14976672500000 
 S -3.61924941875000 -2.56788909062501 -1.24106872500000 
 S -1.22068241875000 -3.48013909062501 -6.247272499999901E-002
