16

 C -2.53543554687500 -6.16718461562500 -2.47919221875000 
 C -1.41418354687500 -6.84976361562500 -1.86848221875000 
 C -2.59993154687500 -2.61045261562500 -2.42959221875000 
 C -1.51408154687500 -3.13446761562500 -1.68662721875000 
 N -0.377326546875001 -7.09475661562500 -2.64283721875000 
 N -2.34009054687500 -5.99642261562500 -3.76300321875000 
 N -3.24226354687500 -6.64265061562500 -4.824121874999854E-002
 N -0.410856546875001 -3.25893661562500 -2.50189321875000 
 N -2.47017454687500 -2.47724861562500 -3.74890521875000 
 N -3.45304554687500 -2.88393961562500 -4.860721874999818E-002
 S -0.776878546875001 -6.53075161562500 -4.16275321875000 
 S -3.84689154687500 -5.94653261562500 -1.41906021875000 
 S -1.67055854687500 -7.28445961562500 -0.231442218749998 
 S -0.840653546875002 -2.84987461562500 -3.98029721875000 
 S -3.99823854687500 -2.20233061562500 -1.49589321875000 
 S -1.86762254687500 -3.36811761562500 3.939781250001495E-003
