16

 C -2.55344431875000 -6.68390054687500 -2.34854425625000 
 C -1.26578331875000 -6.79902354687500 -1.72118525625000 
 C -2.38023431875000 -2.58302154687500 -2.43650525625000 
 C -1.22988231875000 -3.25316954687500 -1.70313625625000 
 N -0.250710318750005 -6.83701154687500 -2.58970025625000 
 N -2.48427831875000 -6.58012954687500 -3.67845125625000 
 N -3.00349531875001 -6.87518054687500 0.178525743750000 
 N -0.163527318750005 -3.50605154687500 -2.48824925625000 
 N -2.14986931875000 -2.50285554687500 -3.74979225625000 
 N -3.20964031875001 -3.07369254687500 -2.518325624999984E-002
 S -0.915648318750005 -6.77214954687500 -4.07358225625000 
 S -3.84891431875000 -6.78092054687500 -1.22413025625000 
 S -1.34328031875001 -7.11362354687500 -1.506025624999974E-002
 S -0.629432318750005 -2.98760954687500 -3.99656025625000 
 S -3.79183431875000 -2.38476454687500 -1.41403625625000 
 S -1.59796831875000 -3.55953154687500 -3.993725624999978E-002
