16

 C -2.42951179687500 -6.54174593437500 -2.32933059062500 
 C -1.25961779687500 -7.05783793437500 -1.73347959062500 
 C -2.37597379687500 -2.56429393437500 -2.38319659062500 
 C -1.31405779687500 -3.31356493437500 -1.74577059062500 
 N -0.176995796874997 -7.14336293437500 -2.49160359062500 
 N -2.22322779687500 -6.36181593437500 -3.62898659062500 
 N -2.89723979687500 -6.81533293437500 0.218765409374998 
 N -0.314890796874997 -3.49985493437500 -2.57832259062500 
 N -2.17252879687500 -2.19555093437500 -3.65437859062500 
 N -3.01082079687500 -2.93094693437500 0.164954409374998 
 S -0.636513796874997 -6.69326893437500 -4.02281159062500 
 S -3.69595779687500 -6.42601293437500 -1.22482859062500 
 S -1.33639479687500 -7.32781393437500 -6.635590625001742E-003
 S -0.753805796874997 -2.94455893437500 -4.06214459062500 
 S -3.68183679687500 -2.16166493437500 -1.21661259062500 
 S -1.45323779687500 -3.63156193437500 -4.471959062500175E-002
