16

 C -2.61894634375000 -6.49228845312500 -2.34257839062500 
 C -1.38006534375000 -6.95270645312500 -1.79185939062500 
 C -2.35265634375000 -2.99322045312500 -2.43415839062500 
 C -1.10644334375000 -3.43668545312500 -1.72626139062500 
 N -0.378006343750004 -7.07316145312500 -2.62934339062500 
 N -2.61218934375000 -6.33925245312500 -3.64293439062500 
 N -2.95490534375000 -6.71247645312500 0.171873609375000 
 N -0.101252343750004 -3.63698845312500 -2.56664639062500 
 N -2.19695734375000 -2.74014645312500 -3.74206039062500 
 N -2.90227334375000 -3.18248745312500 8.374060937499950E-002
 S -1.04231634375000 -6.64473645312500 -4.11560339062500 
 S -3.83773034375000 -6.23935545312500 -1.17899839062500 
 S -1.33534034375000 -7.00519645312500 -7.226039062500056E-002
 S -0.651794343750004 -3.19764945312500 -4.10208639062500 
 S -3.67023534375000 -2.75461745312500 -1.34337539062500 
 S -1.31243534375000 -3.56717645312500 3.016093749996784E-004
