16

 C -2.25960845937501 -6.66710401562500 -2.57535720625000 
 C -1.00612345937501 -7.05048101562500 -1.93596520625000 
 C -2.52448045937501 -2.60625901562500 -2.52562820625000 
 C -1.30640845937501 -3.11832201562500 -2.00407320625000 
 N -0.128416459375009 -7.47537701562500 -2.79415420625000 
 N -2.25166945937501 -6.86405901562500 -3.90758220625000 
 N -2.66283045937501 -6.47640501562500 -3.826520624999841E-002
 N -0.333059459375009 -3.40455601562500 -2.88397420625000 
 N -2.56837245937501 -2.53715701562500 -3.83897820625000 
 N -2.93965745937501 -2.81013401562500 3.767579375000163E-002
 S -0.742190459375008 -7.37015501562500 -4.33882120625000 
 S -3.57432445937501 -6.25271301562500 -1.46052020625000 
 S -1.11830545937501 -6.92872201562500 -0.214404206249998 
 S -1.00100245937501 -2.93712701562500 -4.34983720625000 
 S -3.68969045937501 -2.21574601562500 -1.30494120625000 
 S -1.46254545937501 -3.41863601562500 -0.263391206249998 
