16

 C -2.37344598750000 -6.48563525937499 -2.44204249687500 
 C -1.14314698750000 -6.82589025937499 -1.81182049687500 
 C -2.55439598750000 -2.76801325937499 -2.41001249687500 
 C -1.46959698750000 -3.30143225937499 -1.68676649687500 
 N -9.839198749999589E-002 -6.92150825937499 -2.62657749687500 
 N -2.24399298750000 -6.17379725937499 -3.75048649687500 
 N -2.92805598750000 -6.60534525937499 4.008750312499698E-002
 N -0.434260987499997 -3.53203325937499 -2.47299149687500 
 N -2.36872198750000 -2.51895425937499 -3.68123249687500 
 N -3.38421598750000 -2.98816425937499 6.228503124997120E-003
 S -0.660227987499996 -6.50020125937499 -4.13555549687500 
 S -3.80412798750000 -6.41285525937499 -1.35678349687500 
 S -1.31323498750000 -6.94366025937499 -6.312449687500310E-002
 S -0.770481987499997 -2.96943125937499 -4.00824949687500 
 S -3.96425098750000 -2.59622525937499 -1.47065249687500 
 S -1.76960098750000 -3.49397925937499 9.796503124997136E-003
