16

 C -2.38631400625001 -6.63202269062500 -2.25855594062500 
 C -1.16128500625001 -6.96069969062500 -1.61752394062500 
 C -2.40691600625001 -2.63433869062500 -2.49763494062500 
 C -1.11713400625001 -3.10153669062500 -2.03350194062500 
 N -0.131422006250006 -7.00310169062500 -2.43731794062500 
 N -2.33079500625001 -6.35850069062500 -3.57104094062500 
 N -2.87605400625001 -6.69768869062500 0.230500059375000 
 N -0.231912006250005 -3.39702469062500 -2.93951394062500 
 N -2.36616500625001 -2.42179369062500 -3.80196894062500 
 N -2.63638400625001 -2.99854769062500 1.606059374999802E-003
 S -0.686322006250006 -6.60567769062500 -3.96823994062500 
 S -3.78156000625001 -6.59016969062500 -1.13324194062500 
 S -1.24700200625001 -7.11026669062500 9.071105937499979E-002
 S -0.892906006250006 -2.88525469062500 -4.38537494062500 
 S -3.55718300625001 -2.41013069062500 -1.21604294062500 
 S -1.05762700625001 -3.50448369062500 -0.357096940625000 
