16

 C -2.41717079687500 -6.48664055937500 -2.61213300625000 
 C -1.19511679687500 -6.93819955937500 -1.99081900625000 
 C -2.60671079687500 -2.54895255937500 -2.35543600625000 
 C -1.48258479687500 -3.08522155937500 -1.68374600625000 
 N -0.124322796875001 -7.05379855937500 -2.76680500625000 
 N -2.21538779687500 -6.19327755937500 -3.90797900625000 
 N -2.97066079687500 -6.86322255937500 -7.693000624999868E-002
 N -0.471334796875001 -3.49696555937500 -2.44338900625000 
 N -2.43270279687500 -2.34090255937500 -3.67926700625000 
 N -3.38959079687500 -2.91556655937500 0.172479993750001 
 S -0.657900796875001 -6.58637355937500 -4.26618800625000 
 S -3.75212179687500 -6.46836855937500 -1.44935600625000 
 S -1.36436379687500 -7.15321755937500 -0.266165006249999 
 S -0.872172796875001 -3.01984255937500 -3.97891200625000 
 S -3.95316679687500 -2.22169955937500 -1.24140900625000 
 S -1.74037479687500 -3.25400955937500 5.909599375000152E-002
