16

 C -2.34598815000000 -6.25867316250000 -2.59414168125000 
 C -1.18900115000000 -6.81356116250000 -1.92322568125000 
 C -2.24470515000000 -2.91002416250000 -2.35287768125000 
 C -1.05540115000000 -3.51927116250000 -1.82815968125000 
 N -0.122935149999996 -7.08748516250000 -2.68829968125000 
 N -2.06641815000000 -5.99133116250000 -3.88270268125000 
 N -2.99169415000000 -6.65473516250000 -7.857168125000014E-002
 N -0.140751149999995 -3.60966416250000 -2.76096268125000 
 N -2.18218515000000 -2.51544116250000 -3.60684568125000 
 N -2.61519215000000 -3.27490016250000 0.158244318750000 
 S -0.541778149999995 -6.57666716250000 -4.21468468125000 
 S -3.68166815000000 -6.02689016250000 -1.46848468125000 
 S -1.37538715000000 -7.12923016250000 -0.167358681250000 
 S -0.661681149999996 -2.91027616250000 -4.13358368125000 
 S -3.44657415000000 -2.82637616250000 -1.14906368125000 
 S -1.06434215000000 -3.79891216250000 -0.136312681250000 
