16

 C -2.57394865625000 -6.18816420625000 -2.27847564062500 
 C -1.39940865625000 -6.87993020625000 -1.73247264062500 
 C -2.24257465625000 -2.33199120625000 -2.47771564062500 
 C -1.09505465625000 -2.91974920625000 -1.86201464062500 
 N -0.411758656250004 -7.21077320625000 -2.58970264062500 
 N -2.41268665625000 -6.01178620625000 -3.60178864062500 
 N -3.14898565625000 -6.68028820625000 0.215303359375001 
 N -5.369365625000366E-002 -3.08550520625000 -2.66312664062500 
 N -2.18354765625000 -2.22655620625000 -3.80273164062500 
 N -2.87886665625000 -2.55533320625000 -5.086406249992237E-004
 S -0.894968656250004 -6.55042820625000 -4.00069464062500 
 S -3.89493865625000 -6.06057720625000 -1.13404864062500 
 S -1.55220065625000 -7.23358120625000 -2.601964062499951E-002
 S -0.694471656250004 -2.70498920625000 -4.26194364062500 
 S -3.56541065625000 -2.00624220625000 -1.42445564062500 
 S -1.35395965625000 -3.23224220625000 -0.153024640625000 
