16

 C -2.35379710937501 -6.17736578437500 -2.21282869062500 
 C -1.19006310937501 -6.76241778437500 -1.67650969062500 
 C -2.46051310937501 -2.84254078437500 -2.73294669062500 
 C -1.18103810937501 -3.06210478437500 -2.07316069062500 
 N -0.181676109375005 -6.94154178437500 -2.54753369062500 
 N -2.17654910937501 -5.83486078437500 -3.46487769062500 
 N -2.84438810937501 -6.66814478437500 0.287524309375000 
 N -0.179236109375005 -2.83828278437500 -2.94373969062500 
 N -2.41574410937501 -2.49238978437500 -4.04100969062500 
 N -2.92105210937501 -3.02214978437500 -0.208429690624999 
 S -0.677442109375005 -6.29665778437500 -4.03191369062500 
 S -3.66214510937501 -6.20680778437500 -1.13230269062500 
 S -1.30906810937501 -7.13219778437500 5.572830937500051E-002
 S -0.825178109375005 -2.59746278437500 -4.41326069062500 
 S -3.76658010937501 -2.99143578437500 -1.59929369062500 
 S -1.25865010937501 -3.31842578437500 -0.350000690625000 
