16

 C -2.17283058125000 -6.39405009687500 -2.38100432500000 
 C -0.936796581250001 -6.77638509687500 -1.80104832500000 
 C -2.60799758125000 -2.87413609687500 -2.50796432500000 
 C -1.36867258125000 -3.22513209687500 -1.77068532500000 
 N 8.814141874999848E-002 -6.79777809687500 -2.64702032500000 
 N -2.12692358125000 -6.26417009687500 -3.71231332500000 
 N -2.61641158125000 -6.67378809687500 0.114778674999999 
 N -0.262901581250001 -3.38606009687500 -2.52509032500000 
 N -2.35449958125000 -2.74620709687500 -3.81119232500000 
 N -3.22072058125000 -2.83319309687500 2.307367499999868E-002
 S -0.568071581250002 -6.46882809687500 -4.13655532500000 
 S -3.47544558125000 -6.40584409687500 -1.26774232500000 
 S -1.03914958125000 -7.08500609687500 -0.106002325000002 
 S -0.782639581250002 -3.06897109687500 -4.06434832500000 
 S -3.92825558125000 -2.47449409687500 -1.47225332500000 
 S -1.65412558125000 -3.38753109687500 -6.566032500000119E-002
