16

 C -2.42330343437500 -6.22980693437500 -2.41065146875000 
 C -1.21156143437500 -6.76126193437500 -1.82521746875000 
 C -2.50665943437500 -2.43903693437500 -2.39876146875000 
 C -1.42503743437500 -3.11650793437500 -1.76536246875000 
 N -0.216950434374997 -6.95674693437500 -2.67525046875000 
 N -2.23043943437500 -5.91942793437500 -3.69389546875000 
 N -2.91460543437500 -6.61941293437500 0.149213531249999 
 N -0.471238434374997 -3.56102793437500 -2.57367046875000 
 N -2.35245143437500 -2.35612693437500 -3.72402046875000 
 N -3.07669743437500 -2.39042793437500 7.778453124999918E-002
 S -0.734052434374997 -6.43764893437500 -4.17432346875000 
 S -3.66713643437500 -6.06469893437500 -1.16337646875000 
 S -1.31263043437500 -7.05574393437500 -0.144611468750001 
 S -0.898868434374997 -3.03993393437500 -4.11853646875000 
 S -3.87122943437500 -2.07524593437500 -1.38839446875000 
 S -1.65339743437500 -3.20274793437500 -9.067446875000096E-002
