16

 C -2.44099899375000 -6.76811330937499 -2.40597951250000 
 C -1.19494999375000 -7.16583230937499 -1.72679851250000 
 C -2.77193899375000 -3.27877330937499 -2.09054951250000 
 C -1.48605299375000 -3.52424730937499 -1.40035651250000 
 N -0.161341993750002 -7.14932530937499 -2.55387651250000 
 N -2.41605599375000 -6.52629530937499 -3.71806451250000 
 N -2.86718699375000 -6.88357530937499 0.194773487499998 
 N -0.400347993750002 -3.53838630937499 -2.15227951250000 
 N -2.55349899375000 -3.00840430937499 -3.36860851250000 
 N -3.34063299375000 -3.26942030937499 0.408960487499998 
 S -0.770613993750002 -6.72208330937499 -4.02905751250000 
 S -3.69160999375000 -6.42706230937499 -1.19207651250000 
 S -1.25190099375000 -7.19818030937499 1.347348749999799E-002
 S -0.943113993750002 -3.31335930937499 -3.70254751250000 
 S -4.12355699375000 -3.21378030937499 -1.02058851250000 
 S -1.72831299375000 -3.63787530937499 0.311918487499998 
