16

 C -2.54627861250000 -6.49718867187500 -2.32437260625000 
 C -1.32010061250000 -6.95603567187500 -1.70104660625000 
 C -2.16886461250000 -3.00069167187500 -2.39849760625000 
 C -1.02893561250000 -3.54328767187500 -1.67910860625000 
 N -0.339836612500000 -7.15650867187500 -2.54391760625000 
 N -2.52253861250000 -6.45739767187500 -3.63511860625000 
 N -3.03274261250000 -6.51555067187500 0.125050393750001 
 N 7.717338750000025E-002 -3.61261667187500 -2.42504360625000 
 N -1.90571661250000 -2.60797867187500 -3.63530660625000 
 N -2.88450761250000 -3.29858667187500 4.248539375000115E-002
 S -0.986988612499999 -6.80741967187500 -4.06073660625000 
 S -3.87455661250000 -6.24830767187500 -1.27201360625000 
 S -1.44716561250000 -7.05951867187500 -1.008160624999888E-002
 S -0.330869612500000 -3.02906267187500 -3.96318460625000 
 S -3.56206561250000 -2.79757267187500 -1.35650160625000 
 S -1.34716061250000 -3.97986767187500 -4.539360624999911E-002
