16

 C -2.40818597187500 -6.59372562812500 -2.47234997812500 
 C -1.12563697187500 -6.87888262812500 -1.83162697812500 
 C -2.45066197187500 -2.67899262812500 -2.41129697812500 
 C -1.27603797187500 -3.06381662812500 -1.62152997812500 
 N -7.477497187500326E-002 -6.82906662812500 -2.65682297812500 
 N -2.31073297187500 -6.37799062812500 -3.77423397812500 
 N -2.96188497187500 -6.99742562812500 -2.701397812499762E-002
 N -0.219109971875003 -3.28961962812500 -2.39040797812500 
 N -2.20853197187500 -2.66168862812500 -3.71573397812500 
 N -3.22198797187500 -2.69439462812500 6.679002187500238E-002
 S -0.675774971875003 -6.51347062812500 -4.17508297812500 
 S -3.71273197187500 -6.56897862812500 -1.38636297812500 
 S -1.36027197187500 -7.29423562812500 -0.154852978124998 
 S -0.641231971875004 -3.04413962812500 -4.00099397812500 
 S -3.82519897187500 -2.33695962812500 -1.43589197812500 
 S -1.66349397187500 -3.19309462812500 6.961602187500238E-002
