16

 C -2.63481258750000 -6.63926584687500 -2.32343035625000 
 C -1.38912958750000 -6.99626084687500 -1.63359135625000 
 C -2.70259958750000 -2.40792184687500 -2.38321935625000 
 C -1.50509858750000 -2.93680484687500 -1.72871335625000 
 N -0.350440587499998 -7.04487884687500 -2.45716735625000 
 N -2.52833158750000 -6.41959884687500 -3.61968135625000 
 N -3.23992058750000 -6.75783084687500 0.201659643750001 
 N -0.454869587499998 -3.22829384687500 -2.51084335625000 
 N -2.49364358750000 -2.17707884687500 -3.67271435625000 
 N -3.40302158750000 -2.88352684687500 2.503564375000100E-002
 S -0.875509587499998 -6.62729284687500 -3.99686635625000 
 S -4.05919958750000 -6.54862984687500 -1.27962635625000 
 S -1.58240858750000 -7.12930584687500 0.113448643750001 
 S -1.01197358750000 -2.75072284687500 -4.06090835625000 
 S -4.06950258750000 -2.07202384687500 -1.26946135625000 
 S -1.79577258750000 -3.28876784687500 -3.353562499990304E-004
