16

 C -2.34092984687500 -6.37279816250000 -2.24881222812500 
 C -1.12822484687500 -6.86875516250000 -1.65014222812500 
 C -2.38798584687500 -2.70099916250000 -2.44663622812500 
 C -1.19024584687500 -3.12073616250000 -1.82804322812500 
 N -0.107771846875001 -6.92779416250000 -2.50132222812500 
 N -2.28429184687500 -6.14697816250000 -3.56734322812500 
 N -2.90132784687500 -6.72938016250000 0.302586771875000 
 N -0.165331846875001 -3.14194416250000 -2.70631322812500 
 N -2.29625484687500 -2.38551616250000 -3.75042922812500 
 N -3.00678984687500 -3.12099516250000 -8.712228124999832E-003
 S -0.709285846875001 -6.47962216250000 -4.03316822812500 
 S -3.64720084687500 -6.26325416250000 -1.14089222812500 
 S -1.33157984687500 -7.22894316250000 8.850377187500014E-002
 S -0.739789846875001 -2.71646316250000 -4.19918922812500 
 S -3.78385584687500 -2.54051216250000 -1.39873022812500 
 S -1.32024484687500 -3.49204216250000 -9.324822812500000E-002
