16

 C -2.29181457187500 -6.46192550937500 -2.48437095625000 
 C -1.05470457187500 -6.77871250937500 -1.80183495625000 
 C -2.47084857187500 -3.28822650937500 -2.11636995625000 
 C -1.15961857187500 -3.34684350937500 -1.60930495625000 
 N -3.329257187499568E-002 -6.87628650937500 -2.62330595625000 
 N -2.22442057187500 -6.33989150937500 -3.79441595625000 
 N -2.94768257187500 -6.55002750937500 3.953504374999772E-002
 N -0.180900571874996 -3.32787050937500 -2.49867895625000 
 N -2.55081557187500 -3.38562750937500 -3.45059195625000 
 N -2.66279457187500 -3.55726050937500 0.458643043749998 
 S -0.670514571874995 -6.66642050937500 -4.19601795625000 
 S -3.66231457187500 -6.22199150937500 -1.42971895625000 
 S -1.31349857187500 -6.89625450937500 -8.615095625000202E-002
 S -0.985179571874996 -3.32066750937500 -3.98010095625000 
 S -3.67778957187500 -3.32301650937500 -0.865892956250002 
 S -1.01583857187500 -3.60518850937500 0.139491043749998 
