16

 C -2.38893680312500 -6.37331055000000 -2.55493817500000 
 C -1.19815380312500 -6.68030855000000 -1.83089017500000 
 C -2.42552680312500 -2.85882355000000 -2.49358817500000 
 C -1.14189080312500 -3.22301555000000 -1.90436417500000 
 N -0.134125803125004 -6.87039455000000 -2.64399717500000 
 N -2.21712380312500 -6.23877355000000 -3.86570717500000 
 N -3.11943580312500 -6.33927355000000 -6.470917500000151E-002
 N -0.104884803125004 -3.22813455000000 -2.75260517500000 
 N -2.32399580312500 -2.68576155000000 -3.81100517500000 
 N -2.93315180312500 -2.88189355000000 -6.129417500000156E-002
 S -0.636135803125003 -6.57694155000000 -4.22561217500000 
 S -3.84791880312500 -6.22587755000000 -1.55677617500000 
 S -1.49564080312500 -6.81066355000000 -0.127590175000001 
 S -0.733830803125004 -2.93343455000000 -4.28357217500000 
 S -3.74578580312500 -2.52599555000000 -1.49150717500000 
 S -1.24978680312500 -3.18676055000000 -0.170502175000002 
