16

 C -2.25469738750000 -6.26735184375001 -2.14081728125000 
 C -1.00180738750000 -6.76253084375001 -1.60062228125000 
 C -2.48457938750000 -2.76250484375001 -2.44687128125000 
 C -1.27031338750001 -3.14590684375001 -1.76460228125000 
 N -0.121321387500005 -6.84895284375001 -2.60961828125000 
 N -2.31867438750001 -6.09305984375001 -3.48842328125000 
 N -2.66516938750001 -6.67240684375001 0.460229718749998 
 N -0.192792387500005 -3.42682584375001 -2.48897728125000 
 N -2.29550338750000 -2.71304384375001 -3.77601128125000 
 N -3.01029938750001 -2.72832284375001 4.923771874999838E-002
 S -0.806580387500005 -6.36882984375001 -4.03949628125000 
 S -3.50351438750000 -6.11734284375001 -0.865339281250002 
 S -1.14092638750000 -7.20234984375001 0.118397718749998 
 S -0.662937387500005 -3.06956484375001 -4.01155628125000 
 S -3.75080038750001 -2.32804884375001 -1.38970628125000 
 S -1.53311638750001 -3.41622984375001 -6.346728125000167E-002
