16

 C -2.28124953125000 -6.45115810312500 -2.46396614375000 
 C -1.05228553125000 -6.73102210312500 -1.74786014375000 
 C -2.55750353125000 -2.65285810312500 -2.54906214375000 
 C -1.44366553125000 -3.19118710312500 -1.81313414375000 
 N -4.276053125000345E-002 -6.94753910312500 -2.59238014375000 
 N -2.21507153125000 -6.27465910312500 -3.77821714375000 
 N -2.84286153125000 -6.73549210312500 6.689085624999880E-002
 N -0.423775531250004 -3.55086410312500 -2.59339914375000 
 N -2.33114953125000 -2.66972210312500 -3.86032014375000 
 N -3.27666953125000 -2.93850510312500 -9.730914375000110E-002
 S -0.623904531250004 -6.64011010312500 -4.13247314375000 
 S -3.61445453125000 -6.29204710312500 -1.35514214375000 
 S -1.17978853125000 -6.88636610312500 -3.073614375000111E-002
 S -0.804632531250004 -3.25855810312500 -4.17289514375000 
 S -3.94854953125000 -2.45462110312500 -1.55626014375000 
 S -1.69211753125000 -3.36941710312500 -9.992114375000116E-002
