16

 C -2.51835539062500 -6.51857294062501 -2.51216952500000 
 C -1.38985139062500 -6.86819394062501 -1.69650752500000 
 C -2.49289939062500 -2.83285794062501 -2.37953552500000 
 C -1.23944939062500 -3.21829194062501 -1.71136352500000 
 N -0.316113390625000 -7.07347694062501 -2.44913652500000 
 N -2.34433939062500 -6.44140794062501 -3.84271752500000 
 N -3.26804439062500 -6.18684194062501 -0.106746525000002 
 N -0.123442390625000 -3.30435194062501 -2.44819352500000 
 N -2.31282439062500 -2.91090194062501 -3.68528352500000 
 N -3.01280139062500 -2.97786894062501 0.112672474999998 
 S -0.750607390624999 -6.87895394062501 -4.06189452500000 
 S -3.86935739062500 -5.93048794062501 -1.61106652500000 
 S -1.68101839062500 -6.69527794062501 -5.368852500000210E-002
 S -0.662615390625000 -3.17473794062501 -4.03693152500000 
 S -3.81922039062500 -2.57336794062501 -1.26761452500000 
 S -1.41435939062500 -3.51444894062501 -3.259052500000204E-002
