16

 C -2.58516318750000 -6.26907810937501 -2.51993260937500 
 C -1.45734218750000 -6.97559410937501 -2.02785660937500 
 C -2.43319318750000 -2.66692810937501 -2.43900860937500 
 C -1.32316818750000 -3.23707110937501 -1.79031660937500 
 N -0.408385187499998 -7.19281410937501 -2.86051360937500 
 N -2.39439118750000 -5.90998810937501 -3.78554560937500 
 N -3.08048618750000 -6.80588210937501 -6.850060937499958E-002
 N -0.278551187499998 -3.28727610937501 -2.61210160937500 
 N -2.37466018750000 -2.47583010937501 -3.76320660937500 
 N -3.05585618750000 -2.73893210937501 6.577739062500032E-002
 S -0.917832187499998 -6.45823510937501 -4.23335460937500 
 S -3.82689518750000 -6.05550710937501 -1.33735760937500 
 S -1.56686618750000 -7.57103610937501 -0.364028609375000 
 S -0.830777187499998 -2.98209710937501 -4.12120160937500 
 S -3.69751118750000 -2.20218510937501 -1.36125960937500 
 S -1.61412718750000 -3.48520310937501 -7.009160937499970E-002
