16

 C -2.43384208437500 -6.59247445312500 -2.46978876875000 
 C -1.19008408437500 -6.82013745312500 -1.70012176875000 
 C -2.21491008437500 -2.93135145312500 -2.19485376875000 
 C -0.925077084374996 -3.33986645312500 -1.66296176875000 
 N -0.135414084374996 -6.79878245312500 -2.50169876875000 
 N -2.28404908437500 -6.31487845312500 -3.75550076875000 
 N -3.06344508437500 -6.63805245312500 0.126356231249999 
 N 8.591491562500408E-002 -3.36418045312500 -2.51152076875000 
 N -2.21849208437500 -2.70780445312500 -3.49836276875000 
 N -2.64876108437500 -3.23717545312500 0.326973231249999 
 S -0.616203084374996 -6.50135345312500 -4.07673476875000 
 S -3.79989608437500 -6.41044145312500 -1.35661176875000 
 S -1.39628008437500 -6.86759245312500 5.568023124999866E-002
 S -0.692134084374996 -3.03445545312500 -4.02829376875000 
 S -3.49750408437500 -2.87482345312500 -1.07384276875000 
 S -0.998099084374996 -3.56710245312500 0.129263231249999 
