16

 C -2.32474332812500 -6.39402997187500 -2.23915770312500 
 C -1.13573932812500 -6.87970697187500 -1.61959870312500 
 C -2.41478432812500 -2.58789597187500 -2.41094470312500 
 C -1.15355832812500 -3.12302097187500 -1.83352070312500 
 N -0.136262328125002 -6.90534197187500 -2.49074570312500 
 N -2.25356332812500 -6.22755697187500 -3.54368070312500 
 N -2.84152732812500 -6.66126797187500 0.289777296874997 
 N -0.158704328125003 -3.29490097187500 -2.69428370312500 
 N -2.26433732812500 -2.41909297187500 -3.70375270312500 
 N -3.03913632812500 -3.09900697187500 4.618129687499684E-002
 S -0.707021328125003 -6.53359997187500 -4.04334670312500 
 S -3.69049432812500 -6.31563097187500 -1.16339370312500 
 S -1.35119032812500 -7.29149197187500 3.779629687499675E-002
 S -0.727160328125002 -2.73920497187500 -4.14136770312500 
 S -3.76808832812500 -2.46242797187500 -1.34458770312500 
 S -1.35626532812500 -3.50061097187500 -9.473670312500326E-002
