16

 C -2.33276912812500 -6.57089523750000 -2.46003451875000 
 C -1.18553412812500 -7.01567323750000 -1.74142351875000 
 C -2.35304012812500 -2.93602823750000 -2.52083251875000 
 C -1.16752312812500 -3.35837823750000 -1.85542751875000 
 N -0.106281128125002 -7.18514723750000 -2.48570351875000 
 N -2.10356712812500 -6.41101423750000 -3.74596351875000 
 N -3.14154212812500 -6.82245923750000 -3.102551875000015E-002
 N -0.143742128125002 -3.47139423750000 -2.63901351875000 
 N -2.22279912812500 -2.79023623750000 -3.83331551875000 
 N -3.01174312812500 -3.14998723750000 -5.505651875000006E-002
 S -0.494746128125002 -6.80004523750000 -4.03610051875000 
 S -3.74411012812500 -6.36485123750000 -1.47124651875000 
 S -1.54401912812500 -7.35020223750000 -0.102258518750000 
 S -0.646808128125002 -3.12273123750000 -4.18418651875000 
 S -3.65627512812500 -2.66109423750000 -1.46869551875000 
 S -1.44246912812500 -3.69935723750000 -0.193938518750000 
