16

 C -2.45904970000000 -6.43730344062499 -2.34345726250000 
 C -1.22317270000000 -6.81917844062499 -1.75205526250000 
 C -2.48795470000000 -2.93558044062499 -2.56249826250000 
 C -1.20431770000000 -3.29556144062499 -1.96689126250000 
 N -0.177763700000003 -6.77945044062499 -2.55892526250000 
 N -2.34798870000000 -6.11388744062499 -3.63656226250000 
 N -2.88233370000000 -6.86650144062499 0.206337737500001 
 N -0.230823700000003 -3.32512144062499 -2.87463726250000 
 N -2.45401570000000 -2.57442044062499 -3.85315426250000 
 N -2.94452470000000 -3.22826644062499 -6.013126249999878E-002
 S -0.737849700000003 -6.49260444062499 -4.09001526250000 
 S -3.77494570000000 -6.50075444062499 -1.17878226250000 
 S -1.26120970000000 -7.11622544062499 -3.825326249999916E-002
 S -0.850060700000003 -2.77496744062499 -4.29853126250000 
 S -3.81227470000000 -2.93715844062499 -1.42271826250000 
 S -1.30281370000000 -3.52777444062499 -0.252322262499999 
