16

 C -2.41442326250000 -6.52016585937500 -2.42419247187500 
 C -1.15138726250000 -6.81007285937500 -1.77339847187500 
 C -2.65203226250000 -2.63248085937500 -2.42658647187500 
 C -1.41639926250000 -3.15008985937500 -1.79893447187500 
 N -0.149947262500000 -7.00430985937500 -2.61730647187500 
 N -2.34959326250000 -6.56750685937500 -3.76122947187500 
 N -2.83058026250000 -6.63050085937500 0.109864528125000 
 N -0.384288262500001 -3.45762385937500 -2.60321547187500 
 N -2.46989326250000 -2.44547485937500 -3.75504247187500 
 N -3.15830526250000 -2.80748485937500 0.162015528125000 
 S -0.767386262500001 -6.86229985937500 -4.12561747187500 
 S -3.74973826250000 -6.32346785937500 -1.22254847187500 
 S -1.24425426250000 -7.09736185937500 -3.819147187499983E-002
 S -0.948143262500000 -2.98649485937500 -4.12768747187500 
 S -3.95258826250000 -2.29108385937500 -1.26987247187500 
 S -1.63580826250000 -3.51810885937500 -9.625547187499972E-002
