16

 C -2.43330911875000 -6.51368750625000 -2.41959063437500 
 C -1.23828211875000 -6.98262150625000 -1.73156263437500 
 C -2.20359211875000 -2.53533850625000 -2.11721263437500 
 C -1.05943011875000 -3.31256250625000 -1.66591563437500 
 N -0.144508118750000 -7.11231250625000 -2.46791463437500 
 N -2.22658711875000 -6.26305450625000 -3.68694063437500 
 N -2.97595411875000 -6.61381150625000 0.204487365625001 
 N -0.144183118750000 -3.46599850625000 -2.60984363437500 
 N -2.00440111875000 -1.91254250625000 -3.27368663437500 
 N -2.83656211875000 -3.33112250625000 0.274461365625001 
 S -0.615318118750000 -6.71845450625000 -4.05313663437500 
 S -3.77466611875000 -6.28337750625000 -1.25035463437500 
 S -1.41494911875000 -7.01226550625000 5.225365625001199E-003
 S -0.624513118750000 -2.45916750625000 -3.88746863437500 
 S -3.55885211875000 -2.55625950625000 -1.05417063437500 
 S -1.27415211875000 -3.74010650625000 1.155365625001403E-003
