16

 C -2.51569031250000 -6.50128878125000 -2.56318697187500 
 C -1.33009231250000 -6.77128678124999 -1.86464897187500 
 C -2.47914831250000 -2.55531778124999 -2.38947197187500 
 C -1.25066331250000 -3.03650178124999 -1.77394897187500 
 N -0.192426312500003 -6.74951178124999 -2.56283097187500 
 N -2.27583431250000 -6.33313478124999 -3.85387497187500 
 N -3.14789031250000 -6.61140178125000 -3.832197187499964E-002
 N -0.280402312500003 -3.23485078125000 -2.63680097187500 
 N -2.40656831250000 -2.55357278125000 -3.70956397187500 
 N -2.98000231250000 -2.70545578125000 8.884602812500053E-002
 S -0.661783312500003 -6.45006678124999 -4.12263897187500 
 S -3.94956631250000 -6.35220678125000 -1.50741797187500 
 S -1.49707831250000 -6.97699478124999 -0.165580971874999 
 S -0.784445312500003 -2.92035478125000 -4.18096097187500 
 S -3.80269131250000 -2.22421778124999 -1.32358197187500 
 S -1.38577831250000 -3.19251778124999 -7.571497187499965E-002
