16

 C -2.80058308749999 -6.40702765312500 -2.47425078750000 
 C -1.60915508749999 -6.87313265312500 -1.80487578750000 
 C -2.26209708749999 -2.87657565312500 -2.22492078750000 
 C -1.05720008749999 -3.24767565312500 -1.63097278750000 
 N -0.521310087499994 -6.93173865312500 -2.58492078750000 
 N -2.62725608749999 -6.18608565312500 -3.78612878750000 
 N -3.39687108749999 -6.58085065312500 3.856721250000050E-002
 N -3.639308749999337E-002 -3.37617565312500 -2.47550978750000 
 N -2.17820608749999 -2.71770765312500 -3.53229078750000 
 N -2.84600408749999 -3.13048665312500 0.254165212500001 
 S -1.03930808749999 -6.45797465312500 -4.08595078750000 
 S -4.15736008749999 -6.07503265312500 -1.35123478750000 
 S -1.78963808749999 -6.99951365312500 -7.668878749999930E-002
 S -0.666511087499994 -3.12799365312500 -3.99939878750000 
 S -3.67626108749999 -2.88013865312500 -1.19188878750000 
 S -1.20837708749999 -3.50387165312500 0.120883212500001 
