16

 C -2.31621179687500 -6.54577715000000 -2.34584521250000 
 C -1.13528779687500 -7.10274815000000 -1.76787621250000 
 C -2.46900479687500 -2.78664715000000 -2.28860821250000 
 C -1.16302279687500 -3.15996615000000 -1.69206221250000 
 N -0.163748796875000 -7.36086315000000 -2.61245421250000 
 N -2.20278679687500 -6.34753715000000 -3.62123021250000 
 N -2.79572379687500 -6.66097415000000 0.189137787499999 
 N -0.223495796875000 -3.38337515000000 -2.59695921250000 
 N -2.42289679687500 -2.71920015000000 -3.60784021250000 
 N -2.85332279687500 -2.85963115000000 0.259084787500000 
 S -0.659033796875000 -6.75068715000000 -4.12411121250000 
 S -3.59359679687500 -6.34485415000001 -1.25926021250000 
 S -1.35443279687500 -7.28770315000000 -2.333421250000067E-002
 S -0.963688796875000 -3.31691115000000 -4.12265721250000 
 S -3.84060779687500 -2.77483615000000 -1.11652521250000 
 S -1.19970579687500 -3.15157915000000 9.290778749999951E-002
