16

 C -2.15233176875000 -6.30440858437500 -2.29363727812500 
 C -0.953980768749999 -6.81954258437500 -1.74211927812500 
 C -2.80990476875000 -2.50728758437500 -2.49641427812500 
 C -1.57881476875000 -2.99607758437500 -1.90859927812500 
 N 6.362231250000683E-003 -6.94974058437500 -2.66425227812500 
 N -2.12365976875000 -6.07879358437500 -3.60505627812500 
 N -2.61270876875000 -6.69199858437500 0.227754721875000 
 N -0.524174768749999 -3.01040858437500 -2.79688927812500 
 N -2.73113776875000 -2.36564758437500 -3.82145627812500 
 N -3.41423276875000 -2.89772758437500 -9.014278124999553E-003
 S -0.585699768750000 -6.48653958437500 -4.12084827812500 
 S -3.47126376875000 -6.19892358437500 -1.15718327812500 
 S -1.06116276875000 -7.18117158437500 -5.995727812499974E-002
 S -1.11733076875000 -2.61533358437500 -4.22552427812500 
 S -4.14564976875000 -2.34921058437500 -1.39867827812500 
 S -1.79253676875000 -3.33125058437500 -0.184343278125000 
