16

 C -2.47423609687500 -6.26680309062499 -2.50649670312500 
 C -1.22626309687500 -6.61221809062500 -1.88253570312500 
 C -2.43567809687500 -2.88089609062500 -2.56615970312500 
 C -1.19009409687500 -3.08346509062499 -1.87888070312500 
 N -0.204253096875000 -6.72488109062500 -2.70683770312500 
 N -2.45487109687500 -6.21868209062499 -3.84328370312500 
 N -3.05131009687500 -6.58974309062500 5.026829687500145E-002
 N -0.106302096875000 -3.32335909062500 -2.60964170312500 
 N -2.26517009687500 -2.95556809062500 -3.86292370312500 
 N -3.01284009687500 -2.71267109062500 -5.477470312499855E-002
 S -0.844724096875001 -6.42880409062500 -4.24347870312500 
 S -3.86347709687500 -6.06362709062500 -1.35489570312500 
 S -1.44841609687500 -6.77631509062500 -0.133043703124998 
 S -0.713172096875001 -3.39427409062500 -4.14714970312500 
 S -3.84498709687500 -2.62965909062500 -1.49059070312500 
 S -1.38658809687500 -3.15678209062500 -0.123943703124999 
