16

 C -2.36240322187500 -6.21618699375000 -2.20454903125000 
 C -1.20720022187500 -6.75998399375000 -1.57972103125000 
 C -2.31046122187500 -2.54552299375000 -2.14161603125000 
 C -1.11595822187500 -3.05387499375000 -1.52626003125000 
 N -8.916922187500020E-002 -6.96553099375000 -2.29384803125000 
 N -2.14296022187500 -6.00676099375000 -3.50454203125000 
 N -2.97804622187500 -6.45052599375000 0.332502968749999 
 N -0.149439221875000 -3.16025299375000 -2.42501503125000 
 N -2.20950322187500 -2.19062799375000 -3.41570903125000 
 N -2.94101222187500 -3.14297599375000 0.226149968749999 
 S -0.520034221875000 -6.44193599375000 -3.88037803125000 
 S -3.73048322187500 -6.12502199375000 -1.13271003125000 
 S -1.50431822187500 -7.13556999375000 0.150521968749999 
 S -0.638930221875000 -2.46815799375000 -3.84952703125000 
 S -3.70318422187500 -2.44534099375000 -1.10981503125000 
 S -1.36367322187500 -3.72098399375000 8.561396874999949E-002
