16

 C -2.65263613437500 -6.64823106250000 -2.17969662187500 
 C -1.40928613437500 -7.02807306250000 -1.53162362187500 
 C -2.24541913437500 -2.50092806250000 -2.44345862187500 
 C -1.13065313437500 -3.24720706250000 -1.85370862187500 
 N -0.328366134374997 -7.06779206250000 -2.30936862187500 
 N -2.39905913437500 -6.28348806250000 -3.41710362187500 
 N -3.25199713437500 -6.96266106250000 0.308687378124999 
 N -9.927413437499677E-002 -3.44959306250000 -2.70087162187500 
 N -2.09990113437500 -2.22004006250000 -3.75879662187500 
 N -2.84721813437500 -2.90585706250000 4.851337812499934E-002
 S -0.822546134374996 -6.43683106250000 -3.74260862187500 
 S -4.03779113437500 -6.64246406250000 -1.15054962187500 
 S -1.64616413437500 -7.32900806250000 0.181139378124999 
 S -0.666239134374996 -2.85435106250000 -4.15553062187500 
 S -3.60714713437500 -2.34123706250000 -1.32740962187500 
 S -1.35258313437500 -3.55153206250000 -0.170867621875001 
