16

 C -2.62917848437499 -6.23187387187500 -2.36826790625000 
 C -1.45952148437499 -6.79837587187500 -1.72350690625000 
 C -2.48764748437499 -3.07326487187500 -2.35793690625000 
 C -1.17464048437499 -3.21888587187500 -1.72963190625000 
 N -0.505356484374992 -7.29603887187500 -2.51440390625000 
 N -2.50512948437499 -6.20142687187500 -3.68419190625000 
 N -3.25543048437499 -6.35973687187500 5.822309375000101E-002
 N -0.217936484374992 -3.44520387187500 -2.63094190625000 
 N -2.46714348437499 -3.02684887187500 -3.70499290625000 
 N -2.93920848437499 -3.06319287187500 0.166005093750001 
 S -1.11476348437499 -7.06822087187500 -4.06424390625000 
 S -3.92176348437499 -5.98354687187500 -1.36152490625000 
 S -1.58559348437499 -6.82490387187500 1.659309375000095E-002
 S -0.829082484374993 -3.17897687187500 -4.09328890625000 
 S -3.83318248437499 -3.23707287187500 -1.18795890625000 
 S -1.24606248437499 -3.24094187187500 -4.230490624999894E-002
