16

 C -2.15349731250000 -6.17978669375000 -2.55262209375000 
 C -1.05761631250000 -6.71128469375000 -1.81424309375000 
 C -2.40398831250000 -2.85934269375000 -2.50626209375000 
 C -1.12911431250000 -3.22595369375000 -1.85089009375000 
 N 3.729068750000053E-002 -6.93553569375000 -2.53721409375000 
 N -2.01876131250000 -6.13902569375000 -3.87907209375000 
 N -3.01595331250000 -6.50983269375000 -0.180885093749998 
 N -0.139631312500000 -3.42003769375000 -2.71090009375000 
 N -2.29499631250000 -2.66036169375000 -3.82242909375000 
 N -2.80169331250000 -2.87335069375000 3.281906250001576E-003
 S -0.438969312500000 -6.59852869375000 -4.14201709375000 
 S -3.55047631250000 -5.90038169375000 -1.61527009375000 
 S -1.35973631250000 -6.74749069375000 -0.121078093749999 
 S -0.723117312500000 -3.06998369375000 -4.23709909375000 
 S -3.68172231250000 -2.79434269375000 -1.33516709375000 
 S -1.18557831250000 -3.28348569375000 -0.143474093749998 
