16

 C -2.49891412500000 -6.53833522187500 -2.54648381562500 
 C -1.28982212500000 -7.01117822187500 -1.93819981562500 
 C -2.72567012500000 -2.91787722187500 -2.54215581562500 
 C -1.57961412500000 -3.46955722187500 -1.85199881562500 
 N -0.184983124999998 -7.10687822187500 -2.64743081562500 
 N -2.25610512500000 -6.26738122187500 -3.83280581562500 
 N -3.14638712500000 -6.74192222187500 -4.585081562500148E-002
 N -0.541411124999998 -3.59879922187500 -2.67560381562500 
 N -2.55386712500000 -2.56120422187500 -3.80629081562500 
 N -3.44866812500000 -3.23529522187500 -2.096281562500146E-002
 S -0.657803124999998 -6.63044222187500 -4.16339581562500 
 S -3.79909512500000 -6.33131522187500 -1.45842381562500 
 S -1.54988812500000 -7.21577922187500 -0.208561815625001 
 S -1.02105212500000 -3.17577222187500 -4.20819681562500 
 S -3.98557312500000 -2.49745322187500 -1.40385981562500 
 S -1.89131312500000 -3.77202122187500 -0.113420815625001 
