16

 C -2.62803001250001 -6.66524303437500 -2.32826011562500 
 C -1.32901601250001 -6.85005803437500 -1.67774911562500 
 C -2.46024701250001 -3.09450503437500 -2.49985311562500 
 C -1.11864101250001 -3.31975003437500 -1.92412811562500 
 N -0.366461012500006 -6.80531403437500 -2.57175611562500 
 N -2.62580401250001 -6.54525303437500 -3.65981511562500 
 N -3.16869101250001 -6.81794103437500 0.262339884374999 
 N -0.100846012500005 -3.27849803437500 -2.78107911562500 
 N -2.38304901250001 -3.05486003437500 -3.81808011562500 
 N -2.71913201250001 -3.07606503437500 6.878588437499911E-002
 S -1.04453301250001 -6.66442003437500 -4.09455211562500 
 S -3.99809601250001 -6.68232703437500 -1.19771711562500 
 S -1.54909401250001 -7.15624303437500 6.217988437499899E-002
 S -0.827035012500006 -3.31231803437500 -4.31400711562500 
 S -3.69149501250001 -2.90706203437500 -1.23614611562500 
 S -1.05943201250001 -3.33785203437500 -0.197247115625001 
