16

 C -2.41086343437500 -6.49207104062500 -2.60884930625000 
 C -1.21686943437500 -6.93888304062500 -2.02049630625000 
 C -2.59340043437500 -2.53360304062500 -2.36444130625000 
 C -1.48682543437500 -3.12252804062500 -1.68994830625000 
 N -0.125793434375002 -7.07499604062500 -2.78699030625000 
 N -2.23351443437500 -6.21180204062500 -3.90483630625000 
 N -3.00424543437500 -6.85525104062500 -5.974130624999896E-002
 N -0.460667434375003 -3.51463504062500 -2.43996330625000 
 N -2.44449543437500 -2.35710904062500 -3.68708730625000 
 N -3.39760443437500 -2.90818804062500 0.170974693750001 
 S -0.665401434375003 -6.59529204062500 -4.25841230625000 
 S -3.72512643437500 -6.44507304062500 -1.45397830625000 
 S -1.35591443437500 -7.14434604062500 -0.256365306249999 
 S -0.909935434375003 -2.99589704062500 -3.97691830625000 
 S -3.95615243437500 -2.22519204062500 -1.21540530625000 
 S -1.75951043437500 -3.26415804062500 4.964269375000119E-002
