16

 C -2.35979804375000 -6.25821003750000 -2.40953140312500 
 C -1.28881704375000 -6.95906203750000 -1.71522240312500 
 C -2.47760004375000 -2.32989003750000 -2.44867140312500 
 C -1.37105904375000 -2.92283003750000 -1.78948140312500 
 N -0.244240043749998 -7.16517103750000 -2.47796540312500 
 N -2.13507004375000 -5.91501903750000 -3.66380440312500 
 N -3.15629204375000 -6.55136503750000 2.228959687499898E-002
 N -0.410743043749998 -3.34268603750000 -2.60074440312500 
 N -2.26954404375000 -2.12215203750000 -3.77652840312500 
 N -3.08013204375000 -2.37646703750000 2.870859687499916E-002
 S -0.643437043749998 -6.55692803750000 -4.02252740312500 
 S -3.75527104375000 -5.98062203750000 -1.38600840312500 
 S -1.60728504375000 -7.23418903750000 -1.012440312500074E-002
 S -0.790864043749998 -2.81779803750000 -4.09807940312500 
 S -3.80874304375000 -2.05875503750000 -1.43166140312500 
 S -1.58104904375000 -3.04225703750000 -7.395940312500082E-002
