16

 C -2.36225947500000 -6.08997487500001 -2.34841588125000 
 C -1.20234847500000 -6.81471587500001 -1.80216888125000 
 C -2.70122547500000 -2.48188487500001 -2.73051388125000 
 C -1.43168047500000 -2.84107987500001 -2.10272088125000 
 N -0.319896474999998 -7.14603587500001 -2.74235488125000 
 N -2.37080547500000 -5.88143187500001 -3.67856288125000 
 N -2.70520047500000 -6.36866087500001 0.192318118749998 
 N -0.430401474999997 -3.11471787500001 -2.90639288125000 
 N -2.59087847500000 -2.38388587500001 -4.04862888125000 
 N -3.09481347500000 -2.42473687500001 -0.143423881250002 
 S -0.950053474999998 -6.55553087500001 -4.18773388125000 
 S -3.57026047500000 -5.74884787500001 -1.12942488125000 
 S -1.26750247500000 -7.09898187500001 -9.923488125000235E-002
 S -1.03334447500000 -2.80382187500001 -4.41548088125000 
 S -3.99066647500000 -2.08360687500001 -1.52791088125000 
 S -1.52729747500000 -2.90375287500001 -0.321828881250002 
