16

 C -2.57378008437501 -6.33394362187499 -2.50153162812500 
 C -1.40170208437501 -6.83582762187499 -1.90510462812500 
 C -2.70612308437501 -2.59483162187499 -2.49259962812500 
 C -1.54633608437501 -3.17325962187499 -1.79102062812500 
 N -0.352164084375011 -6.93698762187499 -2.72603162812500 
 N -2.43027508437501 -6.03333762187499 -3.79149962812500 
 N -3.21935008437501 -6.57326462187499 -6.867662812500219E-002
 N -0.464224084375011 -3.33999362187499 -2.47601362812500 
 N -2.43800708437501 -2.35778462187499 -3.77902862812500 
 N -3.42215208437501 -2.81585062187499 6.767371874997874E-003
 S -0.875051084375011 -6.49351062187499 -4.23775462812500 
 S -3.87372108437501 -6.00488962187499 -1.48060562812500 
 S -1.68274308437501 -7.24859862187499 -0.190608628125002 
 S -0.838164084375011 -2.86370062187499 -4.01829562812500 
 S -4.13127108437501 -2.42805962187499 -1.45800562812500 
 S -1.89026208437501 -3.44015562187499 -0.100994628125002 
