16

 C -2.51269975000000 -6.43678369062500 -2.49024772500000 
 C -1.21671175000000 -6.69641469062500 -1.93038272500000 
 C -2.63963175000000 -2.72423969062500 -2.31199072500000 
 C -1.44752875000000 -3.23486869062500 -1.71845872500000 
 N -0.226203749999997 -6.86756469062500 -2.77943772500000 
 N -2.47909275000000 -6.25550369062500 -3.79791072500000 
 N -2.87398575000000 -6.36623969062500 3.793227500000107E-002
 N -0.461993749999998 -3.60799069062500 -2.55556672500000 
 N -2.65227175000000 -2.69176969062500 -3.64510672500000 
 N -3.19780575000000 -2.99623769062500 0.175786275000001 
 S -0.869993749999997 -6.55686869062500 -4.28688772500000 
 S -3.77170175000000 -6.13992569062500 -1.33565872500000 
 S -1.26106175000000 -6.62813569062500 -0.211433724999999 
 S -1.09702475000000 -3.16394769062500 -4.08336172500000 
 S -4.05974475000000 -2.62954769062500 -1.20365072500000 
 S -1.58285875000000 -3.40527269062500 3.424527500000085E-002
