16

 C -2.34856458437500 -6.34238837500000 -2.23245604687500 
 C -1.16623758437500 -6.88573437500000 -1.62412204687500 
 C -2.44471058437500 -2.74668137500000 -2.55325204687500 
 C -1.21282358437500 -3.07076137500000 -1.96704104687500 
 N -0.181389584375001 -6.99521437500000 -2.50904604687500 
 N -2.23317258437500 -6.00801037500000 -3.50141304687500 
 N -2.87956158437500 -6.91021737500000 0.203318953124999 
 N -0.115514584375002 -2.99591437500000 -2.74854604687500 
 N -2.36752858437500 -2.45510537500000 -3.86325604687500 
 N -2.95671458437500 -3.12237937500000 -6.506004687500089E-002
 S -0.697426584375002 -6.38450037500000 -3.95861304687500 
 S -3.67821458437500 -6.13207737500000 -1.11720204687500 
 S -1.25429858437500 -7.08590937500000 4.591795312499913E-002
 S -0.770107584375001 -2.64514637500000 -4.22454204687500 
 S -3.74265358437500 -2.76071537500000 -1.44040504687500 
 S -1.34419658437500 -3.41857537500000 -0.270822046875001 
