16

 C -2.53605883437501 -6.60320733750000 -2.50952537812500 
 C -1.27521383437501 -7.00972733750000 -1.97433237812500 
 C -2.59608883437501 -2.67994633750000 -2.19905637812500 
 C -1.35684483437501 -3.12471933750000 -1.55280937812500 
 N -0.322006834375006 -7.13356433750000 -2.90697137812500 
 N -2.62284983437501 -6.44023333750000 -3.83402337812500 
 N -2.83563583437501 -6.67735533750000 2.315462187500139E-002
 N -0.403578834375006 -3.40550333750000 -2.47605037812500 
 N -2.50560883437501 -2.63376133750000 -3.54355437812500 
 N -3.15850683437501 -3.01894333750000 0.246368621875001 
 S -1.06252383437501 -6.78166233750000 -4.32993537812500 
 S -3.78846383437501 -6.41365033750000 -1.31579537812500 
 S -1.24784283437501 -7.05414333750000 -0.264579378124999 
 S -0.983992834375006 -3.08416633750000 -3.97445237812500 
 S -3.94851583437501 -2.55100833750000 -1.16131237812500 
 S -1.59769983437501 -3.64966933750000 0.104618621875001 
