16

 C -2.56020075312499 -6.29653085000000 -2.39187118437500 
 C -1.31156775312499 -6.63655585000000 -1.79807218437500 
 C -2.49305875312499 -2.40704585000000 -2.88546318437500 
 C -1.31916675312499 -2.90735985000000 -2.13769918437500 
 N -0.206296753124994 -6.73089885000000 -2.55529318437500 
 N -2.41612175312499 -6.14163885000000 -3.70627718437500 
 N -3.00096575312499 -6.60821185000000 0.179892815624999 
 N -0.216809753124995 -3.01146185000000 -2.86596818437500 
 N -2.23234975312499 -2.13435985000000 -4.14557518437500 
 N -3.27552875312499 -2.72598685000000 -0.415026184375001 
 S -0.826806753124995 -6.43407385000000 -4.05010018437500 
 S -3.89594075312499 -6.54756585000000 -1.28532718437500 
 S -1.41400875312499 -6.89371985000000 -2.914318437500119E-002
 S -0.645199753124994 -2.52140285000000 -4.42320518437500 
 S -3.97038975312499 -2.20152785000000 -1.88091118437500 
 S -1.62833375312499 -3.14856885000000 -0.504481184375001 
