16

 C -2.38274442500000 -6.44640884687500 -2.18029937500000 
 C -1.17010942500000 -6.96166584687500 -1.53064137500000 
 C -2.43209942500000 -2.71374884687500 -2.46284937500000 
 C -1.12402542500000 -3.08336584687500 -1.84979037500000 
 N -0.129328424999996 -7.03763284687500 -2.35034137500000 
 N -2.21100442500000 -6.18533584687500 -3.47398537500000 
 N -3.00717042500000 -7.16243684687500 0.260861624999999 
 N -0.136215424999996 -3.17586884687500 -2.76745337500000 
 N -2.31324842500000 -2.47015884687500 -3.76984837500000 
 N -2.87838742500000 -3.04339684687500 2.006262499999933E-002
 S -0.646195424999996 -6.51529184687500 -3.81634737500000 
 S -3.81193542500000 -6.67504384687500 -1.12080437500000 
 S -1.36575442500000 -7.36249884687500 0.138002624999999 
 S -0.786771424999996 -2.84684184687500 -4.24930137500000 
 S -3.63950642500000 -2.36214284687500 -1.31889037500000 
 S -1.22253042500000 -3.26844784687500 -0.124863375000001 
