16

 C -2.42550555000001 -6.37578528750000 -2.55348195312500 
 C -1.27688155000001 -6.92700228750000 -1.85925895312500 
 C -2.39764755000001 -2.53602128750000 -2.46449095312500 
 C -1.27423855000001 -3.23717528750000 -1.82144895312500 
 N -0.236126550000006 -7.09444728750000 -2.71136295312500 
 N -2.28116355000001 -6.10030728750000 -3.84606995312500 
 N -3.24369755000001 -6.76839328750000 -7.438595312500240E-002
 N -0.293217550000007 -3.55160328750000 -2.63989395312500 
 N -2.21130255000001 -2.39929928750000 -3.77967395312500 
 N -2.94260655000001 -2.72501028750000 5.089804687499755E-002
 S -0.719838550000007 -6.47850528750000 -4.20720695312500 
 S -3.82701555000001 -6.11937528750000 -1.48992795312500 
 S -1.60711755000001 -7.18341328750000 -0.147773953125002 
 S -0.701461550000007 -3.04407728750000 -4.12737695312500 
 S -3.70605855000001 -2.17833728750000 -1.35808695312500 
 S -1.47797755000001 -3.40903728750000 -0.105049953125002 
