16

 C -2.52131272187500 -6.40304654687500 -2.50931686562500 
 C -1.25401372187500 -6.68893054687500 -1.87933486562500 
 C -2.65977572187500 -2.77752854687500 -2.29455986562500 
 C -1.44145072187500 -3.28258754687500 -1.70861186562500 
 N -0.272701721874998 -6.86330654687500 -2.76223886562500 
 N -2.50436872187500 -6.24836254687500 -3.83888286562500 
 N -2.90847172187500 -6.38826554687500 3.730013437500102E-002
 N -0.463573721874997 -3.54341454687500 -2.57001886562500 
 N -2.61540772187500 -2.71541954687500 -3.62237986562500 
 N -3.19825872187500 -3.01153754687500 0.192070134375001 
 S -0.902124721874997 -6.53944054687500 -4.25125886562500 
 S -3.78836672187500 -6.15592154687500 -1.33112486562500 
 S -1.29449172187500 -6.64402354687500 -0.201811865624999 
 S -1.06313172187500 -3.17519554687500 -4.08201986562500 
 S -3.98635472187500 -2.63750854687500 -1.20959586562500 
 S -1.57268172187500 -3.42051754687500 3.316413437500088E-002
