16

 C -2.37368749062500 -6.05528949687500 -2.13976727812500 
 C -1.18415549062500 -6.65096749687500 -1.60254427812500 
 C -2.52339149062500 -2.44816649687500 -2.49154727812500 
 C -1.39414549062500 -2.96107149687500 -1.86853927812500 
 N -0.299174490625001 -6.92309249687500 -2.52887227812500 
 N -2.37163749062500 -5.88452749687500 -3.43476827812500 
 N -2.81407949062500 -6.27642749687500 0.320270721875002 
 N -0.380699490625001 -3.19800949687500 -2.72701527812500 
 N -2.48506549062500 -2.37470149687500 -3.84193427812500 
 N -3.04488749062500 -2.41405849687500 -2.594227812499805E-002
 S -0.906627490625000 -6.43324549687500 -3.98749927812500 
 S -3.69533749062500 -5.88626349687500 -1.08067827812500 
 S -1.29340249062500 -6.84577949687500 8.386972187500197E-002
 S -0.926388490625000 -2.82508749687500 -4.17155127812500 
 S -3.83515249062500 -2.16850249687500 -1.45056027812500 
 S -1.52663349062500 -2.94375849687500 -0.147022278124998 
