16

 C -2.41259499687499 -6.53164946250000 -2.51526978437500 
 C -1.12478599687499 -6.94220546250000 -1.89694778437500 
 C -2.71222799687499 -2.66897946250000 -2.34130278437500 
 C -1.50957399687499 -3.21514646250000 -1.66794778437500 
 N -0.122090996874987 -7.06386246250000 -2.76108678437500 
 N -2.29786599687499 -6.40065546250000 -3.83244578437500 
 N -2.92691899687499 -6.72106646250000 -7.877778437499816E-002
 N -0.499121996874988 -3.44484246250000 -2.50897478437500 
 N -2.56190299687499 -2.37213346250000 -3.64556078437500 
 N -3.31921599687499 -2.82184546250000 0.134556215625002 
 S -0.765078996874987 -6.72457146250000 -4.24927278437500 
 S -3.73997099687499 -6.26884746250000 -1.42227178437500 
 S -1.29581699687499 -7.16408546250000 -0.152953784374998 
 S -1.03994999687499 -2.92430146250000 -3.99133178437500 
 S -3.98714499687499 -2.19785046250000 -1.30070678437500 
 S -1.69607999687499 -3.44649946250000 4.468121562500160E-002
