16

 C -2.42670700312501 -6.56001039062500 -2.29663438750000 
 C -1.28519100312501 -7.04568339062500 -1.55435038750000 
 C -2.42794800312501 -2.84368039062500 -2.43139238750000 
 C -1.21538300312501 -3.15557939062500 -1.80749938750000 
 N -0.145211003125009 -7.18861139062500 -2.23178238750000 
 N -2.23119900312501 -6.40603239062500 -3.62789838750000 
 N -3.10216200312501 -6.65010739062500 0.213358612500001 
 N -0.113190003125009 -3.14625139062500 -2.53851238750000 
 N -2.30742900312501 -2.43912739062500 -3.68927938750000 
 N -3.07778400312501 -3.31788839062500 1.414612500000967E-003
 S -0.565924003125009 -6.76770439062500 -3.78699138750000 
 S -3.76950500312501 -6.22689339062500 -1.23984238750000 
 S -1.54610000312501 -7.22110239062500 7.881661250000094E-002
 S -0.692391003125009 -2.68213839062500 -4.05645638750000 
 S -3.81359300312501 -2.72124539062500 -1.36862938750000 
 S -1.43772800312501 -3.54332039062500 -0.100785387499999 
