16

 C -2.54694250937500 -6.23136144375000 -2.46020619375000 
 C -1.44663950937500 -7.00952444375000 -2.04000819375000 
 C -2.53072450937500 -2.66733544375000 -2.41134619375000 
 C -1.37183350937500 -3.16878144375000 -1.77187119375000 
 N -0.473664509375002 -7.25639544375000 -2.93493419375000 
 N -2.47244350937500 -5.87383544375000 -3.72293919375000 
 N -3.06937050937500 -6.95921044375000 -2.997719375000019E-002
 N -0.352738509375001 -3.40048344375000 -2.56678019375000 
 N -2.39135450937500 -2.45613144375000 -3.72766919375000 
 N -3.11957450937500 -2.94102044375000 0.104037806250000 
 S -0.989606509375002 -6.48540944375000 -4.35573119375000 
 S -3.77211450937500 -6.02559544375000 -1.25882719375000 
 S -1.63390650937500 -7.61365844375000 -0.408471193750000 
 S -0.839055509375002 -2.89224344375000 -4.09880419375000 
 S -3.85557350937500 -2.22889444375000 -1.29108719375000 
 S -1.55178050937500 -3.46939544375000 -8.140319375000016E-002
