16

 C -2.30376935937500 -6.28253657812500 -2.26605605937500 
 C -1.16215835937500 -6.77125157812500 -1.54420805937500 
 C -2.35294735937500 -2.50555757812500 -2.11580005937500 
 C -1.16772935937500 -3.12972957812500 -1.66158305937500 
 N -0.158982359375001 -7.03311557812500 -2.34834105937500 
 N -2.22239235937500 -6.21632757812500 -3.60443805937500 
 N -2.99586835937500 -6.62494457812500 0.144886940624999 
 N -0.134018359375000 -3.23712357812500 -2.49869005937500 
 N -2.13023035937500 -1.94873857812500 -3.30458605937500 
 N -2.85443135937500 -3.43640057812500 0.216896940624999 
 S -0.654563359375000 -6.66409757812500 -3.91276105937500 
 S -3.74747635937500 -6.08835457812500 -1.32135205937500 
 S -1.42001435937500 -7.04185857812500 0.102777940624999 
 S -0.680749359375000 -2.41820357812500 -3.88466505937500 
 S -3.62419535937500 -2.48909257812500 -0.944045059375001 
 S -1.28078835937500 -3.80148357812500 -4.939205937500057E-002
