16

 C -2.49062621562500 -6.55956438125000 -2.64110897812500 
 C -1.30019921562500 -7.10285538125000 -1.97649497812500 
 C -2.25568821562500 -2.50106338125000 -2.33098297812500 
 C -1.03085621562500 -3.11773938125000 -1.90750797812500 
 N -0.303210215624999 -7.21494838125000 -2.83726897812500 
 N -2.38617321562500 -6.36238938125000 -3.98989997812500 
 N -2.86418121562500 -6.59882738125000 -1.406097812499918E-002
 N -0.155821215624999 -3.37003138125000 -2.91163997812500 
 N -2.28561921562500 -2.13288338125000 -3.59708197812500 
 N -2.73795521562500 -3.17225638125000 7.560302187500079E-002
 S -0.830198215624999 -6.79455538125000 -4.33839397812500 
 S -3.70243721562500 -6.33775138125000 -1.42341897812500 
 S -1.43968921562500 -7.25842138125000 -0.263705978124999 
 S -0.781234215624999 -2.56713038125000 -4.27783697812500 
 S -3.51708821562500 -2.50007538125000 -1.20172697812500 
 S -1.19834121562500 -3.60835038125000 -0.236728978124999 
