16

 C -2.65736128124999 -6.21295946250000 -2.28267621562500 
 C -1.41553028124999 -6.68378346250000 -1.69119621562500 
 C -2.38867828124999 -2.56799346250000 -2.49673021562500 
 C -1.20876928124999 -3.01775946250000 -1.76726421562500 
 N -0.391638281249991 -6.97533946250000 -2.51795221562500 
 N -2.59526728124999 -6.12335946250000 -3.61915721562500 
 N -3.12370128124999 -6.45746146250000 0.234886784375001 
 N -0.173631281249991 -3.34643346250000 -2.51879721562500 
 N -2.28653828124999 -2.49245146250000 -3.80380521562500 
 N -3.08223028124999 -2.75388946250000 5.669478437500097E-002
 S -1.03603128124999 -6.55538646250000 -3.99714321562500 
 S -3.88339528124999 -5.84278246250000 -1.09654721562500 
 S -1.49771428124999 -6.86816746250000 -8.002156249991010E-004
 S -0.732653281249991 -2.98180146250000 -4.11371521562500 
 S -3.71750128124999 -2.30842546250000 -1.38827221562500 
 S -1.45480428124999 -3.03119746250000 -3.943521562499908E-002
