16

 C -2.40388700625000 -6.42716335625000 -2.34847018750000 
 C -1.13591900625000 -6.76532335625000 -1.67319318750000 
 C -2.30467900625000 -2.95515535625000 -2.11862018750000 
 C -1.02947400625000 -3.26135835625000 -1.54364618750000 
 N -0.113556006250001 -6.92716035625000 -2.51424918750000 
 N -2.32639300625000 -6.29962435625000 -3.67818318750000 
 N -3.00427200625000 -6.83678735625000 7.104781250000070E-002
 N -5.543300625000036E-002 -3.49019735625000 -2.41085518750000 
 N -2.21762600625000 -2.86901135625000 -3.43651918750000 
 N -2.71232300625000 -3.29287335625000 0.385320812500001 
 S -0.719107006250002 -6.54347435625000 -3.99769518750000 
 S -3.83696700625000 -6.50597435625000 -1.29296618750000 
 S -1.31973400625000 -6.91889835625000 -2.984018749999939E-002
 S -0.651916006250001 -3.12637435625000 -3.87867218750000 
 S -3.59622300625000 -2.94877035625000 -0.997519187499999 
 S -1.10984700625000 -3.57748935625000 0.228066812500001 
