16

 C -2.24607825937500 -6.38846495625000 -2.60535468750000 
 C -1.14051425937500 -7.03003595625000 -1.96451868750000 
 C -2.67971625937500 -2.49937195625000 -2.38417968750000 
 C -1.57042525937500 -2.98568895625000 -1.65948268750000 
 N -9.629225937499708E-002 -7.33186695625000 -2.72982568750000 
 N -2.07514625937500 -6.20998495625000 -3.92761768750000 
 N -2.80451325937500 -6.49801095625000 -7.755968749999909E-002
 N -0.535077259374996 -3.30044695625000 -2.41186768750000 
 N -2.49508025937500 -2.22758495625000 -3.65782268750000 
 N -3.36817925937500 -2.58076695625000 0.120826312500001 
 S -0.517300259374997 -6.82156195625000 -4.26460668750000 
 S -3.57026825937500 -6.14737895625000 -1.53108868750000 
 S -1.25321925937500 -7.12585295625000 -0.222103687499999 
 S -0.960709259374997 -2.88228495625000 -3.96856168750000 
 S -4.03708925937500 -2.16623695625000 -1.37283068750000 
 S -1.82881225937500 -3.08930495625000 4.621331250000082E-002
