16

 C -2.36449296875000 -6.37448597187501 -2.46547165625000 
 C -1.14287196875000 -6.77828797187501 -1.77700765625000 
 C -2.44416696875000 -3.34146697187501 -2.09641365625000 
 C -1.13671296875000 -3.35389197187501 -1.65870665625000 
 N -0.119799968749997 -6.90999297187501 -2.58565765625000 
 N -2.23557296875000 -6.34961597187501 -3.76867965625000 
 N -2.82828196875000 -6.57744797187501 2.245034375000032E-002
 N -0.218148968749998 -3.25503697187501 -2.59707765625000 
 N -2.56533096875000 -3.24703697187501 -3.38576865625000 
 N -2.60062196875000 -3.42285997187501 0.438540343750000 
 S -0.648215968749997 -6.60861897187501 -4.09096365625000 
 S -3.70896896875000 -6.24763297187501 -1.36365165625000 
 S -1.24925496875000 -6.99172497187501 -8.020665624999967E-002
 S -1.01805496875000 -3.24241297187501 -4.05023865625000 
 S -3.61955096875000 -3.28322697187501 -0.825086656250000 
 S -0.982331968749998 -3.51153897187501 5.056534375000021E-002
