16

 C -2.50451792500000 -6.51657801249999 -2.41556346562500 
 C -1.39645692500000 -7.09252701249999 -1.70139446562500 
 C -2.29574892500000 -2.74995801249999 -2.54400846562500 
 C -1.10941792500000 -3.29541501249999 -1.87396246562500 
 N -0.306985925000002 -7.40981801249999 -2.42482546562500 
 N -2.30280392500000 -6.40791701249999 -3.72397146562500 
 N -3.33598592500000 -6.56956401249999 1.262534375001900E-003
 N -9.753092500000182E-002 -3.49330601249999 -2.69666346562500 
 N -2.16706592500000 -2.49321001249999 -3.85145546562500 
 N -2.99037492500000 -2.98562701249999 -2.051946562499829E-002
 S -0.747037925000002 -6.95946301249999 -3.99710246562500 
 S -3.84166092500000 -6.05528301249999 -1.45522446562500 
 S -1.76011392500000 -7.06032301249999 3.940153437500182E-002
 S -0.613058925000002 -3.00193701249999 -4.15652446562500 
 S -3.68096492500000 -2.68192401249999 -1.50049546562500 
 S -1.40902092500000 -3.37830501249999 -0.136785465624998 
