16

 C -2.51102343749999 -6.22349669375000 -2.48480315000000 
 C -1.37599043749999 -6.88502269374999 -1.90721815000000 
 C -2.48788343749999 -2.63849269374999 -2.20015015000000 
 C -1.31787343749999 -3.31266869374999 -1.60231915000000 
 N -0.361458437499993 -7.10890269374999 -2.73028215000000 
 N -2.38225443749999 -6.05651969374999 -3.80574415000000 
 N -3.08658643749999 -6.65989369374999 5.339484999999944E-002
 N -0.412571437499993 -3.62719769375000 -2.53050315000000 
 N -2.36628243749999 -2.28979769374999 -3.49122915000000 
 N -2.92966243749999 -2.75941969374999 0.351494849999999 
 S -0.878425437499994 -6.69766469374999 -4.23614315000000 
 S -3.78900543749999 -5.97779569374999 -1.29622015000000 
 S -1.55650743749999 -7.25193969374999 -0.172904150000000 
 S -0.888978437499993 -2.93833569374999 -3.95661115000000 
 S -3.73767343749999 -2.36302169375000 -1.05316815000000 
 S -1.45513843749999 -3.50462569375000 0.111402849999999 
