16

 C -2.48917711562500 -6.51453446562500 -2.41666483437500 
 C -1.38075611562500 -7.09194046562500 -1.69795083437500 
 C -2.28587211562500 -2.74127246562500 -2.54639883437500 
 C -1.11722911562500 -3.30501346562500 -1.88844783437500 
 N -0.286284115624999 -7.41668746562500 -2.42161583437500 
 N -2.29015911562500 -6.41731246562500 -3.73584283437500 
 N -3.32909311562500 -6.58868546562500 1.426165624998532E-003
 N -9.381811562499820E-002 -3.50406346562500 -2.68393883437500 
 N -2.17191211562500 -2.49583846562500 -3.86493783437500 
 N -2.98071711562500 -2.99215246562500 -1.797183437500149E-002
 S -0.741122115624998 -6.95804446562500 -3.99632483437500 
 S -3.84168011562500 -6.05940346562500 -1.45815883437500 
 S -1.76457811562500 -7.06800346562500 4.160316562499844E-002
 S -0.611785115624999 -3.00022146562500 -4.16505783437500 
 S -3.67887911562500 -2.69035346562500 -1.49423483437500 
 S -1.41778611562500 -3.38462346562500 -0.137434834375001 
