16

 C -2.39974254375001 -6.47883004687500 -2.55375037187500 
 C -1.18678854375001 -6.88484304687500 -1.94669937187500 
 C -2.57713954375001 -2.51898504687500 -2.35093237187500 
 C -1.47570454375001 -3.10659804687500 -1.63541937187500 
 N -0.126697543750011 -6.97441804687500 -2.72898537187500 
 N -2.24860854375001 -6.19708504687500 -3.83705237187500 
 N -2.94227254375001 -6.86284904687500 -0.102182371875000 
 N -0.460417543750012 -3.40277004687500 -2.39931337187500 
 N -2.33097654375001 -2.40609304687500 -3.64506137187500 
 N -3.26983554375001 -2.89596004687500 6.656162812500011E-002
 S -0.635478543750011 -6.56893604687500 -4.27103637187500 
 S -3.82526154375001 -6.52689404687500 -1.48674237187500 
 S -1.32513154375001 -7.22059104687500 -0.245300371875000 
 S -0.830137543750012 -3.05485104687500 -3.96975837187500 
 S -3.96228054375001 -2.22464204687500 -1.33779037187500 
 S -1.67599354375001 -3.23142204687500 8.729662812500005E-002
