16

 C -2.58458356562500 -6.52703933437500 -2.34636705937500 
 C -1.33164956562500 -6.84017833437500 -1.72985605937500 
 C -2.20549056562500 -3.01296333437500 -2.32218905937500 
 C -1.00190856562500 -3.55620733437500 -1.68377205937500 
 N -0.363636565625004 -7.10628633437500 -2.57630505937500 
 N -2.50599056562500 -6.41636433437500 -3.66580305937500 
 N -2.98270656562500 -6.53390933437500 0.221170940625002 
 N 6.273843437499593E-002 -3.54472233437500 -2.45970505937500 
 N -1.96009056562500 -2.66638633437500 -3.55622505937500 
 N -2.82708956562500 -3.35676433437500 9.132194062500254E-002
 S -0.934718565625004 -6.79507033437500 -4.07246405937500 
 S -3.84466356562500 -6.26952033437500 -1.23159605937500 
 S -1.37724956562500 -7.04017733437500 1.649594062500248E-002
 S -0.398659565625004 -3.02382433437500 -3.97421605937500 
 S -3.56006456562500 -2.80551633437500 -1.31289805937500 
 S -1.33765856562500 -3.94589433437500 -5.024005937499765E-002
