16

 C -2.19123457812500 -6.45734428750000 -2.52441764062500 
 C -1.02747057812500 -7.01873828750000 -1.85831264062500 
 C -2.65886457812500 -2.33061628750000 -2.43089664062500 
 C -1.55984357812500 -3.06738828750000 -1.74875664062500 
 N -1.000457812499977E-002 -7.27103828750000 -2.66106964062500 
 N -2.01315157812500 -6.30815028750000 -3.83526364062500 
 N -2.76980557812500 -6.53113028750000 -2.691564062499952E-002
 N -0.541170578125000 -3.28604828750000 -2.57061564062500 
 N -2.45316257812500 -2.17566528750000 -3.75434164062500 
 N -3.26934857812500 -2.53807528750000 7.126335937500050E-002
 S -0.521452578125000 -6.85269528750000 -4.17083864062500 
 S -3.46941057812500 -6.11855128750000 -1.45867964062500 
 S -1.30819257812500 -7.34917128750000 -0.141531640624999 
 S -0.996554578125000 -2.83675228750000 -4.07051264062500 
 S -3.86577257812500 -1.87987828750000 -1.31022564062500 
 S -1.72969657812500 -3.17359528750000 -6.187964062499951E-002
