16

 C -2.61608698750000 -6.30355306250000 -2.54084698125000 
 C -1.42276598750000 -6.73785806250000 -1.91368798125000 
 C -2.68894398750000 -2.67205106250000 -2.49374398125000 
 C -1.51924198750000 -3.26416906250000 -1.86362398125000 
 N -0.374179987500004 -6.92813906250000 -2.68681398125000 
 N -2.47919798750000 -6.10479706250000 -3.84672398125000 
 N -3.22198698750000 -6.71983506250000 -5.395798124999907E-002
 N -0.514745987500004 -3.31153706250000 -2.76208398125000 
 N -2.58671198750000 -2.33732106250000 -3.75863598125000 
 N -3.35613398750000 -2.92634306250000 -5.322098124999908E-002
 S -0.848586987500004 -6.41537206250000 -4.21664098125000 
 S -3.97831098750000 -6.21005406250000 -1.44535298125000 
 S -1.57186098750000 -6.94118206250000 -0.202950981249999 
 S -1.02780698750000 -2.76790506250000 -4.15841098125000 
 S -4.10256698750000 -2.50160506250000 -1.49547498125000 
 S -1.76540398750000 -3.40868606250000 -0.150897981249999 
