16

 C -2.37603538125000 -6.43696627500000 -2.60747037187500 
 C -1.19766338125000 -6.96318827500000 -2.00746837187500 
 C -2.37686138125000 -2.67617627500000 -2.53861337187500 
 C -1.11950638125000 -3.21597927500000 -2.10470537187500 
 N -0.191045381249999 -7.18107527500000 -2.82590337187500 
 N -2.27871838125000 -6.32007727500000 -3.90940337187500 
 N -2.84914938125000 -6.55420627500000 -0.125360371875001 
 N -0.103024381249999 -3.11127927500000 -2.95572337187500 
 N -2.27676538125000 -2.12679827500000 -3.72835437187500 
 N -2.64144138125000 -3.19896127500000 -7.436837187500056E-002
 S -0.801216381249999 -6.86278927500000 -4.33933837187500 
 S -3.74565738125000 -6.21391327500000 -1.54785837187500 
 S -1.31599238125000 -7.16009727500000 -0.270665371875001 
 S -0.662098381249999 -2.35718927500000 -4.32538637187500 
 S -3.61109638125000 -2.53146127500000 -1.26286537187500 
 S -1.07226138125000 -3.63415227500000 -0.435709371875001 
