16

 C -2.25411178124999 -6.44677171562500 -2.19880401250000 
 C -1.05378978124999 -6.99753871562500 -1.56367301250000 
 C -2.43161178124999 -2.67400971562500 -2.31754501250000 
 C -1.19411278124999 -3.30012771562500 -1.72556901250000 
 N -6.567478124999404E-002 -7.21090671562500 -2.43221401250000 
 N -2.07713778124999 -6.21842571562500 -3.51962401250000 
 N -2.72002778124999 -6.85249171562500 0.329409987499998 
 N -0.253456781249993 -3.56114771562500 -2.63801101250000 
 N -2.28854778124999 -2.31443271562500 -3.59393201250000 
 N -2.95468678124999 -3.16822371562500 0.182377987499998 
 S -0.573151781249994 -6.75821671562500 -3.90107201250000 
 S -3.61147278124999 -6.41278571562500 -1.04488701250000 
 S -1.09838078124999 -7.27296871562500 0.141820987499998 
 S -0.825760781249994 -2.81733871562500 -4.04935901250000 
 S -3.73140178124999 -2.55318271562500 -1.14613901250000 
 S -1.32287578124999 -3.59070871562500 3.619898749999795E-002
