16

 C -2.21452470937499 -6.90542644687500 -2.53734347500000 
 C -1.03835370937499 -7.34013544687500 -1.80643747500000 
 C -2.57195370937499 -2.69142244687500 -2.56262047500000 
 C -1.35366370937499 -3.13734744687500 -1.95967347500000 
 N -3.068970937499227E-002 -7.62622944687500 -2.64464147500000 
 N -2.18129170937499 -6.92955744687500 -3.82844547500000 
 N -2.76839470937499 -6.61546844687500 -0.115105475000001 
 N -0.360732709374992 -3.51105644687500 -2.76880147500000 
 N -2.44604170937499 -2.55429344687500 -3.90692347500000 
 N -3.02729570937499 -2.66503344687500 -1.480947500000096E-002
 S -0.632460709374993 -7.43907244687500 -4.19218247500000 
 S -3.46835370937499 -6.27105744687500 -1.56077847500000 
 S -1.16052770937499 -7.22162244687500 -0.169351475000001 
 S -0.925262709374993 -2.98010644687500 -4.28440647500000 
 S -3.82329870937499 -2.34333244687500 -1.38212747500000 
 S -1.46704170937499 -3.21018244687500 -0.205680475000001 
