16

 C -2.22266888437500 -6.46257253437500 -2.44288578437500 
 C -0.953172884375004 -6.79607953437500 -1.81461278437500 
 C -2.59137788437500 -2.91928653437500 -2.52298578437500 
 C -1.44602388437500 -3.37716353437500 -1.79090878437500 
 N 6.678311562499673E-002 -6.92476953437500 -2.65618378437500 
 N -2.12832288437500 -6.16397253437500 -3.72027278437500 
 N -2.70449288437500 -6.73981353437500 0.103867215625000 
 N -0.369996884375004 -3.57141653437500 -2.55886278437500 
 N -2.33812888437500 -2.78428353437500 -3.82093178437500 
 N -3.29174988437500 -2.86123853437500 -6.104378437500069E-002
 S -0.548361884375004 -6.50707453437500 -4.16725678437500 
 S -3.56665488437500 -6.37127653437500 -1.28536978437500 
 S -1.03530888437500 -6.98187653437500 -6.812578437500072E-002
 S -0.730041884375004 -3.09937453437500 -4.11298778437500 
 S -3.90438388437500 -2.44107953437500 -1.56859278437500 
 S -1.69166988437500 -3.32173153437500 -6.851778437500045E-002
