16

 C -2.49449168124999 -6.61923317500000 -2.11519275937500 
 C -1.22645468124999 -7.23549517500000 -1.68243375937500 
 C -2.43462968124999 -2.75247917500000 -2.48023975937500 
 C -1.27437968124999 -3.28084817500000 -1.82873375937500 
 N -0.296022681249991 -7.21245117500000 -2.61349775937500 
 N -2.55583168124999 -6.29518817500000 -3.39761675937500 
 N -2.85097968124999 -6.99424917500000 0.404980240625001 
 N -0.203840681249991 -3.57812317500000 -2.60507975937500 
 N -2.37220368124999 -2.70179417500000 -3.80566875937500 
 N -3.13575368124999 -3.03780717500000 1.829240625000894E-003
 S -1.04524868124999 -6.62875717500000 -3.99471875937500 
 S -3.68231468124999 -6.36977417500000 -0.909130759374999 
 S -1.26793968124999 -7.52265117500000 5.372424062500092E-002
 S -0.803282681249991 -3.15906617500000 -4.10101875937500 
 S -3.73036268124999 -2.32817617500000 -1.36019175937500 
 S -1.55418968124999 -3.60087117500000 -0.114924759374999 
