16

 C -2.26420890000000 -6.55008475312500 -2.20044341250000 
 C -1.04035390000000 -7.00801175312500 -1.63862341250000 
 C -2.38646290000000 -2.65583975312500 -2.24420141250000 
 C -1.26918090000000 -3.33701175312500 -1.73359441250000 
 N -4.469990000000212E-002 -7.21865775312500 -2.48091341250000 
 N -2.13941490000000 -6.28555575312500 -3.49062941250000 
 N -2.69700590000000 -6.91449175312500 0.329221587499998 
 N -0.337162900000003 -3.53512975312500 -2.65406841250000 
 N -2.34263690000000 -2.36482975312500 -3.54556841250000 
 N -2.96537990000000 -3.18665975312500 0.174514587499998 
 S -0.590744900000002 -6.70106275312500 -3.96946941250000 
 S -3.52017190000000 -6.41739575312500 -0.999426412500002 
 S -1.05161390000000 -7.25406175312500 0.108154587499998 
 S -0.811534900000003 -2.89075675312500 -4.08744641250000 
 S -3.74634490000000 -2.51854275312500 -1.12409241250000 
 S -1.33596090000000 -3.55477975312500 1.291258749999824E-002
