16

 C -2.41084227187500 -6.40509294062500 -2.33521262187500 
 C -1.19575227187500 -6.80913994062500 -1.65650062187500 
 C -2.45798127187500 -3.13864994062500 -2.05512262187500 
 C -1.18752227187500 -3.44980994062500 -1.42799462187500 
 N -0.215138271875003 -6.87859194062500 -2.54674462187500 
 N -2.32808727187500 -6.23080694062500 -3.68624362187500 
 N -2.96388927187500 -6.95020994062500 0.184999378125000 
 N -0.109304271875003 -3.46230994062500 -2.25013362187500 
 N -2.28474827187500 -2.91632194062500 -3.35791062187500 
 N -2.96380827187500 -3.36364894062500 0.466911378125000 
 S -0.779171271875003 -6.65563594062500 -4.08960962187500 
 S -3.75083727187500 -6.53562694062500 -1.22800362187500 
 S -1.29077327187500 -7.07687294062500 4.740637812500004E-002
 S -0.712088271875003 -3.25276194062500 -3.76802762187500 
 S -3.76920927187500 -3.04628794062500 -0.971291621875000 
 S -1.31014427187500 -3.54674794062500 0.310435378125000 
