16

 C -2.52407404375000 -6.71536207812500 -2.37774976562500 
 C -1.28682904375000 -6.95383907812501 -1.69816276562500 
 C -2.25569004375000 -3.00716607812500 -2.46302576562500 
 C -1.02916504375000 -3.40046407812501 -1.81329176562500 
 N -0.260086043750000 -6.89524607812501 -2.54152076562500 
 N -2.48703404375000 -6.44491207812501 -3.68852876562500 
 N -3.04398404375000 -7.16411707812501 0.153092234374999 
 N 3.837795624999973E-002 -3.57132707812501 -2.62030176562500 
 N -2.06964204375000 -2.73182407812500 -3.74854276562500 
 N -2.78474704375000 -2.99519707812501 6.203723437499864E-002
 S -0.854912043750000 -6.52896207812501 -4.06923276562500 
 S -3.90933804375000 -6.92133307812500 -1.28283076562500 
 S -1.41490104375000 -7.14347207812501 7.126234374998708E-003
 S -0.503318043750000 -3.27123607812501 -4.15518576562500 
 S -3.62827904375000 -2.76307607812500 -1.41319676562500 
 S -1.20975304375000 -3.42651007812500 -2.806176562500129E-002
