16

 C -2.52431187500000 -6.61532835312500 -2.29888945625000 
 C -1.25615887500000 -6.80518535312500 -1.65027745625000 
 C -2.37755987500000 -2.63994535312500 -2.44083045625000 
 C -1.22410787500000 -3.22257935312500 -1.75222545625000 
 N -0.264878874999997 -6.81945235312500 -2.54919745625000 
 N -2.47600187500000 -6.57839335312500 -3.63751445625000 
 N -3.04536387500000 -6.86455235312500 0.200349543749998 
 N -0.138651874999998 -3.49238635312500 -2.47373145625000 
 N -2.14752287500000 -2.49531635312500 -3.73670945625000 
 N -3.18637787500000 -3.09301235312500 4.405437499983567E-004
 S -0.926883874999998 -6.75972535312500 -4.05711245625000 
 S -3.88329087500000 -6.77258535312500 -1.23213845625000 
 S -1.43640787500000 -7.13148635312500 9.263543749998382E-003
 S -0.603616874999997 -2.96477735312500 -3.98976445625000 
 S -3.74443387500000 -2.34984935312500 -1.39917445625000 
 S -1.60161887500000 -3.56766635312500 -7.733945625000183E-002
