16

 C -2.35650910624999 -6.18358105312500 -2.21503521562500 
 C -1.19090010624999 -6.75997705312500 -1.67960221562500 
 C -2.46231610624999 -2.83742405312500 -2.73395121562500 
 C -1.17830210624999 -3.06136305312500 -2.06360721562500 
 N -0.182591106249992 -6.94832005312500 -2.54839321562500 
 N -2.17450910624999 -5.83209805312500 -3.46849821562500 
 N -2.84461210624999 -6.67903905312500 0.285759784374996 
 N -0.180497106249992 -2.84355405312500 -2.93821821562500 
 N -2.41525110624999 -2.49384505312500 -4.04162721562500 
 N -2.91983610624999 -3.02282605312500 -0.209473215625004 
 S -0.676480106249993 -6.29867705312500 -4.02819921562500 
 S -3.66212210624999 -6.20450405312500 -1.12963021562500 
 S -1.30719410624999 -7.12760605312500 5.646278437499563E-002
 S -0.820699106249992 -2.59578405312500 -4.41190421562500 
 S -3.77357710624999 -2.98915605312500 -1.59231021562500 
 S -1.25633310624999 -3.32286805312500 -0.346115215625004 
