16

 C -2.38286095625000 -6.58162909375000 -2.49744159062500 
 C -1.12633895625000 -7.01918309375000 -1.92701759062500 
 C -2.36461395625000 -2.86808209375000 -2.49017759062500 
 C -1.31728395625000 -3.55210509375000 -1.79852559062500 
 N -0.151259956249995 -7.09227209375000 -2.81631859062500 
 N -2.29633995625000 -6.30504509375000 -3.80917859062500 
 N -2.82755195625000 -7.12923209375000 -2.600590625000399E-003
 N -0.269123956249995 -3.85284809375000 -2.55102959062500 
 N -2.15687095625000 -2.70942709375000 -3.77526359062500 
 N -3.12712095625000 -3.15540909375000 -5.306159062500049E-002
 S -0.713415956249995 -6.58490409375000 -4.25239359062500 
 S -3.74224895625000 -6.69071609375000 -1.28614759062500 
 S -1.15569095625000 -7.35829609375000 -0.231578590625000 
 S -0.651519956249995 -3.27963609375000 -4.14955959062500 
 S -3.79905995625000 -2.70194109375000 -1.46879259062500 
 S -1.53271595625000 -3.70424109375000 -6.375359062500019E-002
