16

 C -2.43788035000000 -6.74130898749999 -2.40222837187500 
 C -1.10098935000000 -7.03522998749999 -1.94213937187500 
 C -2.56356435000000 -2.90850798749999 -2.46791837187500 
 C -1.34765835000000 -3.43785698749999 -1.76651037187500 
 N -0.209465350000003 -7.10924598749999 -2.90100037187500 
 N -2.55345835000000 -6.55069598749999 -3.71740737187500 
 N -2.62977935000000 -7.12939898749999 0.103818628125000 
 N -0.321729350000003 -3.60353398749999 -2.58557737187500 
 N -2.36373335000000 -2.74096998749999 -3.78635337187500 
 N -3.17159135000000 -3.12485198749999 -1.291637187499983E-002
 S -1.01244035000000 -6.75028298750000 -4.35263337187500 
 S -3.68984935000000 -6.74125398750000 -1.16892137187500 
 S -1.02195235000000 -7.36402498749999 -0.239953371875000 
 S -0.756169350000002 -3.16378698749999 -4.05734237187500 
 S -3.89542935000000 -2.58626998749999 -1.44098037187500 
 S -1.61815035000000 -3.76036998749999 -7.889137187499995E-002
