16

 C -2.45532379062501 -6.56598291250000 -2.26828585000000 
 C -1.20500379062501 -6.80766991250001 -1.64126885000000 
 C -2.38765979062501 -2.74422191250000 -2.54252185000000 
 C -1.19111579062501 -3.32546991250000 -1.92942885000000 
 N -0.137896790625010 -6.95543991250000 -2.42383285000000 
 N -2.31633479062501 -6.47234991250000 -3.57902085000000 
 N -2.97420179062501 -6.75864191250001 0.260878150000001 
 N -0.212023790625010 -3.53836091250000 -2.79999985000000 
 N -2.31054079062501 -2.54619591250000 -3.85208685000000 
 N -2.87596179062501 -2.99425591250000 -5.025784999999927E-002
 S -0.736537790625010 -6.71342091250000 -3.94196285000000 
 S -3.83806479062501 -6.72087291250000 -1.14505585000000 
 S -1.24178679062501 -6.97684091250000 0.118556150000001 
 S -0.748981790625010 -3.10186791250000 -4.30912385000000 
 S -3.69014479062501 -2.40247691250000 -1.36567485000000 
 S -1.28421079062501 -3.39360891250000 -0.172956849999999 
