16

 C -2.22626289062501 -6.45875050625000 -2.63136232500000 
 C -1.08869189062501 -7.05102350625000 -1.93658032500000 
 C -2.70745089062501 -2.46972850625000 -2.32245132500000 
 C -1.55493489062501 -2.93351550625000 -1.64557532500000 
 N -9.254289062501009E-002 -7.31600250625000 -2.75967732500000 
 N -2.05551489062501 -6.21350750625000 -3.92601932500000 
 N -2.80846689062501 -6.48574450625000 -0.104496325000001 
 N -0.544043890625010 -3.27343550625000 -2.43400132500000 
 N -2.50173789062501 -2.34506450625000 -3.62814832500000 
 N -3.41476889062501 -2.64491550625000 9.985967499999937E-002
 S -0.560868890625010 -6.80316850625000 -4.27213532500000 
 S -3.59176389062501 -6.13095850625000 -1.52544832500000 
 S -1.23893389062501 -7.07674450625000 -0.228767325000000 
 S -0.963995890625010 -2.90325050625000 -3.95378032500000 
 S -4.04956989062501 -2.19288550625000 -1.35176532500000 
 S -1.83305489062501 -3.08490950625000 4.248267499999936E-002
