16

 C -2.30562082499999 -6.59289124687500 -2.48055494375000 
 C -1.12778882499999 -7.05944024687500 -1.76191394375000 
 C -2.36540782499999 -2.97598824687500 -2.55002894375000 
 C -1.15938982499999 -3.35160224687500 -1.86065694375000 
 N -5.044482499999248E-002 -7.18930924687500 -2.54455194375000 
 N -2.13246482499999 -6.37923024687500 -3.78317694375000 
 N -3.05081782499999 -6.85694224687500 3.995056250000406E-003
 N -9.773582499999200E-002 -3.52485224687500 -2.69936294375000 
 N -2.24690882499999 -2.82126024687500 -3.87871994375000 
 N -3.02909282499999 -3.20627624687500 1.331605625000054E-002
 S -0.516117824999992 -6.69594424687500 -4.11359494375000 
 S -3.75566082499999 -6.42131824687500 -1.48932294375000 
 S -1.48473582499999 -7.38032024687500 -5.394194374999972E-002
 S -0.629151824999992 -3.15344924687500 -4.19950594375000 
 S -3.70480582499999 -2.62026224687500 -1.45760994375000 
 S -1.46975082499999 -3.73659724687500 -0.116626943749999 
