16

 C -2.31685131562499 -6.04181049062500 -2.26383656250000 
 C -1.16427231562499 -6.71838349062500 -1.79341256250000 
 C -2.68778131562499 -2.40984849062500 -2.70025456250000 
 C -1.50161631562499 -2.88072049062500 -2.08351756250000 
 N -0.280811315624990 -7.08812949062500 -2.70841556250000 
 N -2.26250731562499 -5.88742949062500 -3.58083456250000 
 N -2.70660031562499 -6.37264849062500 0.254635437500003 
 N -0.528754315624990 -3.09236749062500 -2.90243456250000 
 N -2.65637431562499 -2.35514249062500 -4.00838556250000 
 N -3.15087631562499 -2.38320849062500 -0.207368562499997 
 S -0.844957315624990 -6.56510549062500 -4.14965156250000 
 S -3.50706131562499 -5.75865649062500 -1.05247956250000 
 S -1.21334831562499 -7.07068049062500 -0.119124562499997 
 S -1.08388831562499 -2.75622349062500 -4.41844256250000 
 S -4.00254931562499 -2.16045749062500 -1.61364956250000 
 S -1.56136531562499 -2.85749849062500 -0.376038562499997 
