16

 C -2.52141143750000 -6.59797761875000 -2.44107245312500 
 C -1.22596143750000 -6.76676461875000 -1.80405145312500 
 C -2.45294043750000 -2.19919961875000 -2.84391645312500 
 C -1.42189943750000 -2.90377861875000 -2.07025445312500 
 N -0.116409437500003 -6.66266861875000 -2.59262745312500 
 N -2.42165843750000 -6.37270061875000 -3.75252845312500 
 N -3.01429743750000 -6.48337661875000 5.693454687500066E-002
 N -0.373595437500003 -3.14092861875000 -2.80141745312500 
 N -2.21593043750000 -1.91502361875000 -4.10910745312500 
 N -3.41006843750000 -2.72880261875000 -0.505076453124999 
 S -0.805537437500004 -6.38511861875000 -4.08772045312500 
 S -3.86405143750000 -6.44285161875000 -1.37025445312500 
 S -1.37745243750000 -6.83207261875000 1.784054687500070E-002
 S -0.613485437500003 -2.47909561875000 -4.33309345312500 
 S -3.86668843750000 -2.00914861875000 -1.89003245312500 
 S -1.82048543750000 -3.21881061875000 -0.425997453124999 
