16

 C -2.53842576875000 -6.20957900312500 -2.44033330000000 
 C -1.27481076875000 -6.65993700312500 -1.88707530000000 
 C -2.43021776875000 -3.09011900312500 -2.55748930000000 
 C -1.18469476875000 -3.39469500312500 -1.83637430000000 
 N -0.325694768750003 -6.90775300312500 -2.75861730000000 
 N -2.43703676875000 -6.05656500312500 -3.76582230000000 
 N -2.96057276875000 -6.27134200312500 0.108317700000001 
 N -0.107852768750003 -3.51615200312500 -2.60880430000000 
 N -2.23288876875000 -2.93241000312500 -3.85731730000000 
 N -2.98128976875000 -2.89590800312500 -5.549629999999861E-002
 S -0.912101768750002 -6.48234800312500 -4.24925030000000 
 S -3.77742876875000 -5.91801400312500 -1.25250930000000 
 S -1.39067476875000 -6.74389100312500 -0.153092299999999 
 S -0.621677768750002 -3.29973600312500 -4.18090330000000 
 S -3.80329776875000 -2.85878200312500 -1.50204430000000 
 S -1.39972776875000 -3.26694600312500 -0.161081299999999 
