16

 C -2.24512405625000 -6.52962336562500 -2.25719451562500 
 C -1.00711405625000 -7.15720836562500 -1.71479451562500 
 C -2.22984505625000 -2.59063436562500 -2.46027151562500 
 C -1.09603805625000 -3.22169836562500 -1.80750751562500 
 N -9.025405625000360E-002 -7.33345336562500 -2.66410951562500 
 N -2.25051505625000 -6.28514536562500 -3.56100751562500 
 N -2.60267405625000 -6.53817036562500 0.255393484374999 
 N -1.425056250003998E-003 -3.30198836562500 -2.57419251562500 
 N -2.09266805625000 -2.38617736562500 -3.77083151562500 
 N -2.95521105625000 -2.94367636562500 3.734448437499882E-002
 S -0.743070056250004 -6.79737036562500 -4.10340251562500 
 S -3.38179205625000 -6.03237736562500 -1.10399351562500 
 S -1.11396905625000 -7.40852836562500 1.814248437499888E-002
 S -0.575367056250004 -2.80229236562500 -4.08413251562500 
 S -3.62061405625000 -2.40683136562500 -1.38024651562500 
 S -1.36182105625000 -3.57783636562500 -0.133886515625001 
