16

 C -2.34500816562501 -6.30316077500000 -2.41363195625000 
 C -1.14821116562501 -6.86775877500000 -1.81731595625000 
 C -2.53575416562501 -2.59786577500000 -2.16404195625000 
 C -1.25700416562500 -3.01366277500000 -1.57600595625000 
 N -8.733616562500490E-002 -7.07239877500000 -2.57954495625000 
 N -2.22015816562500 -6.17107377500000 -3.71583795625000 
 N -2.86300516562500 -6.48346477500000 5.766804375000123E-002
 N -0.320591165625005 -3.13153477500000 -2.49917295625000 
 N -2.48422016562500 -2.35746777500000 -3.46174995625000 
 N -2.93169516562500 -2.88243977500000 0.321090043750001 
 S -0.643861165625005 -6.58749777500000 -4.09273795625000 
 S -3.70298416562501 -6.24870477500000 -1.35478995625000 
 S -1.28514616562500 -7.04247677500000 -9.540195624999859E-002
 S -0.955312165625005 -2.76805977500000 -4.00167195625000 
 S -3.81354416562500 -2.48244377500000 -1.01144795625000 
 S -1.34712216562500 -3.32690377500000 5.549604375000117E-002
