16

 C -2.48258737187499 -6.40584061562499 -2.58917525937500 
 C -1.36306737187499 -6.85880461562499 -1.80016525937500 
 C -2.52465937187499 -2.55573861562499 -2.43279925937500 
 C -1.29656437187499 -2.88291661562499 -1.72162125937500 
 N -0.263888371874994 -7.06628361562499 -2.50368225937500 
 N -2.19269037187499 -6.22456261562499 -3.86666725937500 
 N -3.23407137187499 -6.62444861562499 -0.109429259374998 
 N -0.242023371874994 -3.05401961562499 -2.49356025937500 
 N -2.32670537187499 -2.38569261562499 -3.70488725937500 
 N -3.12491437187499 -2.53502661562499 0.104386740625002 
 S -0.614180371874994 -6.72984161562499 -4.06781125937500 
 S -3.87652237187499 -6.04591461562499 -1.56004025937500 
 S -1.61674837187499 -6.94415161562499 -0.129131259374998 
 S -0.765911371874995 -2.75665161562499 -4.09634025937500 
 S -3.81693537187499 -2.26426361562499 -1.36680725937500 
 S -1.55087037187499 -3.04381761562499 -1.666325937499780E-002
