16

 C -2.58553014062500 -6.44765702812500 -2.35820405312500 
 C -1.39855914062500 -6.99478102812500 -1.73232605312500 
 C -2.38531514062500 -2.93452502812500 -2.41980205312500 
 C -1.17306714062500 -3.30688702812500 -1.81180005312500 
 N -0.343680140625003 -7.07429502812500 -2.55548005312500 
 N -2.47286814062500 -6.27714602812500 -3.68581805312500 
 N -3.09841514062500 -6.53266902812500 0.159310946875000 
 N -0.211060140625003 -3.55922302812500 -2.66864905312500 
 N -2.30626014062500 -2.84171402812500 -3.73002305312500 
 N -2.82973414062500 -2.92433702812500 0.155700946875001 
 S -0.929323140625003 -6.66986202812500 -4.06473305312500 
 S -3.87767914062500 -6.07616002812500 -1.25776705312500 
 S -1.55900714062500 -7.18036102812500 3.849594687500058E-002
 S -0.726460140625004 -3.09734102812500 -4.14736305312500 
 S -3.58574414062500 -2.56772702812500 -1.26901605312500 
 S -1.22214314062500 -3.39215202812500 -5.351305312499965E-002
