16

 C -2.50419469375000 -6.53151358125000 -2.39459262812500 
 C -1.25061369375000 -6.70009158125000 -1.71446862812500 
 C -2.49148469375000 -2.25905158125000 -2.83265662812500 
 C -1.38324469375000 -2.86022758125000 -2.13731362812500 
 N -0.255622693750000 -6.68905258125000 -2.54368762812500 
 N -2.42333569375000 -6.25074358125000 -3.69106662812500 
 N -3.06137469375000 -6.50390158125000 9.696537187499965E-002
 N -0.296037693750000 -3.13537958125000 -2.89551562812500 
 N -2.19549369375000 -2.06405358125000 -4.13578462812500 
 N -3.30514669375000 -2.73756258125000 -0.471720628125001 
 S -0.799979693750000 -6.40536158125000 -4.09420062812500 
 S -3.86326069375000 -6.49433558125000 -1.31967062812500 
 S -1.38592469375000 -6.86115258125000 -5.486062812500037E-002
 S -0.607814693750000 -2.47988258125000 -4.35502962812500 
 S -3.97040769375000 -2.06863958125000 -1.89046562812500 
 S -1.72877069375000 -3.19554458125000 -0.426018628125000 
