16

 C -2.19951152500000 -6.35116413437499 -2.45702387500000 
 C -1.04466352500000 -6.83305613437499 -1.74590487500000 
 C -2.83586752500000 -2.53960513437499 -2.50649987500000 
 C -1.56256252500000 -2.87333413437499 -1.90657687500000 
 N 2.102147500000306E-002 -7.05494213437499 -2.48914687500000 
 N -2.04198652500000 -6.12837413437499 -3.77300587500000 
 N -2.89877752500000 -6.59813013437499 9.289912499999953E-002
 N -0.496836524999996 -2.89605513437499 -2.70829687500000 
 N -2.74205552500000 -2.31251513437499 -3.84182087500000 
 N -3.34979852500000 -2.86081613437499 6.670124999999638E-003
 S -0.441293524999997 -6.52505813437499 -4.02220687500000 
 S -3.61177152500000 -6.16331613437499 -1.32158387500000 
 S -1.26345552500000 -7.08929513437499 -2.062587500000035E-002
 S -1.15398452500000 -2.47963413437499 -4.22661387500000 
 S -4.18042852500000 -2.47721713437499 -1.41660887500000 
 S -1.70324152500000 -3.03462513437499 -0.192580875000000 
