16

 C -2.39625722812500 -6.36284408750000 -2.54524445937500 
 C -1.26979722812500 -6.84774108750000 -1.79886445937500 
 C -2.58303322812500 -2.45198208750000 -2.46092045937500 
 C -1.33183522812500 -2.82768108750000 -1.76036845937500 
 N -0.139761228125002 -7.06364408750000 -2.48375645937500 
 N -2.14116422812500 -6.25700608750000 -3.83765945937500 
 N -3.23448122812500 -6.55761808750000 -0.105176459375000 
 N -0.278859228125001 -2.91937408750000 -2.57280245937500 
 N -2.47194422812500 -2.41645008750000 -3.76866945937500 
 N -3.16349122812500 -2.64347808750000 7.869354062499978E-002
 S -0.526195228125001 -6.68756108750000 -4.06527345937500 
 S -3.84169922812500 -6.12186008750000 -1.55157245937500 
 S -1.61448122812500 -6.97854108750000 -8.464745937500018E-002
 S -0.832394228125001 -2.68739208750000 -4.08590845937500 
 S -3.99319422812500 -2.34485408750000 -1.35562045937500 
 S -1.54809222812500 -3.04879008750000 -5.988459375000144E-003
