16

 C -2.42299454375000 -6.64633801875000 -2.36449843437500 
 C -1.19197554375000 -6.96846601875000 -1.75972043437500 
 C -2.50825254375000 -2.83033601875000 -2.24660243437500 
 C -1.27236354375000 -3.28089001875000 -1.67133143437500 
 N -0.152382543750001 -7.17665001875000 -2.58292743437500 
 N -2.26884354375000 -6.51548701875000 -3.68465043437500 
 N -2.81533454375000 -6.64600201875000 0.142308565625000 
 N -0.380691543750001 -3.56421901875000 -2.61742743437500 
 N -2.55139854375000 -2.75034101875000 -3.58545243437500 
 N -2.89860454375000 -3.10973201875000 0.280071565625000 
 S -0.711622543750001 -7.00444501875000 -4.12511243437500 
 S -3.72414154375000 -6.39409001875000 -1.31167143437500 
 S -1.26692354375000 -7.34081401875000 -5.916143437500021E-002
 S -1.00686854375000 -3.07507001875000 -4.03035743437500 
 S -3.69148354375000 -2.60462501875000 -1.08196843437500 
 S -1.28769454375000 -3.22664201875000 4.719156562499971E-002
