16

 C -2.40477778125000 -6.65969260312500 -2.45232935000000 
 C -1.14852378125000 -6.92524160312500 -1.76999335000000 
 C -2.26856678125000 -3.43523560312500 -2.25017935000000 
 C -1.02267278125000 -3.57499960312500 -1.53200135000000 
 N -7.767678125000188E-002 -7.06001460312500 -2.58949635000000 
 N -2.23903478125000 -6.58200760312500 -3.77489335000000 
 N -2.86947878125000 -6.57539460312500 0.105980649999999 
 N 2.898821874999769E-002 -3.62670860312500 -2.37293435000000 
 N -2.23023178125000 -3.53402460312500 -3.55598135000000 
 N -2.91483878125000 -3.36500260312500 0.249870649999999 
 S -0.632681781250002 -6.89796560312500 -4.11771235000000 
 S -3.65675278125000 -6.29899460312500 -1.37269935000000 
 S -1.26413778125000 -6.89908260312500 -4.816235000000146E-002
 S -0.603023781250002 -3.59211060312500 -3.89650135000000 
 S -3.69206378125000 -3.20463760312500 -1.20748835000000 
 S -1.21643678125000 -3.54059060312500 0.217276649999999 
