16

 C -2.30527521562500 -6.44028380312500 -2.21298002187500 
 C -1.11416421562499 -6.97385680312500 -1.67070202187500 
 C -2.32869121562500 -2.65991580312500 -2.45568902187500 
 C -1.10227321562499 -3.19395580312500 -1.94902902187500 
 N -0.144189215624995 -7.22824380312500 -2.52395002187500 
 N -2.25606721562500 -6.21193280312500 -3.51996302187500 
 N -2.78433121562500 -6.72401780312500 0.243035978124999 
 N -0.235221215624994 -3.39785080312500 -2.89997602187500 
 N -2.30016821562499 -2.24755480312500 -3.69478802187500 
 N -2.76913821562500 -3.18291480312500 -2.190902187500110E-002
 S -0.768021215624995 -6.79892180312500 -4.01779402187500 
 S -3.56132221562499 -6.34328480312500 -1.11724302187500 
 S -1.18272621562499 -7.19607280312500 6.608097812499891E-002
 S -0.837091215624995 -2.77799280312500 -4.31749802187500 
 S -3.50957021562500 -2.41263580312500 -1.27024802187500 
 S -1.17074821562499 -3.50200380312500 -0.275815021875001 
