16

 C -2.58419002187500 -6.60218812187499 -2.29917565000000 
 C -1.39000702187500 -7.04329712187499 -1.64253965000000 
 C -2.75736202187500 -2.50188612187499 -2.40077365000000 
 C -1.61933202187500 -3.06517212187499 -1.65270065000000 
 N -0.350902021874998 -7.16278112187499 -2.46126965000000 
 N -2.53617502187500 -6.46472512187499 -3.61945865000000 
 N -3.12454702187500 -6.84566812187499 0.237196349999998 
 N -0.520637021874998 -3.32811612187499 -2.38082565000000 
 N -2.51350202187500 -2.27956612187499 -3.70152165000000 
 N -3.43972302187500 -2.63995812187499 6.214334999999793E-002
 S -0.897747021874999 -6.78774512187499 -3.97209465000000 
 S -3.90643002187500 -6.47979912187499 -1.18854165000000 
 S -1.50528902187500 -7.37777812187499 5.271234999999796E-002
 S -1.00232602187500 -2.81277712187499 -3.91829865000000 
 S -3.99355202187500 -2.02897412187499 -1.33477165000000 
 S -1.96355902187500 -3.40682512187499 5.995349999997845E-003
