16

 C -2.66971934687500 -6.63462734687500 -2.12836086875000 
 C -1.43886634687500 -7.32719734687500 -1.68747486875000 
 C -2.30390134687500 -2.79771134687500 -2.37956586875000 
 C -1.09094234687500 -3.37319134687500 -1.71998786875000 
 N -0.480301346875002 -7.53565934687500 -2.60708486875000 
 N -2.64725234687500 -6.41291034687500 -3.43612886875000 
 N -3.04368334687500 -7.06290034687500 0.269210131250002 
 N -0.104134346875002 -3.68506134687500 -2.59226386875000 
 N -2.20383434687500 -2.61261434687500 -3.70718686875000 
 N -2.83218834687500 -3.09822634687500 0.170602131250002 
 S -1.22286934687500 -6.98531634687500 -3.99828786875000 
 S -3.91015734687500 -6.42306234687500 -1.03431186875000 
 S -1.46431134687500 -7.47806534687500 7.802713125000182E-002
 S -0.656987346875002 -3.14586334687500 -4.05099886875000 
 S -3.56823134687500 -2.52396734687500 -1.22761686875000 
 S -1.19105034687500 -3.51151734687500 4.130013125000187E-002
