16

 C -2.47118182187500 -6.44391735937500 -2.53581353750000 
 C -1.27192782187500 -6.86822635937500 -1.82690753750000 
 C -2.69449082187500 -2.91986435937500 -2.50062453750000 
 C -1.54309482187500 -3.48945535937500 -1.88914153750000 
 N -0.203447821875004 -6.98303235937500 -2.66564453750000 
 N -2.32290582187500 -6.27741535937500 -3.84657153750000 
 N -3.18050582187500 -6.68554535937500 -2.763953750000048E-002
 N -0.517468821875005 -3.60866835937500 -2.71392453750000 
 N -2.57430982187500 -2.56185235937500 -3.77685453750000 
 N -3.31732182187500 -3.29789735937500 1.226946249999950E-002
 S -0.744221821875004 -6.67256935937500 -4.18384653750000 
 S -3.86515882187500 -6.16134835937500 -1.39459253750000 
 S -1.54483982187500 -6.98878835937500 -0.127534537500001 
 S -0.998826821875005 -3.12099635937500 -4.20645853750000 
 S -4.00076682187500 -2.85817135937500 -1.42871353750000 
 S -1.76244182187500 -3.74160435937500 -0.172210537500001 
