16

 C -2.27510406562500 -6.40933076875000 -2.45639176250000 
 C -1.09365306562500 -6.76015476875000 -1.69034976250000 
 C -2.56751206562500 -2.68247776875000 -2.47322876250000 
 C -1.35990106562500 -2.92381176875000 -1.76525876250000 
 N -3.233506562500033E-002 -6.88704976875000 -2.52785676250000 
 N -2.14862006562500 -6.45179176875000 -3.79330676250000 
 N -3.07206806562500 -6.42460276875000 -1.955976250000124E-002
 N -0.301924065625001 -3.04241476875000 -2.55587476250000 
 N -2.43603506562500 -2.61892076875000 -3.77015276250000 
 N -3.23010006562500 -2.88348376875000 -1.999676250000126E-002
 S -0.611205065625001 -6.86504076875000 -4.13849676250000 
 S -3.73913406562500 -6.16312876875000 -1.54898976250000 
 S -1.45646506562500 -6.82777276875000 -1.466776250000135E-002
 S -0.817427065625001 -2.76509776875000 -4.13489876250000 
 S -3.97891906562500 -2.63914876875000 -1.45467876250000 
 S -1.59719506562500 -3.22504476875000 -8.068476250000134E-002
