16

 C -2.21010630937500 -6.50180596562500 -2.47679056875000 
 C -1.06982530937500 -7.13720796562500 -1.86164856875000 
 C -2.44003030937500 -2.95824196562500 -2.31476456875000 
 C -1.22988430937500 -3.43267596562500 -1.66043556875000 
 N -3.646430937500256E-002 -7.31263996562500 -2.67403956875000 
 N -2.06104130937500 -6.25738596562500 -3.76138456875000 
 N -2.97514530937500 -6.81954496562500 -4.414756874999837E-002
 N -0.222180309375002 -3.66372796562500 -2.56581456875000 
 N -2.28219830937500 -2.73882696562500 -3.61929156875000 
 N -2.89391230937500 -2.92044696562500 0.182586431250002 
 S -0.565108309375002 -6.85752296562500 -4.22394856875000 
 S -3.54381630937500 -6.20570796562500 -1.45834156875000 
 S -1.38262130937500 -7.35168596562500 -9.403656874999822E-002
 S -0.729187309375003 -3.20261796562500 -3.97824356875000 
 S -3.77178630937500 -2.73344296562500 -1.27501556875000 
 S -1.33537330937500 -3.48212996562500 8.491743125000184E-002
