16

 C -2.73071451562500 -6.41235987187500 -2.68767284062500 
 C -1.52701751562500 -6.86084987187500 -2.01668484062500 
 C -2.33844151562500 -2.86747687187500 -2.36285784062500 
 C -1.09401251562500 -3.18871287187500 -1.84474384062500 
 N -0.466719515625000 -6.76289487187500 -2.79609284062500 
 N -2.56379051562500 -6.09418987187500 -3.97300484062500 
 N -3.30679651562500 -6.76204387187500 -0.241190840625000 
 N -0.127848515625001 -3.31388287187500 -2.73553484062500 
 N -2.38691251562500 -2.81794087187500 -3.67305684062500 
 N -2.76952351562500 -2.98022687187500 0.142905159375000 
 S -0.963748515625000 -6.32846087187500 -4.26523884062500 
 S -4.11464751562500 -6.30413087187500 -1.60487584062500 
 S -1.69661551562500 -7.12011787187500 -0.371201840625000 
 S -0.823012515625000 -2.99806187187500 -4.20855684062500 
 S -3.60653451562500 -2.67174887187500 -1.23668784062500 
 S -1.12955651562500 -3.37372587187500 -7.456984062499949E-002
