16

 C -2.39128298125000 -6.26071895937500 -2.12571846875000 
 C -1.21729998125000 -6.90207695937500 -1.54431646875000 
 C -2.30540698125000 -2.65310195937500 -2.22884146875000 
 C -1.19499398125000 -3.27322695937500 -1.58184746875000 
 N -0.120149981249997 -6.97859295937500 -2.28116246875000 
 N -2.13673198125000 -5.83071895937500 -3.32526346875000 
 N -2.88422398125000 -6.62173895937500 0.315711531250001 
 N -9.785898124999726E-002 -3.31198095937500 -2.32332746875000 
 N -2.06733898125000 -2.18380895937500 -3.44410046875000 
 N -3.02421098125000 -3.00369595937500 0.222058531250001 
 S -0.586534981249997 -6.24774395937500 -3.70919946875000 
 S -3.71149698125000 -6.12659795937500 -1.12002746875000 
 S -1.34449998125000 -7.17228895937500 0.162191531250001 
 S -0.570314981249997 -2.66937895937500 -3.85246046875000 
 S -3.72553098125000 -2.48889295937500 -1.17640346875000 
 S -1.46468498125000 -3.41361795937500 0.100430531250001 
