16

 C -2.46219592187500 -6.34162413749999 -2.57838575000000 
 C -1.27385392187500 -6.76355913749999 -1.88525475000000 
 C -2.74011992187500 -2.89087113749999 -2.45321975000000 
 C -1.55535392187500 -3.47932713749999 -1.85352175000000 
 N -0.171785921875002 -6.95922213749999 -2.65931675000000 
 N -2.25508392187500 -6.29437613749999 -3.88042475000000 
 N -3.15477392187500 -6.62254213749999 -0.148029750000000 
 N -0.578267921875002 -3.74335913749999 -2.70170075000000 
 N -2.61386592187500 -2.68009313749999 -3.76331075000000 
 N -3.34737892187500 -3.26005313749999 -4.278675000000010E-002
 S -0.681469921875002 -6.69691313749999 -4.18559575000000 
 S -3.88457192187500 -6.26515913749999 -1.56406575000000 
 S -1.53637092187500 -7.14565513749999 -0.106087750000000 
 S -0.999002921875002 -3.09787413749999 -4.13441775000000 
 S -4.08136392187500 -2.56533413749999 -1.39672975000000 
 S -1.78219392187500 -3.85934413749999 -0.234950750000000 
