16

 C -2.69018887187500 -6.46049606562500 -2.29047420625000 
 C -1.41437687187500 -6.91474906562500 -1.77387220625000 
 C -2.32436887187500 -2.94625706562500 -2.36284120625000 
 C -1.22603287187500 -3.48976506562500 -1.69661020625000 
 N -0.438909871874998 -7.07582406562500 -2.68977120625000 
 N -2.65336887187500 -6.16661406562500 -3.58978020625000 
 N -3.06346187187500 -6.76301406562500 0.254786793750000 
 N -0.184775871874998 -3.74508006562500 -2.47267120625000 
 N -2.16549987187500 -2.71540006562500 -3.66039320625000 
 N -2.97817187187500 -2.95797106562500 0.131631793750000 
 S -1.13884287187500 -6.61335206562500 -4.17491220625000 
 S -3.87433787187500 -6.23498606562500 -1.07537820625000 
 S -1.50220487187500 -7.18520206562500 -2.216120625000007E-002
 S -0.619541871874998 -3.20617406562500 -4.03218420625000 
 S -3.76933787187500 -2.80954006562500 -1.35982120625000 
 S -1.49522987187500 -3.75263506562500 -3.060220624999999E-002
