16

 C -2.44677118750000 -6.51455786562500 -2.42715114687500 
 C -1.34211518750000 -7.08505586562500 -1.68006914687500 
 C -2.27703718750000 -2.72612886562500 -2.54977814687500 
 C -1.15984618750000 -3.31478286562500 -1.90414514687500 
 N -0.255904187500001 -7.42061886562500 -2.41657314687500 
 N -2.25374718750000 -6.43912786562500 -3.75980514687500 
 N -3.30810218750000 -6.63512986562500 4.208853125001522E-003
 N -8.124118750000164E-002 -3.52984486562500 -2.65595614687500 
 N -2.17300618750000 -2.51061986562500 -3.87905714687500 
 N -2.96840718750000 -3.00451486562500 -1.979614687499853E-002
 S -0.722376187500002 -6.95549686562500 -3.99538114687500 
 S -3.84675818750000 -6.06907486562500 -1.46699314687500 
 S -1.76655018750000 -7.09158486562500 4.602385312500168E-002
 S -0.604759187500002 -2.99660586562500 -4.19547514687500 
 S -3.67775818750000 -2.70723286562500 -1.48067714687500 
 S -1.42588218750000 -3.40697886562500 -0.138226146874999 
