16

 C -2.50931855625000 -6.24979474687500 -2.43918318750000 
 C -1.32865755625000 -6.77299074687500 -1.76388318750000 
 C -2.46194455625000 -2.39253974687500 -2.36701518750000 
 C -1.28989155625000 -2.97800774687500 -1.74285918750000 
 N -0.274716556250004 -6.93119874687500 -2.59085818750000 
 N -2.32830455625000 -6.19769474687500 -3.78669818750000 
 N -3.12700755625000 -6.50034374687500 6.135481250000052E-002
 N -0.269944556250004 -3.13937974687500 -2.56887518750000 
 N -2.34570355625000 -2.16918074687500 -3.64926318750000 
 N -3.04740755625000 -2.88076274687500 7.056481250000046E-002
 S -0.751664556250003 -6.53051174687500 -4.15646118750000 
 S -3.78697655625000 -5.95234874687500 -1.34630418750000 
 S -1.45496055625000 -6.92379874687500 -4.700218749999951E-002
 S -0.823874556250003 -2.69342074687500 -4.07258918750000 
 S -3.69159555625000 -2.02764274687500 -1.22518518750000 
 S -1.44200755625000 -3.21059974687500 -1.388318749999939E-002
