16

 C -2.37348472187500 -6.50188278125001 -2.53143178750000 
 C -1.14541772187500 -6.62187578125001 -1.81039078750000 
 C -2.46928772187500 -2.06181778125001 -2.70485678750000 
 C -1.44526072187500 -2.89331278125001 -2.00593878750000 
 N -3.923772187499885E-002 -6.59311578125001 -2.59073478750000 
 N -2.30112472187500 -6.44348678125001 -3.88820478750000 
 N -2.95609372187500 -6.60649178125001 2.871321250000025E-002
 N -0.384279721875000 -3.24175378125001 -2.69591978750000 
 N -2.10665872187500 -1.86107578125001 -3.95864778750000 
 N -3.45515672187500 -2.61854778125001 -0.419581787500000 
 S -0.674415721875000 -6.56476878125001 -4.12303778750000 
 S -3.81619672187500 -6.37192378125001 -1.43570878750000 
 S -1.36891472187500 -6.77281378125001 -0.101486787500000 
 S -0.553899721874999 -2.50759678125001 -4.22547678750000 
 S -3.98213272187500 -1.85693178125001 -1.80941778750000 
 S -1.99333072187500 -3.43041978125001 -0.442234787500000 
