16

 C -2.32920628125001 -6.63356029375001 -2.36346726875000 
 C -1.17113228125001 -7.31444029375001 -1.77642326875000 
 C -2.66775828125001 -2.82501829375001 -2.58043226875000 
 C -1.48104428125001 -3.18933829375001 -1.84344426875000 
 N -0.196458281250007 -7.50868629375001 -2.67301226875000 
 N -2.29448228125001 -6.39595429375001 -3.64177126875000 
 N -2.78569428125001 -7.09761629375001 9.186973124999986E-002
 N -0.411671281250007 -3.48731029375001 -2.55065926875000 
 N -2.46572528125001 -2.76972629375001 -3.88726826875000 
 N -3.34200228125001 -2.66631729375001 -0.133557268750000 
 S -0.818521281250007 -6.97435629375001 -4.13527226875000 
 S -3.63671728125001 -6.37342029375001 -1.22073526875000 
 S -1.27490828125001 -7.71467929375001 -0.134873268750000 
 S -0.879917281250007 -3.08811529375001 -4.12296726875000 
 S -4.04302328125001 -2.53528929375001 -1.65091326875000 
 S -1.83991628125001 -3.30796029375001 -0.143728268750000 
