16

 C -2.70154586562499 -6.66647239687500 -2.24482626875000 
 C -1.47084486562499 -6.98496739687500 -1.57217726875000 
 C -2.29939886562499 -2.60613539687500 -2.46399226875000 
 C -1.12249386562499 -3.26572739687500 -1.75394126875000 
 N -0.354792865624993 -6.92177639687500 -2.31170926875000 
 N -2.48653986562499 -6.40756639687500 -3.53938126875000 
 N -3.21272386562499 -6.92367739687500 0.264961731250000 
 N -0.115215865624993 -3.41850039687500 -2.59434626875000 
 N -2.13152786562499 -2.39135939687500 -3.75703426875000 
 N -2.99701186562499 -2.98188239687500 2.519773124999980E-002
 S -0.846542865624992 -6.55384039687500 -3.83518326875000 
 S -4.00974486562499 -6.64520539687500 -1.19003826875000 
 S -1.59507786562499 -7.21235639687500 0.147052731250000 
 S -0.577819865624993 -2.85151739687500 -4.10687226875000 
 S -3.62210286562499 -2.25165639687500 -1.38847926875000 
 S -1.47022786562499 -3.63978339687500 -8.423226875000012E-002
