16

 C -2.16745981250000 -6.11257450000001 -2.59708851562500 
 C -1.02900781250000 -6.54798250000001 -1.83901551562500 
 C -2.35841881250000 -2.75511350000001 -2.51373251562500 
 C -1.09047881250000 -3.14045350000001 -1.84922951562500 
 N 5.490218750000064E-002 -6.89035150000001 -2.57468151562500 
 N -1.89584081250000 -5.96966950000001 -3.89353751562500 
 N -2.98750181250000 -6.34525650000001 -0.200628515625000 
 N -9.874781249999831E-002 -3.35554950000001 -2.73245751562500 
 N -2.30333681250000 -2.70990250000001 -3.86053451562500 
 N -2.94223881250000 -2.89582750000001 4.223948437499980E-002
 S -0.396860812499998 -6.62261050000001 -4.12809651562500 
 S -3.61295581250000 -5.86310550000001 -1.66901451562500 
 S -1.39159481250000 -6.84472950000001 -0.133097515625000 
 S -0.735374812499998 -3.04785950000001 -4.22262151562500 
 S -3.75743481250000 -2.78342550000001 -1.42957351562500 
 S -1.29826481250000 -3.30288850000001 -0.132656515625000 
