16

 C -2.35189870625000 -6.66290560312501 -2.39966123750000 
 C -1.14410370625000 -7.15025160312501 -1.71403023750000 
 C -2.40296270625000 -2.49305960312501 -2.28590523750000 
 C -1.33591670625000 -3.33884160312501 -1.75557123750000 
 N -0.141497706250002 -7.30172960312501 -2.55788323750000 
 N -2.24921070625000 -6.33738160312501 -3.73089023750000 
 N -3.02650970625000 -6.95748760312501 0.158738762500000 
 N -0.324253706250002 -3.67507460312501 -2.59344123750000 
 N -2.21944570625000 -2.23937260312501 -3.58174023750000 
 N -2.97774770625000 -2.84563860312501 0.169732762500000 
 S -0.628322706250002 -6.74485060312501 -4.04275823750000 
 S -3.70781770625000 -6.43429460312501 -1.21551323750000 
 S -1.35378570625000 -7.30411160312501 4.071476249999972E-002
 S -0.791959706250002 -2.96420060312501 -4.08763023750000 
 S -3.67088270625000 -2.07940160312501 -1.20692323750000 
 S -1.51867270625000 -3.68320860312501 -2.668723750000024E-002
