16

 C -2.24076059687500 -6.51104013125000 -2.27449962812500 
 C -1.05011659687500 -7.09525413125000 -1.74951862812500 
 C -2.26464959687500 -2.61017313125000 -2.46596462812500 
 C -1.10650959687500 -3.19372913125000 -1.84489762812500 
 N -9.661659687499835E-002 -7.32283313125000 -2.64572462812500 
 N -2.22443359687500 -6.30561913125000 -3.58874662812500 
 N -2.57644059687500 -6.60038213125000 0.275291371874999 
 N -2.844659687499806E-002 -3.27985013125000 -2.62985662812500 
 N -2.13624359687500 -2.30853413125000 -3.78026962812500 
 N -2.92109359687500 -3.01045713125000 8.775137187499937E-002
 S -0.754109596874998 -6.82183313125000 -4.08479162812500 
 S -3.34883559687500 -6.04921713125000 -1.06377462812500 
 S -1.15463459687500 -7.37182213125000 3.035937187499926E-002
 S -0.574327596874998 -2.81046313125000 -4.11968362812500 
 S -3.58675259687500 -2.41803113125000 -1.34450862812500 
 S -1.37596059687500 -3.58342613125000 -0.166318628125001 
