16

 C -2.50879375000000 -6.23632092812500 -2.53803857187500 
 C -1.43142375000000 -6.90411692812500 -1.85834357187500 
 C -2.62328675000000 -2.57089392812500 -2.45638357187500 
 C -1.47280275000000 -3.06390592812500 -1.70179357187500 
 N -0.353947750000001 -7.13397792812500 -2.60953357187500 
 N -2.21341775000000 -5.85099092812500 -3.79840357187500 
 N -3.17435375000000 -6.70722392812500 -3.857857187500047E-002
 N -0.341359750000001 -3.29632392812500 -2.41392957187500 
 N -2.38117875000000 -2.43541792812500 -3.73202557187500 
 N -3.43744675000000 -2.80893392812500 -4.148057187500065E-002
 S -0.739934750000001 -6.55537392812500 -4.08935357187500 
 S -3.84612375000000 -5.92270592812500 -1.38723857187500 
 S -1.64139675000000 -7.25623292812500 -0.168724571875000 
 S -0.849865750000000 -2.84387192812500 -4.04351257187500 
 S -3.92378975000000 -2.14251992812500 -1.44088257187500 
 S -1.82921375000000 -3.27941292812500 -4.445571875000276E-003
