16

 C -2.56364675937500 -6.53617156562501 -2.41795079375000 
 C -1.47515475937500 -7.07579856562501 -1.67086779375000 
 C -2.32207975937500 -2.80137956562501 -2.48917579375000 
 C -1.14169975937500 -3.21512756562501 -1.82628379375000 
 N -0.442248759375003 -7.35289956562501 -2.44358779375000 
 N -2.33569475937500 -6.35907356562501 -3.71392979375000 
 N -3.30847175937500 -6.48198456562501 3.673720624999977E-002
 N -0.107557759375003 -3.44465556562501 -2.66338779375000 
 N -2.13060675937500 -2.50919656562501 -3.76812379375000 
 N -3.02093575937500 -2.94979856562501 -5.581379375000051E-002
 S -0.788214759375003 -6.95801956562501 -3.99742679375000 
 S -3.88010575937500 -6.02194956562501 -1.44667979375000 
 S -1.72232675937500 -7.03108256562501 3.028720624999970E-002
 S -0.616334759375003 -3.00268556562501 -4.16100579375000 
 S -3.71270275937500 -2.62506756562501 -1.53039579375000 
 S -1.34397375937500 -3.35805656562501 -0.117517793750000 
