16

 C -2.55459526874999 -6.47745578437500 -2.30497562187500 
 C -1.37057726874999 -6.91376978437500 -1.62459262187500 
 C -2.45222126874999 -2.85328278437500 -2.16213062187500 
 C -1.18434926874999 -3.24039478437500 -1.56894262187500 
 N -0.376364268749994 -7.08624178437500 -2.48066462187500 
 N -2.48811026874999 -6.25238878437500 -3.62347362187500 
 N -3.12529526875000 -6.69599678437500 0.317896378125000 
 N -0.209587268749995 -3.51336078437500 -2.40399062187500 
 N -2.40601126875000 -2.80250278437500 -3.48615362187500 
 N -2.84811526874999 -2.93294478437500 0.316807378125000 
 S -0.905203268749995 -6.60638878437500 -3.98137262187500 
 S -3.86085826875000 -6.33285178437500 -1.12006862187500 
 S -1.56253726874999 -7.09911578437500 0.124487378125000 
 S -0.804185268749995 -3.17728378437500 -3.90898062187500 
 S -3.75840426874999 -2.69535278437500 -1.07699462187500 
 S -1.24697226875000 -3.39428078437500 0.127812378125000 
