16

 C -2.45407303437500 -6.51544932187500 -2.46114867187500 
 C -1.18219603437500 -6.84576032187500 -1.85602767187500 
 C -2.66510803437500 -2.59302432187500 -2.33687567187500 
 C -1.52063603437500 -3.23033932187500 -1.71935667187500 
 N -0.135299034374998 -6.98491532187500 -2.65026967187500 
 N -2.35301903437500 -6.48808932187500 -3.77928367187500 
 N -2.86346303437500 -6.64798632187500 0.140551328125000 
 N -0.524539034374998 -3.39722832187500 -2.56966267187500 
 N -2.55417203437500 -2.47568432187500 -3.66355267187500 
 N -3.19981603437500 -2.80644632187500 0.140096328125000 
 S -0.746612034374998 -6.84407232187500 -4.21434167187500 
 S -3.65553203437500 -6.28789232187500 -1.31054567187500 
 S -1.33825103437500 -7.13410832187500 -0.156400671875000 
 S -0.967359034374998 -2.94109432187500 -4.08248567187500 
 S -3.92558303437500 -2.27689032187500 -1.23124767187500 
 S -1.75426903437500 -3.46695032187500 -5.257967187500023E-002
