16

 C -2.63849354375000 -6.50112514062500 -2.47198330000000 
 C -1.36677854375000 -6.96635514062500 -1.85773730000000 
 C -2.49443354375000 -2.73617214062500 -2.56346030000000 
 C -1.36435654375000 -3.15901214062500 -1.82246130000000 
 N -0.337200543750004 -7.16397214062500 -2.65683630000000 
 N -2.48132454375000 -6.26150714062500 -3.76257130000000 
 N -3.04480354375000 -6.94276014062500 7.515870000000047E-002
 N -0.289517543750004 -3.36416214062500 -2.57110030000000 
 N -2.36573554375000 -2.58689614062500 -3.88681430000000 
 N -3.22491254375000 -2.84919514062500 -6.705929999999971E-002
 S -0.847104543750005 -6.68620114062500 -4.16647130000000 
 S -3.92819654375000 -6.45267414062500 -1.28319730000000 
 S -1.36991354375000 -7.20441714062500 -0.103986300000000 
 S -0.766956543750005 -3.00799314062500 -4.15088830000000 
 S -3.97277954375000 -2.55079014062500 -1.50874730000000 
 S -1.60375554375000 -3.29172714062500 -8.199129999999966E-002
