16

 C -2.41117917187499 -6.53633185312500 -2.56443130625000 
 C -1.26267217187500 -7.12224885312500 -1.87893030625000 
 C -2.44280117187500 -2.87566585312500 -2.38411330625000 
 C -1.19549417187500 -3.21343885312500 -1.72098230625000 
 N -0.176206171874996 -7.43567785312500 -2.62040630625000 
 N -2.09082317187500 -6.30544685312500 -3.84717530625000 
 N -3.02592417187499 -6.75638285312500 -1.563230624999967E-002
 N -0.191556171874995 -3.40921185312500 -2.50225530625000 
 N -2.38292717187500 -2.75218485312500 -3.69896430625000 
 N -3.06373717187499 -3.00742385312500 6.913269375000031E-002
 S -0.634479171874995 -7.01513485312500 -4.17256830625000 
 S -3.68683017187500 -6.13469885312500 -1.43756830625000 
 S -1.46042017187500 -7.29378885312500 -0.142294306250000 
 S -0.849778171874995 -3.13684785312500 -4.12303430625000 
 S -3.78125517187499 -2.54748485312500 -1.35255330625000 
 S -1.39876317187499 -3.36252085312500 2.946869375000039E-002
