16

 C -2.30500813750001 -6.53860260625000 -2.38456477812500 
 C -1.12949013750001 -7.11296360625000 -1.74205577812500 
 C -2.46381713750001 -2.81937260625000 -2.23236177812500 
 C -1.18176513750001 -3.18541660625000 -1.68629677812500 
 N -8.706513750000688E-002 -7.29930160625000 -2.57882677812500 
 N -2.23697213750001 -6.41286160625000 -3.72428777812500 
 N -2.82798113750001 -6.58248360625000 0.123195221875000 
 N -0.215788137500007 -3.46664260625000 -2.57992777812500 
 N -2.47670913750001 -2.66275560625000 -3.56662577812500 
 N -2.86995913750001 -2.96550060625000 0.271583221875000 
 S -0.714601137500006 -6.84223460625000 -4.08666777812500 
 S -3.65339613750001 -6.37843560625000 -1.26292577812500 
 S -1.31080613750001 -7.34135660625000 -1.576577812500002E-002
 S -1.00697413750001 -3.25324260625000 -4.09812577812500 
 S -3.78899913750001 -2.72543160625000 -1.10486177812500 
 S -1.22358813750001 -3.16663660625000 3.855522187500005E-002
