16

 C -2.50681210312500 -6.50255354375000 -2.57496975937500 
 C -1.31518310312499 -6.77345954375000 -1.84844975937500 
 C -2.47430410312500 -2.54585654375000 -2.38988775937500 
 C -1.24661110312500 -3.04399154375000 -1.77817475937500 
 N -0.192561103124995 -6.75897454375000 -2.56524575937500 
 N -2.27738710312500 -6.32449954375000 -3.86006975937500 
 N -3.11448910312500 -6.61073754375000 -3.650475937500008E-002
 N -0.249480103124995 -3.23795754375000 -2.62538875937500 
 N -2.37970210312500 -2.56119854375000 -3.70574975937500 
 N -2.98541810312499 -2.72189754375000 0.106320240625000 
 S -0.646037103124995 -6.45512154375000 -4.13664975937500 
 S -3.95532010312500 -6.34414154375000 -1.50319775937500 
 S -1.49406310312500 -6.98557454375000 -0.161851759375000 
 S -0.772031103124995 -2.93379954375000 -4.18904475937500 
 S -3.80107510312500 -2.22940554375000 -1.32642775937500 
 S -1.38522610312500 -3.18765154375000 -6.616275937499982E-002
