16

 C -2.11725426875000 -6.77989195937500 -2.48780740625000 
 C -1.01259926875000 -7.36350195937500 -1.79436140625000 
 C -2.57725026875000 -2.61220595937500 -2.59194940625000 
 C -1.35021326875000 -3.06363095937500 -1.87909940625000 
 N -8.751826874999935E-002 -7.73632595937500 -2.64295040625000 
 N -2.06871726875000 -6.75669595937500 -3.84889340625000 
 N -2.74755526875000 -6.64461095937500 3.784859374999905E-002
 N -0.309119268749999 -3.37119895937500 -2.66697340625000 
 N -2.38120726875000 -2.52724195937500 -3.89735540625000 
 N -3.20281126875000 -2.81404895937500 -0.121684406250001 
 S -0.568648268750000 -7.45206795937500 -4.24642940625000 
 S -3.47928526875000 -6.40934795937500 -1.36497340625000 
 S -1.28960826875000 -7.44523095937500 -4.020840625000099E-002
 S -0.933565268750000 -3.18340895937500 -4.22796940625000 
 S -3.93608426875000 -2.41530695937500 -1.54898840625000 
 S -1.49218426875000 -3.09607995937500 -0.104207406250001 
