16

 C -2.28514402500000 -6.40632482187501 -2.46425129375000 
 C -1.14708802500000 -6.94686282187501 -1.72454729375000 
 C -2.58800202500000 -2.72408182187501 -2.57220829375000 
 C -1.35786202500000 -3.02536582187501 -1.91532729375000 
 N -0.132600024999999 -7.21308082187501 -2.51359529375000 
 N -2.14130702500000 -6.34452682187501 -3.79136329375000 
 N -2.96904502500000 -6.35001082187501 8.999270625000122E-002
 N -0.336472024999999 -3.16219082187501 -2.74419529375000 
 N -2.48461902500000 -2.54370982187501 -3.90595929375000 
 N -3.11402302500000 -2.90458282187501 -2.216329374999870E-002
 S -0.569089024999998 -6.91557482187501 -4.08525629375000 
 S -3.69639102500000 -6.02270882187501 -1.35751429375000 
 S -1.33815902500000 -6.78406782187501 1.208706250001246E-003
 S -0.855384024999998 -2.77641582187501 -4.26629829375000 
 S -3.94145102500000 -2.65302382187501 -1.47816329375000 
 S -1.49028102500000 -3.06659782187501 -0.170659293749999 
