16

 C -2.37381302812500 -6.30014645625000 -2.44627424062500 
 C -1.23148902812500 -6.92471645625000 -1.84567324062500 
 C -2.23873802812500 -2.75826945625000 -2.39634124062500 
 C -1.04258102812500 -3.25162945625000 -1.76215324062500 
 N -0.197026028124999 -7.11385745625000 -2.66972324062500 
 N -2.16558802812500 -6.06471845625000 -3.75316724062500 
 N -3.02903502812500 -6.81195645625000 -9.863240625000103E-003
 N -8.054002812499927E-002 -3.49232345625000 -2.62714724062500 
 N -2.23382402812500 -2.66852045625000 -3.72984224062500 
 N -2.69100402812500 -2.94880945625000 0.178807759375000 
 S -0.648527028125000 -6.59454045625000 -4.17971824062500 
 S -3.69318802812500 -6.10574245625000 -1.34344924062500 
 S -1.41174302812500 -7.21543845625000 -8.277124062499985E-002
 S -0.709154028124999 -3.18403845625000 -4.14568124062500 
 S -3.54159702812500 -2.64428845625000 -1.21900124062500 
 S -1.17238002812500 -3.62664345625000 -5.909024062500001E-002
