16

 C -2.65667901875000 -6.32420529062500 -2.59187505000000 
 C -1.45916801875000 -6.79745029062500 -1.96728505000000 
 C -2.72026401875000 -2.63174929062500 -2.52121705000000 
 C -1.58028901875000 -3.18087129062500 -1.78803305000000 
 N -0.369683018749997 -6.94818529062500 -2.71116305000000 
 N -2.45666601875000 -6.10299729062500 -3.88565805000000 
 N -3.18307801875000 -6.67229029062500 -6.206605000000032E-002
 N -0.504546018749997 -3.44074229062500 -2.56308405000000 
 N -2.47547201875000 -2.31744729062500 -3.77754605000000 
 N -3.40336701875000 -2.81826129062500 -4.416105000000048E-002
 S -0.859484018749997 -6.43732029062500 -4.18209405000000 
 S -3.96514001875000 -6.09424129062500 -1.44116305000000 
 S -1.60647701875000 -7.06901429062500 -0.233175050000000 
 S -0.964478018749998 -2.77733929062500 -4.13530705000000 
 S -4.11860601875000 -2.53424629062500 -1.50065605000000 
 S -1.83415801875000 -3.44591329062500 -0.104705050000000 
