16

 C -2.56765100000000 -6.66094199687500 -2.34963117500000 
 C -1.36769100000000 -7.09346099687500 -1.74080317500000 
 C -2.38053300000000 -3.03957299687500 -2.35054617500000 
 C -1.11330200000000 -3.55549199687500 -1.86365717500000 
 N -0.397740000000002 -7.36466099687500 -2.59501317500000 
 N -2.55444400000000 -6.62045699687500 -3.70106617500000 
 N -3.01286800000000 -6.81714399687500 0.189034825000003 
 N -0.171898000000001 -3.65184099687500 -2.79128117500000 
 N -2.39655000000000 -2.83047199687500 -3.69088017500000 
 N -2.73878900000000 -3.30788399687500 0.201256825000003 
 S -0.959665000000001 -7.00831399687500 -4.09114617500000 
 S -3.86825200000000 -6.51272899687500 -1.16139017500000 
 S -1.40247300000000 -7.21626699687500 -2.144517499999754E-002
 S -0.854231000000001 -3.23933499687500 -4.20261617500000 
 S -3.62061400000000 -2.75401499687500 -1.14123017500000 
 S -1.22198700000000 -3.90109199687500 -9.067817499999720E-002
