16

 C -2.47110013750000 -6.65170592812499 -2.47995095312500 
 C -1.21638113750000 -6.83296892812499 -1.83565095312500 
 C -2.32814113750000 -3.16444492812499 -2.20249795312500 
 C -1.12645913750000 -3.68513592812499 -1.52626095312500 
 N -0.239225137499996 -7.01960592812499 -2.72954995312500 
 N -2.43799313750000 -6.58911992812499 -3.82426595312500 
 N -3.05574413750000 -6.61627692812499 8.993404687500095E-002
 N -0.110812137499996 -3.86541192812499 -2.35279795312500 
 N -2.12513713750000 -2.90981892812499 -3.48437195312500 
 N -2.92879013750000 -3.46476992812499 0.282468046875001 
 S -0.870756137499996 -6.85977792812499 -4.31006695312500 
 S -3.87116913750000 -6.43081092812499 -1.39717195312500 
 S -1.40414813750000 -6.82090392812499 -7.888995312499891E-002
 S -0.556123137499996 -3.28557692812499 -3.85580695312500 
 S -3.67586213750000 -3.15939192812499 -1.12947095312500 
 S -1.30134113750000 -3.78928592812499 0.181244046875001 
