16

 C -2.59015483750000 -6.30195304687500 -2.52023855000000 
 C -1.43776083750000 -6.99708104687500 -2.00125355000000 
 C -2.40407083750000 -2.63373504687500 -2.44030155000000 
 C -1.29878183750000 -3.23898804687500 -1.78411655000000 
 N -0.404763837500004 -7.16292004687500 -2.79624555000000 
 N -2.39862983750000 -5.90457704687500 -3.77692855000000 
 N -3.06223483750000 -6.79868304687500 -8.125454999999882E-002
 N -0.252943837500004 -3.31928204687500 -2.64233255000000 
 N -2.36048783750000 -2.50011704687500 -3.76484455000000 
 N -3.02204883750000 -2.71216604687500 9.154045000000122E-002
 S -0.885712837500004 -6.45796804687500 -4.23543655000000 
 S -3.82498083750000 -6.06315204687500 -1.37517655000000 
 S -1.57122483750000 -7.52424704687500 -0.347815549999999 
 S -0.819749837500004 -2.98587304687500 -4.13355355000000 
 S -3.70053783750000 -2.18701904687500 -1.38006455000000 
 S -1.61689083750000 -3.48396204687500 -7.470554999999868E-002
