16

 C -2.57140083750000 -6.45378046562500 -2.32541793750000 
 C -1.32420683750000 -6.92770946562500 -1.70904993750000 
 C -2.42595883750000 -2.89774546562500 -2.18442693750000 
 C -1.15616083750000 -3.30670146562500 -1.63822593750000 
 N -0.312505837500002 -7.07211846562500 -2.54408893750000 
 N -2.43585883750000 -6.27231346562500 -3.63352193750000 
 N -3.06792983750000 -6.80120646562500 0.125885062500001 
 N -0.165196837500001 -3.45567646562500 -2.51342693750000 
 N -2.38256683750000 -2.65983146562500 -3.47795993750000 
 N -2.83708083750000 -2.94547746562500 0.354111062500001 
 S -0.923845837500001 -6.76210346562500 -4.04462193750000 
 S -3.97378583750000 -6.38212046562500 -1.26047493750000 
 S -1.45648683750000 -7.19510146562500 -1.806937499999162E-003
 S -0.795220837500001 -2.99951046562500 -4.03485793750000 
 S -3.68024683750000 -2.48936946562500 -1.02713593750000 
 S -1.27373783750000 -3.46977046562500 0.145896062500001 
