16

 C -2.33258184375000 -6.39752901875000 -2.24287993437500 
 C -1.13527384375000 -6.87696901875000 -1.62197893437500 
 C -2.40784284375000 -2.58179801875000 -2.40781793437500 
 C -1.15443784375000 -3.12447701875000 -1.82976293437500 
 N -0.129848843750000 -6.90805301875000 -2.49380693437500 
 N -2.25318584375000 -6.23217901875000 -3.54168593437500 
 N -2.84245584375000 -6.65447901875000 0.282820065625002 
 N -0.158640843750000 -3.30867801875000 -2.68692393437500 
 N -2.26712184375000 -2.41803801875000 -3.70354693437500 
 N -3.03744284375000 -3.09706201875000 4.981906562500216E-002
 S -0.706895843750000 -6.53905301875000 -4.03910493437500 
 S -3.69425184375000 -6.32006501875000 -1.16363893437500 
 S -1.34974984375000 -7.29788701875000 3.389506562500211E-002
 S -0.726165843750000 -2.74194701875000 -4.13722993437500 
 S -3.76548784375000 -2.45604401875000 -1.33841793437500 
 S -1.36213984375000 -3.50031801875000 -9.819093437499804E-002
