16

 C -2.67604917812499 -6.67084890625000 -2.25035860312500 
 C -1.45721417812499 -6.95121990625000 -1.57239160312500 
 C -2.29407717812499 -2.61358190625000 -2.47719860312500 
 C -1.14890017812499 -3.28173390625000 -1.77069760312500 
 N -0.354336178124993 -6.91267890625000 -2.33554660312500 
 N -2.47468417812499 -6.42134090625000 -3.55001860312500 
 N -3.20794917812499 -6.92053690625000 0.263612396875001 
 N -0.100162178124993 -3.40175790625000 -2.57627860312500 
 N -2.12030017812499 -2.40043290625000 -3.77562260312500 
 N -3.01189817812499 -2.99369190625000 1.665939687500062E-002
 S -0.858311178124993 -6.56976690625000 -3.85125860312500 
 S -4.01138817812499 -6.65032090625000 -1.19706160312500 
 S -1.58852417812499 -7.20705790625000 0.148557396875001 
 S -0.581896178124993 -2.85964190625000 -4.09348560312500 
 S -3.63242617812499 -2.24811290625000 -1.38455860312500 
 S -1.47814617812499 -3.64460790625000 -6.927160312499936E-002
