16

 C -2.42249181875000 -6.71309633437500 -2.38946682500000 
 C -1.09744081875000 -7.03065033437500 -1.94462082500000 
 C -2.47609781875000 -2.89675733437500 -2.44220282500000 
 C -1.40617981875000 -3.49611933437500 -1.77970182500000 
 N -0.197373818749997 -7.06249933437500 -2.92593182500000 
 N -2.52020981875000 -6.50166633437500 -3.68035582500000 
 N -2.65042681875000 -7.17929233437500 4.905417500000175E-002
 N -0.330657818749998 -3.64191733437500 -2.53858682500000 
 N -2.31572381875000 -2.73824333437500 -3.73367282500000 
 N -3.12760681875000 -3.12018833437500 -4.373382499999812E-002
 S -1.00352881875000 -6.72283033437500 -4.33567382500000 
 S -3.66389281875000 -6.73364233437500 -1.22057982500000 
 S -1.05440581875000 -7.35111733437500 -0.257498824999998 
 S -0.759932818749998 -3.18447333437500 -4.05799482500000 
 S -3.84675381875000 -2.62221433437500 -1.47660282500000 
 S -1.62557981875000 -3.73707533437500 -9.969782499999846E-002
