16

 C -2.13060426874999 -6.23584706250000 -2.20073880625000 
 C -0.961158268749993 -6.79371606250000 -1.50112280625000 
 C -2.46934926874999 -2.65612406250000 -2.63388180625000 
 C -1.20470626874999 -3.07786606250000 -2.05765480625000 
 N -1.361626874999367E-002 -7.11322906250000 -2.37321780625000 
 N -2.05673226874999 -5.99526906250000 -3.49383580625000 
 N -2.95534926874999 -6.51058306250000 0.252255193749998 
 N -0.156096268749994 -3.16608306250000 -2.89572780625000 
 N -2.41440026874999 -2.48535806250000 -3.96695480625000 
 N -2.98058526874999 -3.10104406250000 -0.157806806250002 
 S -0.527161268749993 -6.59160306250000 -3.87392480625000 
 S -3.55297826874999 -6.04467506250000 -1.19723980625000 
 S -1.37412026874999 -7.14108506250000 0.180275193749998 
 S -0.877687268749993 -2.87215506250000 -4.37115480625000 
 S -3.78481026874999 -2.46411206250000 -1.49928580625000 
 S -1.34223626874999 -3.31629606250000 -0.297330806250002 
