16

 C -2.39978952500000 -6.28856558437500 -2.36677201875000 
 C -1.27304052500000 -6.85315158437500 -1.65775201875000 
 C -2.40802352500000 -2.32000058437500 -2.48316301875000 
 C -1.24583552500000 -2.88747758437500 -1.84384301875000 
 N -0.195867525000002 -7.14376658437500 -2.42151301875000 
 N -2.19788052500000 -6.11144458437500 -3.69180601875000 
 N -3.14143252500000 -6.58439658437500 9.490098124999813E-002
 N -0.237380525000003 -3.21053858437500 -2.64927101875000 
 N -2.22269052500000 -2.13650158437500 -3.74359801875000 
 N -2.97807652500000 -2.37063558437500 -3.512018750001733E-003
 S -0.631914525000003 -6.57842258437500 -3.94635601875000 
 S -3.78044152500000 -5.95072358437500 -1.26278201875000 
 S -1.59786152500000 -7.22722258437500 -2.631101875000175E-002
 S -0.777490525000003 -2.73454358437500 -4.23730301875000 
 S -3.70801152500000 -1.87925558437500 -1.42878301875000 
 S -1.43824652500000 -2.98263158437500 -9.035701875000157E-002
