16

 C -2.50603264375000 -6.41584718437501 -2.54475635625000 
 C -1.32729764375000 -6.77287018437501 -1.80571835625000 
 C -2.40682064375000 -2.86154418437501 -2.43349835625000 
 C -1.23040464375000 -3.21946718437501 -1.70080035625000 
 N -0.192474643750002 -7.05889618437501 -2.46600235625000 
 N -2.26582364375000 -6.46864818437501 -3.86026635625000 
 N -3.27743964375000 -6.26536118437501 -6.048035625000003E-002
 N -0.174138643750002 -3.32844718437501 -2.48850235625000 
 N -2.28108064375000 -2.69654518437501 -3.75969935625000 
 N -2.97154364375000 -2.93254818437501 0.121740643750000 
 S -0.656411643750001 -6.83074318437501 -4.07066035625000 
 S -3.90749264375000 -6.02129718437501 -1.62918835625000 
 S -1.70579364375000 -6.71227218437501 -2.182435625000001E-002
 S -0.684971643750002 -3.16008118437501 -4.01811035625000 
 S -3.71381264375000 -2.46799118437501 -1.30410235625000 
 S -1.45920164375000 -3.49519718437501 -2.393235625000001E-002
