16

 C -2.46372890625000 -6.82257146250000 -2.37326258125000 
 C -1.13366090625000 -7.00520146250000 -1.89047558125000 
 C -2.39432590625000 -2.69967046250000 -2.44011358125000 
 C -1.33379490625000 -3.29046246250000 -1.74722658125000 
 N -0.153376906249999 -6.97211346250000 -2.81522958125000 
 N -2.44496790625000 -6.66543346250000 -3.69589958125000 
 N -2.73303190625000 -7.02128046250000 0.178565418750001 
 N -0.256674906250000 -3.56079046250000 -2.48308858125000 
 N -2.21335190625000 -2.43256346250000 -3.74026958125000 
 N -3.26653390625000 -3.00275546250000 3.116341875000073E-002
 S -0.909340906250000 -6.69541546250000 -4.24740658125000 
 S -3.68701990625000 -6.78106846250000 -1.12914558125000 
 S -1.08551090625000 -7.00990346250000 -0.134358581249999 
 S -0.759627906250000 -3.07462746250000 -4.01479158125000 
 S -3.86406490625000 -2.51586946250000 -1.42280358125000 
 S -1.65067290625000 -3.44282046250000 -1.215258124999941E-002
