16

 C -2.40246379687501 -6.51564934375001 -2.45758033750000 
 C -1.17399179687501 -6.80323434375001 -1.79367433750000 
 C -2.64287879687501 -2.63781634375001 -2.39151533750000 
 C -1.46175879687501 -3.14795334375001 -1.78869533750000 
 N -0.154860796875006 -6.98783934375001 -2.63134933750000 
 N -2.34782179687501 -6.54443434375001 -3.81228433750000 
 N -2.85478379687501 -6.62315334375001 9.547866249999748E-002
 N -0.445947796875006 -3.44222534375001 -2.60591033750000 
 N -2.54873279687501 -2.45499334375001 -3.69349033750000 
 N -3.19565679687501 -2.78959534375001 0.154413662499997 
 S -0.758913796875006 -6.86503934375001 -4.15782033750000 
 S -3.69838779687501 -6.30646934375001 -1.22483333750000 
 S -1.29065879687501 -7.11996534375001 -9.194233750000258E-002
 S -0.930888796875006 -2.96973034375001 -4.11172733750000 
 S -3.93924079687501 -2.29091334375001 -1.22515633750000 
 S -1.70313679687501 -3.49919934375001 -8.802333750000235E-002
