16

 C -2.33135091562500 -6.52556938750000 -2.54305635000000 
 C -1.08923991562500 -6.84117138750000 -1.89392535000000 
 C -2.52797091562500 -2.48762738750000 -2.63758135000000 
 C -1.46282391562500 -3.05114838750000 -1.81896635000000 
 N 2.237408437499688E-002 -6.95637138750000 -2.65516335000000 
 N -2.13184991562500 -6.22393838750000 -3.84175335000000 
 N -2.90350791562500 -6.53107538750000 2.354064999999950E-002
 N -0.382464915625003 -3.35506738750000 -2.52925335000000 
 N -2.27841191562500 -2.30472238750000 -3.94237735000000 
 N -3.44836491562500 -2.84626038750000 -0.244956350000001 
 S -0.564596915625003 -6.54828438750000 -4.21014735000000 
 S -3.73024291562500 -6.29802638750000 -1.50798035000000 
 S -1.28721391562500 -6.80848138750000 -7.690635000000046E-002
 S -0.637667915625003 -2.72794438750000 -4.08430735000000 
 S -3.93621991562500 -2.29231938750000 -1.72433435000000 
 S -1.85091091562500 -3.25353538750000 -0.186429350000000 
