16

 C -2.69188892187500 -6.66513004062500 -2.37720396250000 
 C -1.44353192187500 -7.16216904062500 -1.74732596250000 
 C -2.22988792187500 -2.98261104062500 -2.27736196250000 
 C -1.02977592187500 -3.38807704062500 -1.58110596250000 
 N -0.454721921874998 -7.31388804062500 -2.63366196250000 
 N -2.61513892187500 -6.57197004062500 -3.72074896250000 
 N -3.09404292187500 -6.88428504062500 0.205068037499998 
 N 1.135207812500205E-002 -3.58058804062500 -2.40779196250000 
 N -2.14584392187500 -2.94733004062500 -3.60795896250000 
 N -2.86567092187500 -3.28399304062500 0.245542037499998 
 S -1.04809492187500 -7.02334004062500 -4.15347996250000 
 S -4.02541692187500 -6.45172104062500 -1.13221996250000 
 S -1.49925692187500 -7.24434204062500 -3.763496250000142E-002
 S -0.533476921874997 -3.25625204062500 -3.94036296250000 
 S -3.55095092187500 -2.71994104062500 -1.19619496250000 
 S -1.30583792187500 -3.79176604062500 8.747603749999833E-002
