16

 C -2.38198794375000 -6.31006257500000 -2.26954092500000 
 C -1.19655794375000 -6.75332857500000 -1.63657892500000 
 C -2.50925494375000 -2.75359357500000 -2.83028192500000 
 C -1.18742294375000 -2.89350357500000 -2.21927492500000 
 N -0.172182943749996 -6.70921157500000 -2.47342992500000 
 N -2.31603694375000 -6.01068757500000 -3.54573892500000 
 N -2.83888494375000 -6.55952957500000 0.231005075000000 
 N -0.163058943749996 -2.85325057500000 -3.09798492500000 
 N -2.39756294375000 -2.63987257500000 -4.17709292500000 
 N -2.89608294375000 -3.12644557500000 -0.309915925000001 
 S -0.711440943749996 -6.25396957500000 -3.99322392500000 
 S -3.71903494375000 -6.17505157500000 -1.14517892500000 
 S -1.33361794375000 -7.19387257500000 -2.368892500000053E-002
 S -0.798550943749996 -2.58204457500000 -4.58459692500000 
 S -3.83114494375000 -2.94501357500000 -1.71538992500000 
 S -1.23765594375000 -3.10489257500000 -0.446043925000000 
