16

 C -2.40381336875000 -6.54746497187499 -2.37432401250000 
 C -1.21744336875000 -7.15011597187499 -1.86236001250000 
 C -2.70373136875000 -2.78400697187499 -2.61579301250000 
 C -1.59817936875000 -3.36173897187499 -1.85611901250000 
 N -0.200131368749997 -7.34394097187499 -2.68715801250000 
 N -2.30275236875000 -6.28012697187499 -3.70237301250000 
 N -2.90809136875000 -6.97501497187499 0.156850987500000 
 N -0.468959368749997 -3.54453397187500 -2.56582501250000 
 N -2.40226336875000 -2.57239497187499 -3.91089101250000 
 N -3.42315436875000 -2.92250797187500 -6.109101249999993E-002
 S -0.781445368749996 -6.81840197187499 -4.19921401250000 
 S -3.67961736875000 -6.45651197187499 -1.20292901250000 
 S -1.45804436875000 -7.61780897187499 -0.175360012500000 
 S -0.911162368749997 -3.18057797187500 -4.16982101250000 
 S -4.11295836875000 -2.55232697187499 -1.57484201250000 
 S -1.84636836875000 -3.44399597187499 -9.416701250000004E-002
