16

 C -2.61060059687501 -6.67285655312500 -2.38191955937500 
 C -1.41503759687501 -7.07273055312500 -1.73817255937500 
 C -2.50634959687501 -2.90324855312500 -2.36083455937500 
 C -1.25258859687501 -3.37485055312500 -1.82134955937500 
 N -0.382559596875006 -7.26828455312500 -2.53887455937500 
 N -2.45266859687501 -6.53780755312500 -3.67811155937500 
 N -3.11405459687501 -6.84696655312500 0.136688440625000 
 N -0.315728596875006 -3.64681755312500 -2.79254555937500 
 N -2.44892359687501 -2.61826055312500 -3.67103055937500 
 N -2.89347059687501 -3.26386655312500 0.166663440625000 
 S -0.812873596875006 -6.80649155312500 -4.02626755937500 
 S -3.91297659687501 -6.55604355312500 -1.25354255937500 
 S -1.50024759687501 -7.29198455312500 -1.004855937499993E-002
 S -0.926447596875006 -3.15630355312500 -4.17829355937500 
 S -3.76332459687501 -2.66783555312500 -1.14287055937500 
 S -1.30812359687501 -3.53559355312500 -5.679455937500011E-002
