16

 C -2.65867697499999 -6.32404708125000 -2.59105481250000 
 C -1.44711297499999 -6.77863208125000 -1.94764381250000 
 C -2.72776297499999 -2.64033008125000 -2.51151181250000 
 C -1.58428197499999 -3.18350508125000 -1.80631981250000 
 N -0.387768974999994 -6.95527108125000 -2.72021481250000 
 N -2.46354597499999 -6.11330008125000 -3.87697681250000 
 N -3.19211697499999 -6.68142408125000 -6.981781249999885E-002
 N -0.485746974999994 -3.43973508125000 -2.59012081250000 
 N -2.49537797499999 -2.31398208125000 -3.77064581250000 
 N -3.39317197499999 -2.83094708125000 -4.886781249999883E-002
 S -0.849523974999994 -6.43023408125000 -4.18135181250000 
 S -3.97014397499999 -6.11030008125000 -1.43489181250000 
 S -1.60039897499999 -7.04665308125000 -0.240754812499999 
 S -0.978774974999994 -2.77292608125000 -4.14149281250000 
 S -4.11881797499999 -2.53214908125000 -1.51087081250000 
 S -1.82266897499999 -3.44406008125000 -0.102116812499999 
