16

 C -2.46552279375000 -6.58950035000000 -2.39258588750000 
 C -1.22814879375000 -6.94472535000000 -1.80080888750000 
 C -2.16457279375000 -3.25645435000000 -2.25454888750000 
 C -0.939248793750002 -3.59084735000000 -1.54253788750000 
 N -0.213957793750001 -7.19201135000000 -2.62803888750000 
 N -2.42420579375000 -6.52811635000000 -3.72015188750000 
 N -2.81048979375000 -6.68694235000000 0.196679112500000 
 N 3.381820624999854E-002 -3.90942035000000 -2.35901888750000 
 N -2.05478379375000 -3.13851335000000 -3.53595888750000 
 N -2.74148179375000 -3.24762835000000 0.210697112500000 
 S -0.886047793750001 -7.01518335000000 -4.15320288750000 
 S -3.70218479375000 -6.39300335000000 -1.16457488750000 
 S -1.19386179375000 -6.96785135000000 -4.597388749999975E-002
 S -0.524440793750001 -3.58701235000000 -3.97652388750000 
 S -3.54968479375000 -3.09529735000000 -1.21663088750000 
 S -1.13268879375000 -3.66509735000000 0.152560112500000 
