16

 C -2.25676964375000 -6.68317747187500 -2.22022522187500 
 C -0.976796643750001 -7.06381747187500 -1.63683022187500 
 C -2.51661764375000 -2.63282347187500 -2.49759922187500 
 C -1.18019964375000 -2.87753147187500 -1.82269322187500 
 N 6.663735624999845E-002 -7.03406047187500 -2.46324022187500 
 N -2.11751864375000 -6.43599947187500 -3.50846922187500 
 N -2.70961864375000 -6.73286047187500 0.252988778125002 
 N -0.164111643750002 -3.03380947187500 -2.68333122187500 
 N -2.43080664375000 -2.58697047187500 -3.84014122187500 
 N -2.96874564375000 -2.80841947187500 5.948177812500144E-002
 S -0.531441643750002 -6.54048447187500 -3.91988722187500 
 S -3.56441564375000 -6.50953347187500 -1.14449222187500 
 S -1.14674864375000 -7.32172447187500 0.108359778125001 
 S -0.876539643750001 -2.85346647187500 -4.19508222187500 
 S -3.83056864375000 -2.47511147187500 -1.34431422187500 
 S -1.35219564375000 -3.12257647187500 -0.143730221874999 
