16

 C -2.35280881875001 -6.40018720312500 -2.51358481875000 
 C -1.14722381875001 -6.73280520312500 -1.80402981875000 
 C -2.29621781875001 -2.89326720312500 -2.45197781875000 
 C -1.01231781875001 -3.23690420312500 -1.87406881875000 
 N -0.127455818750006 -6.94134920312500 -2.60556481875000 
 N -2.25395181875001 -6.27829920312500 -3.81780881875000 
 N -2.86146081875001 -6.43237220312500 2.211018125000019E-002
 N 3.139181249993683E-003 -3.33056420312500 -2.74393981875000 
 N -2.30717181875001 -2.87954520312500 -3.78952981875000 
 N -2.69218581875001 -2.93472520312500 0.130820181250000 
 S -0.683209818750006 -6.70882220312500 -4.11480981875000 
 S -3.67841481875001 -6.18060620312500 -1.41866881875000 
 S -1.27619681875001 -6.81726820312500 -0.127915818750000 
 S -0.753508818750007 -3.14971620312500 -4.21192881875000 
 S -3.59056681875001 -2.72661020312500 -1.29874481875000 
 S -1.12782881875001 -3.44223620312500 -8.244381875000006E-002
