16

 C -2.46762346250001 -6.37122252187500 -2.58221387187500 
 C -1.30400046250001 -6.72002852187500 -1.82135187187500 
 C -2.44644946250001 -2.88691652187500 -2.54382787187500 
 C -1.17253446250001 -3.09812052187500 -1.87638587187500 
 N -0.207089462500007 -6.76922652187500 -2.58953187187500 
 N -2.36166646250001 -6.18307752187500 -3.89737987187500 
 N -3.03232546250001 -6.49790852187500 -6.468387187499736E-002
 N -8.826446250000686E-002 -3.29478752187500 -2.65802887187500 
 N -2.33685146250001 -2.89474552187500 -3.90121687187500 
 N -2.96335246250001 -2.73586652187500 -4.500587187499727E-002
 S -0.725753462500007 -6.50742052187500 -4.13544387187500 
 S -3.81764946250001 -6.18677852187500 -1.53217587187500 
 S -1.44867246250001 -6.76197352187500 -0.155261871874997 
 S -0.748355462500007 -3.11744452187500 -4.20729687187500 
 S -3.69955546250001 -2.55461252187500 -1.46898587187500 
 S -1.37283846250001 -3.14503652187500 -0.131976871874997 
