16

 C -2.19860562187500 -6.43624458749999 -2.13574556562500 
 C -1.04403862187500 -6.94612158749999 -1.48256856562500 
 C -2.41419162187500 -2.66534658749999 -2.28485056562500 
 C -1.17901662187500 -3.31229658749999 -1.73373056562500 
 N -5.801262187500278E-002 -7.23650058749999 -2.33181756562500 
 N -2.05981562187500 -6.22153558749999 -3.43981356562500 
 N -2.93967562187500 -6.74136458749999 0.292694434375001 
 N -0.174328621875003 -3.29991658749999 -2.59150256562500 
 N -2.25695962187500 -2.32114258749999 -3.55756356562500 
 N -2.95381862187500 -3.12296158749999 0.163258434375001 
 S -0.590032621875003 -6.78667258749999 -3.84293156562500 
 S -3.60377162187500 -6.37077458749999 -1.15062056562500 
 S -1.35747962187500 -7.23956658749999 0.176822434375001 
 S -0.723827621875003 -2.74919758749999 -4.02697556562500 
 S -3.72539862187500 -2.64371158749999 -1.19332756562500 
 S -1.38202362187500 -3.64649458749999 -6.872156562499865E-002
