16

 C -2.49428428437500 -6.39867926875000 -2.27926058125000 
 C -1.23037328437500 -6.70216826875000 -1.66737958125000 
 C -2.42272128437500 -2.67385526875000 -2.88880058125000 
 C -1.16612528437500 -2.82203926875000 -2.23226958125000 
 N -0.218217284375003 -6.72253426875000 -2.51500458125000 
 N -2.36717628437500 -6.12936226875000 -3.56503858125000 
 N -2.98144028437500 -6.86716926875000 0.171221418749998 
 N -0.136547284375003 -2.74998026875000 -3.06544958125000 
 N -2.37514928437500 -2.52271526875000 -4.18756558125000 
 N -2.97689628437500 -3.05853826875000 -0.408503581250002 
 S -0.775893284375003 -6.27931126875000 -4.03412958125000 
 S -3.77634228437500 -6.21139226875000 -1.16294558125000 
 S -1.35645028437500 -7.03358726875000 1.388941874999805E-002
 S -0.799415284375003 -2.63023326875000 -4.55365858125000 
 S -3.82838128437500 -2.73298526875000 -1.79189558125000 
 S -1.37493728437500 -3.03398126875000 -0.546352581250002 
