16

 C -2.42031581249999 -6.71716736250000 -2.38889760937500 
 C -1.09864181249999 -7.03041636250000 -1.94257260937500 
 C -2.48676081249999 -2.89620236250000 -2.44080860937500 
 C -1.40250681249999 -3.49089736250000 -1.77761760937500 
 N -0.199501812499995 -7.06752036250000 -2.92262660937500 
 N -2.52512381249999 -6.50768136250000 -3.68107560937500 
 N -2.64389081249999 -7.17481236250000 5.302039062500019E-002
 N -0.331652812499994 -3.63538836250000 -2.54638860937500 
 N -2.32130381249999 -2.74000836250000 -3.73913860937500 
 N -3.12828281249999 -3.12136036250000 -4.187660937499960E-002
 S -1.00434881249999 -6.72561536250000 -4.33930360937500 
 S -3.66889181249999 -6.73388936250000 -1.21598760937500 
 S -1.05082881249999 -7.35233136250000 -0.256069609375000 
 S -0.758546812499994 -3.18254036250000 -4.05645360937500 
 S -3.85201281249999 -2.61787636250000 -1.47458760937500 
 S -1.62491681249999 -3.73985936250000 -9.731160937499972E-002
