16

 C -2.50858356250001 -6.24292480937500 -2.48810067812500 
 C -1.38859656250001 -6.88135580937500 -1.89653967812500 
 C -2.49287956250001 -2.62216480937500 -2.20578667812500 
 C -1.30914656250001 -3.32020380937500 -1.61608867812500 
 N -0.388846562500007 -7.11436780937500 -2.74018067812500 
 N -2.38038056250001 -6.03290480937500 -3.81158067812500 
 N -3.08212756250001 -6.64219180937500 5.743732187499928E-002
 N -0.398226562500008 -3.65701380937500 -2.54188567812500 
 N -2.35654956250001 -2.29066580937500 -3.50753967812500 
 N -2.94276056250001 -2.74554380937500 0.352889321874999 
 S -0.892814562500008 -6.68966680937500 -4.23881567812500 
 S -3.78647956250001 -5.98992680937500 -1.28735067812500 
 S -1.56495656250001 -7.25854380937500 -0.179236678125001 
 S -0.895312562500008 -2.95245180937500 -3.94105867812500 
 S -3.74434156250001 -2.37502380937500 -1.06231367812500 
 S -1.45987456250001 -3.52526180937500 0.107128321874999 
