16

 C -2.31960868437500 -6.35914712812500 -2.50383633750000 
 C -1.20340868437500 -6.79122912812500 -1.74099033750000 
 C -2.64738368437500 -2.53168112812500 -2.44704633750000 
 C -1.41455568437500 -2.75145012812500 -1.76029433750000 
 N -0.110558684375001 -7.03841412812500 -2.47097233750000 
 N -2.10075868437500 -6.22941912812500 -3.80673333750000 
 N -3.11420968437500 -6.49068912812500 -6.626533749999863E-002
 N -0.377239684375001 -2.88007812812500 -2.53357733750000 
 N -2.52839168437500 -2.35291912812500 -3.71785033750000 
 N -3.23393368437500 -2.77832512812500 2.031466250000147E-002
 S -0.521238684375001 -6.64305512812500 -4.04242933750000 
 S -3.76824968437500 -6.16305612812500 -1.59494633750000 
 S -1.56033968437500 -7.04307912812500 -1.504733749999865E-002
 S -0.961405684375001 -2.61853412812500 -4.12340233750000 
 S -4.02014168437500 -2.40641712812500 -1.38273733750000 
 S -1.58524068437500 -2.98443612812500 -0.104532337499998 
