16

 C -2.52922059062501 -6.63138715937500 -2.31060765937500 
 C -1.25778359062501 -6.80314915937500 -1.65780365937500 
 C -2.38686459062501 -2.61706515937500 -2.44664065937500 
 C -1.21795559062501 -3.23297015937500 -1.74062565937500 
 N -0.265152590625005 -6.82153715937500 -2.56442765937500 
 N -2.47251959062501 -6.57902315937500 -3.65182665937500 
 N -3.03554259062501 -6.86605515937500 0.195187340625003 
 N -0.138893590625005 -3.49893315937500 -2.47839865937500 
 N -2.14379259062501 -2.50128515937500 -3.74230665937500 
 N -3.19482059062501 -3.08870815937500 -4.769659374996849E-003
 S -0.926378590625005 -6.76424515937500 -4.05980765937500 
 S -3.87402259062501 -6.77529115937500 -1.23027065937500 
 S -1.41476159062501 -7.12713215937500 1.215340625003059E-003
 S -0.612999590625005 -2.96921815937500 -3.98794165937500 
 S -3.75614959062501 -2.35907815937500 -1.40172765937500 
 S -1.60117259062501 -3.56575215937500 -6.779765937499693E-002
