16

 C -2.22762310937499 -6.81950776875000 -2.44384779687500 
 C -1.12122810937499 -7.43092876875000 -1.76702079687500 
 C -2.55502710937499 -2.62214076875000 -2.56025279687500 
 C -1.35486410937499 -3.02029576875000 -1.86962979687500 
 N -0.154483109374987 -7.77706576875000 -2.62407479687500 
 N -2.08802710937499 -6.62298476875000 -3.72169979687500 
 N -2.71434610937499 -6.88539176875000 6.724020312499790E-002
 N -0.323392109374987 -3.35510476875000 -2.62689779687500 
 N -2.47187310937499 -2.78701676875000 -3.87470979687500 
 N -3.32037910937499 -2.85862376875000 -0.125340796875002 
 S -0.641762109374987 -7.27341876875000 -4.07839879687500 
 S -3.54131910937499 -6.37096476875000 -1.33787779687500 
 S -1.18751610937499 -7.58831876875000 -0.126145796875002 
 S -0.860080109374986 -3.17844476875000 -4.18288079687500 
 S -3.92740110937499 -2.40244376875000 -1.58641179687500 
 S -1.66665210937499 -3.06956376875000 -0.148470796875002 
