16

 C -2.22827484062500 -6.39370162812500 -2.39082128125000 
 C -0.953249840624997 -6.75929562812500 -1.79413528125000 
 C -2.49963084062500 -2.64095862812500 -2.40731128125000 
 C -1.32560884062500 -2.97595762812500 -1.70196028125000 
 N 8.510415937500326E-002 -6.73602562812500 -2.62625228125000 
 N -2.12221284062500 -6.28247362812500 -3.70488928125000 
 N -2.65867884062500 -6.82772862812500 0.116365718750001 
 N -0.301349840624997 -3.21987862812500 -2.52298228125000 
 N -2.44360284062500 -2.60752262812500 -3.75715128125000 
 N -3.16013184062500 -2.98622062812500 0.108109718750001 
 S -0.555129840624997 -6.51004462812500 -4.14217028125000 
 S -3.49657184062500 -6.33093062812500 -1.23684628125000 
 S -1.01498584062500 -7.07215962812500 -5.594428124999884E-002
 S -0.872008840624997 -2.97482062812500 -4.06336128125000 
 S -3.90976284062500 -2.52680662812500 -1.30472928125000 
 S -1.54590384062500 -3.36751062812500 1.821671875000108E-002
