16

 C -2.37919100312500 -6.62798078750001 -2.25458891875000 
 C -1.11456900312500 -6.77394578750001 -1.55801991875000 
 C -2.31537500312500 -2.69116878750001 -2.51732591875000 
 C -1.07259800312500 -3.20683378750001 -2.00202191875000 
 N -0.100974003125000 -6.73904678750001 -2.43327891875000 
 N -2.32536100312500 -6.56107578750001 -3.58912891875000 
 N -3.02869700312500 -6.94430578750001 0.280033081250000 
 N -0.104219003124999 -3.41766778750001 -2.91541591875000 
 N -2.36205600312500 -2.64553178750001 -3.85790391875000 
 N -2.69262900312500 -2.89872978750001 -4.139187499998531E-004
 S -0.753296003125000 -6.61770678750001 -3.96741091875000 
 S -3.80572000312500 -6.68030878750001 -1.19866391875000 
 S -1.33845900312500 -7.06055478750001 0.173853081250000 
 S -0.811274003125000 -3.04687078750001 -4.38899791875000 
 S -3.57207500312500 -2.41585078750001 -1.33280791875000 
 S -1.17889700312500 -3.45014478750001 -0.223874918750000 
