16

 C -2.28642200624999 -6.26472512812500 -2.38630618437500 
 C -1.05158700624999 -6.78473512812500 -1.72776018437500 
 C -2.59087000624999 -2.58960212812500 -2.58835718437500 
 C -1.43998700624999 -3.13020512812500 -1.89355318437500 
 N -0.119144006249995 -6.95769612812500 -2.61512418437500 
 N -2.30079800624999 -6.16392312812500 -3.70436818437500 
 N -2.81712700624999 -6.63855212812500 0.157973815625001 
 N -0.379710006249995 -3.48603912812500 -2.67327218437500 
 N -2.47027300624999 -2.49330512812500 -3.92201718437500 
 N -3.24055000624999 -2.69518212812500 -8.827518437499871E-002
 S -0.736369006249994 -6.58679912812500 -4.12523218437500 
 S -3.56250900624999 -5.93939712812500 -1.21341718437500 
 S -1.22821800624999 -7.08199312812500 -5.933218437499854E-002
 S -0.951132006249995 -3.10719112812500 -4.17535018437500 
 S -3.91807500624999 -2.15383712812500 -1.50724818437500 
 S -1.61555100624999 -3.13952112812500 -0.167887184374998 
