16

 C -2.51246494687500 -6.77319122187501 -2.39749592187500 
 C -1.19990094687500 -6.96789822187501 -1.80220692187500 
 C -2.47441494687500 -2.67428122187501 -2.41580292187500 
 C -1.28874294687500 -3.23730222187501 -1.67838592187500 
 N -0.225544946874999 -6.91619522187501 -2.68366092187500 
 N -2.49269694687500 -6.64992622187501 -3.72605492187500 
 N -2.77674194687500 -6.96902722187501 0.179036078125002 
 N -0.268920946874999 -3.52198222187501 -2.49516292187500 
 N -2.19188694687500 -2.40496522187501 -3.67935992187500 
 N -3.21825094687500 -3.03778222187501 1.329007812500183E-002
 S -0.879003946875000 -6.72961922187501 -4.20500392187500 
 S -3.78603194687500 -6.78455522187501 -1.17133792187500 
 S -1.14796894687500 -7.03358922187501 -0.101795921874998 
 S -0.686869946874999 -3.07040722187501 -4.04211892187500 
 S -3.83380894687500 -2.47302022187501 -1.47289692187500 
 S -1.63315094687500 -3.49614422187501 1.272307812500184E-002
