16

 C -2.63727295312500 -6.38615931250000 -2.31260290312500 
 C -1.46223195312500 -6.92123131250000 -1.64338490312500 
 C -2.47513095312500 -2.74847131250000 -2.41676390312500 
 C -1.21933195312500 -3.12826731250000 -1.86011990312500 
 N -0.449461953125001 -7.21139631250000 -2.45584290312500 
 N -2.55694195312500 -6.30249431250000 -3.63085790312500 
 N -3.17219795312500 -6.45988731250000 0.190746096875001 
 N -0.287467953125002 -3.47756431250000 -2.73527690312500 
 N -2.45976695312500 -2.63447431250000 -3.73378890312500 
 N -2.90021895312500 -2.92936331250000 0.151018096875001 
 S -1.01735495312500 -6.89114131250000 -3.98655190312500 
 S -4.01352495312500 -6.17226331250000 -1.23981890312500 
 S -1.59535595312500 -6.97432431250000 3.805709687500070E-002
 S -0.941114953125002 -3.15189731250000 -4.23066190312500 
 S -3.75141895312500 -2.62365231250000 -1.28220090312500 
 S -1.31081595312500 -3.33339831250000 -0.129544903124999 
