16

 C -2.65431301250000 -6.54997987500000 -2.42307557812500 
 C -1.48074601250000 -7.01881387500000 -1.76391957812500 
 C -2.14498901250000 -2.89770687500000 -2.37564057812500 
 C -1.00687801250000 -3.49666887500000 -1.69442957812500 
 N -0.415805012500001 -7.25438987500000 -2.55450257812500 
 N -2.43986301250000 -6.36356887500000 -3.73147357812500 
 N -3.25930701250000 -6.72114887500000 0.130987421875002 
 N 2.432798749999865E-002 -3.69381287500000 -2.48485257812500 
 N -1.86996101250000 -2.54608787500000 -3.62319557812500 
 N -2.91255001250000 -3.32251687500000 -1.721557812499808E-002
 S -0.894524012500002 -6.84165787500000 -4.13457357812500 
 S -3.91321901250000 -6.21006587500000 -1.31137457812500 
 S -1.62726401250000 -7.16046187500000 1.615642187500188E-002
 S -0.324604012500001 -3.02736287500000 -4.00004557812500 
 S -3.58029101250000 -2.82022687500000 -1.39834057812500 
 S -1.32984701250000 -3.80673687500000 -7.452757812499788E-002
