16

 C -2.48748460625000 -6.56491649375000 -2.20006434375000 
 C -1.21679360625000 -7.04365749375000 -1.66546634375000 
 C -2.50754060625000 -2.84971349375000 -2.45150334375000 
 C -1.34273060625000 -3.38891249375000 -1.76793934375000 
 N -0.322583606249997 -7.14647149375000 -2.61742034375000 
 N -2.48569560625000 -6.28135149375000 -3.51599434375000 
 N -2.82099560625000 -7.08499149375000 0.356541656250000 
 N -0.302045606249997 -3.51255049375000 -2.57104034375000 
 N -2.30065160625000 -2.67067449375000 -3.73239534375000 
 N -3.21921260625000 -3.13118749375000 -1.893234374999997E-002
 S -0.933521606249997 -6.55005749375000 -4.03917634375000 
 S -3.62426860625000 -6.37429649375000 -0.880293343750000 
 S -1.28779860625000 -7.43365349375000 3.129365624999991E-002
 S -0.772983606249996 -3.17782649375000 -4.15614534375000 
 S -3.77679460625000 -2.30040749375000 -1.38778034375000 
 S -1.64138760625000 -3.59795549375000 -8.779034375000005E-002
