16

 C -2.50091031875000 -6.15578663125000 -2.43963500312500 
 C -1.27620231875000 -6.61513163125000 -1.86082700312500 
 C -2.41617331875000 -3.05469263125000 -2.58637800312500 
 C -1.19088431875000 -3.30548063125000 -1.85359900312500 
 N -0.304258318750000 -6.83605563125000 -2.74598000312500 
 N -2.52510331875000 -6.11407663125000 -3.75483800312500 
 N -2.94273031875000 -6.33531563125000 5.579799687499865E-002
 N -0.114555318750000 -3.59214563125000 -2.59057800312500 
 N -2.26166831875000 -3.00852963125000 -3.90445300312500 
 N -3.04899631875000 -2.86404163125000 -7.076200312500136E-002
 S -0.942093318750000 -6.46693563125000 -4.23206100312500 
 S -3.83471331875000 -5.90463863125000 -1.28156200312500 
 S -1.33329631875000 -6.79896663125000 -0.153334003125001 
 S -0.641999318750000 -3.31129663125000 -4.21587600312500 
 S -3.82609231875000 -2.81089263125000 -1.53028600312500 
 S -1.38936231875000 -3.21951463125000 -4.187300312500142E-002
