16

 C -2.43324410625001 -6.42166008437500 -2.47922311875000 
 C -1.21923410625001 -6.84456408437500 -1.83181411875000 
 C -2.48226810625001 -2.48769008437500 -2.18404211875000 
 C -1.23669810625001 -2.97935808437500 -1.58478511875000 
 N -0.162480106250006 -7.01890008437500 -2.62815111875000 
 N -2.22228310625001 -6.20921308437500 -3.78079311875000 
 N -3.00907110625001 -6.57874708437500 6.723988124999725E-002
 N -0.256408106250006 -3.10866508437500 -2.48870711875000 
 N -2.50315110625001 -2.41605908437500 -3.54086211875000 
 N -2.94375610625001 -2.92396208437500 0.358292881249997 
 S -0.674654106250006 -6.63850708437500 -4.17326611875000 
 S -3.72698410625001 -6.09604008437500 -1.35118411875000 
 S -1.41064710625001 -7.08707108437500 -7.070911875000263E-002
 S -0.968918106250006 -2.83219808437500 -3.95613611875000 
 S -3.75938210625001 -2.36308908437500 -0.954248118750002 
 S -1.35108910625001 -3.38920908437500 0.114960881249997 
