16

 C -2.39865625000000 -6.45160720937501 -2.26256339062500 
 C -1.11310125000000 -6.84622020937501 -1.68442039062500 
 C -2.33178925000000 -2.56290320937501 -2.37651139062500 
 C -1.19551725000000 -3.14636220937501 -1.77117439062500 
 N -6.504625000000086E-002 -6.95735720937501 -2.50820739062500 
 N -2.27543025000000 -6.24996120937501 -3.57481839062500 
 N -2.86904625000000 -6.60937420937501 0.206862609375001 
 N -0.175905250000001 -3.40601820937501 -2.61047039062500 
 N -2.29791725000000 -2.37758920937501 -3.70977839062500 
 N -2.99898825000000 -3.07609920937501 6.464460937500105E-002
 S -0.705316250000001 -6.58834720937501 -3.98110939062500 
 S -3.72581225000000 -6.35442820937501 -1.15963639062500 
 S -1.32741525000000 -7.34820520937501 3.555609375000879E-003
 S -0.715925250000001 -2.77781520937501 -4.10835339062500 
 S -3.72923425000000 -2.40047420937501 -1.28101339062500 
 S -1.42245825000000 -3.49686120937501 -0.134882390624999 
