16

 C -2.21489044062501 -6.45605670312500 -2.43798399687500 
 C -0.948036440625005 -6.80539170312500 -1.80856099687500 
 C -2.58770244062501 -2.92878270312500 -2.52266299687500 
 C -1.44567244062500 -3.37135270312500 -1.81462899687500 
 N 5.819855937499518E-002 -6.92999870312500 -2.65757499687500 
 N -2.11898044062501 -6.17055870312500 -3.72518999687500 
 N -2.70975444062501 -6.74789370312500 0.105135003125002 
 N -0.359804440625005 -3.57870770312500 -2.55860599687500 
 N -2.32754444062501 -2.77206870312500 -3.81543499687500 
 N -3.29665144062500 -2.86718770312500 -5.558999687499755E-002
 S -0.549889440625005 -6.50963770312500 -4.17076599687500 
 S -3.57356044062501 -6.36850570312500 -1.28074499687500 
 S -1.04762944062500 -6.97058470312500 -7.261999687499765E-002
 S -0.738009440625005 -3.10871870312500 -4.10958899687500 
 S -3.90858944062501 -2.43755570312500 -1.57323599687500 
 S -1.69441644062501 -3.31855770312500 -7.553999687499768E-002
