16

 C -2.23300995312499 -6.51109705625001 -2.52119232812500 
 C -1.03836295312499 -6.92291305625001 -1.87945232812500 
 C -2.52304095312499 -2.54709505625001 -2.52255632812500 
 C -1.30957995312499 -3.08854505625001 -1.95685832812500 
 N -0.143121953124993 -7.32053605625001 -2.79907732812500 
 N -2.30280495312499 -6.53078205625001 -3.83814232812500 
 N -2.62525295312499 -6.36891905625001 1.488767187499995E-002
 N -0.331112953124993 -3.41629205625001 -2.79779432812500 
 N -2.39119095312499 -2.31863205625001 -3.83814932812500 
 N -2.97516095312499 -2.99781605625001 -4.712132812500003E-002
 S -0.878445953124993 -7.26119505625001 -4.29714132812500 
 S -3.55507595312499 -6.31776905625001 -1.38150132812500 
 S -1.03993195312499 -6.90100705625001 -0.191845328125000 
 S -1.00604295312499 -3.06188705625001 -4.29928132812500 
 S -3.74875995312499 -2.23761905625001 -1.30006932812500 
 S -1.36294295312499 -3.47694605625001 -0.231211328125000 
