16

 C -2.53242516562500 -6.49194913125000 -2.39040242812500 
 C -1.28775916562500 -6.95033313125000 -1.75513742812500 
 C -2.54631116562500 -3.17826713125000 -2.35284942812500 
 C -1.27419016562500 -3.55779213125000 -1.80895442812500 
 N -0.212648165625002 -7.08291213125000 -2.52790742812500 
 N -2.34258416562500 -6.31342713125000 -3.70730942812500 
 N -3.04648416562500 -6.79438313125000 0.113639571875003 
 N -0.271541165625002 -3.53521913125000 -2.62747642812500 
 N -2.48497216562500 -2.95360313125000 -3.65402442812500 
 N -3.04171116562500 -3.30540813125000 0.162585571875003 
 S -0.759537165625003 -6.64688513125000 -4.05993842812500 
 S -3.85847316562500 -6.29943213125000 -1.26297342812500 
 S -1.39406616562500 -6.98655213125000 -5.639242812499701E-002
 S -0.923841165625002 -3.12758213125000 -4.14321742812500 
 S -3.85836316562500 -3.19152113125000 -1.26949742812500 
 S -1.40686416562500 -3.67817813125000 -4.115842812499704E-002
