16

 C -2.51277081250000 -6.76019849062500 -2.43692752187500 
 C -1.15465681250000 -7.06708949062500 -1.95790152187500 
 C -2.54761681250000 -2.94259549062500 -2.50221552187500 
 C -1.37409881250000 -3.35866149062500 -1.78846752187500 
 N -0.217680812499996 -7.14819449062500 -2.91756852187500 
 N -2.55691381250000 -6.59924749062500 -3.76650752187500 
 N -2.65722581250000 -7.05027049062500 0.189158478125000 
 N -0.289193812499996 -3.58316049062500 -2.54376352187500 
 N -2.39318381250000 -2.73548249062500 -3.80127452187500 
 N -3.24367981250000 -3.14007249062500 3.787547812500014E-002
 S -1.02093881250000 -6.79585849062500 -4.32993252187500 
 S -3.65357081250000 -6.76546249062500 -1.09705952187500 
 S -1.01081081250000 -7.37449149062500 -0.218367521875000 
 S -0.783683812499996 -3.12565249062500 -4.11246852187500 
 S -3.92830881250000 -2.56536049062500 -1.37584152187500 
 S -1.62997981250000 -3.75738749062500 -7.715952187499986E-002
