16

 C -2.38464787500000 -6.65511280000001 -2.48129359375000 
 C -1.11439587500000 -7.01464280000001 -1.95995159375000 
 C -2.45233687499999 -2.94759880000001 -2.47767759375000 
 C -1.29374487500000 -3.52824880000001 -1.77660159375000 
 N -0.149303874999995 -7.02956380000001 -2.88815759375000 
 N -2.47794287500000 -6.36949380000001 -3.79056259375000 
 N -2.76544087500000 -7.23396280000001 6.125140625000136E-002
 N -0.233878874999995 -3.80832280000001 -2.56512259375000 
 N -2.23755887500000 -2.64040080000001 -3.76978159375000 
 N -3.20806087500000 -3.09867380000001 -2.032593749998535E-003
 S -0.950185874999995 -6.66529980000001 -4.30111759375000 
 S -3.61034087500000 -6.73370180000001 -1.25915559375000 
 S -1.10991187500000 -7.34321080000001 -0.252519593749998 
 S -0.730244874999995 -3.23872780000001 -4.08847959375000 
 S -3.81171387500000 -2.67866680000001 -1.47053859375000 
 S -1.62126987499999 -3.70627580000001 -8.401259374999848E-002
