16

 C -2.39850895312501 -6.38385160000000 -2.52924405312500 
 C -1.26831895312501 -6.88697860000000 -1.81884305312500 
 C -2.39847095312501 -2.52419960000000 -2.47019505312500 
 C -1.34199095312501 -3.26521360000000 -1.86548805312500 
 N -0.237246953125008 -7.08822560000000 -2.64993505312500 
 N -2.28841795312501 -6.13405960000000 -3.84762305312500 
 N -3.21970195312501 -6.77821460000000 -8.916505312499878E-002
 N -0.285373953125008 -3.55495560000000 -2.63602105312500 
 N -2.18714495312501 -2.34685960000000 -3.77771005312500 
 N -2.94165295312501 -2.75585460000000 5.807694687500131E-002
 S -0.678794953125008 -6.50036360000000 -4.21280405312500 
 S -3.83982695312501 -6.12024460000000 -1.52166005312500 
 S -1.61066495312501 -7.12126060000000 -0.125995053124999 
 S -0.689868953125008 -3.06671660000000 -4.10489105312500 
 S -3.67451895312501 -2.20015460000000 -1.36227205312500 
 S -1.45683195312501 -3.38341660000000 -0.100329053124999 
