16

 C -2.30876035625000 -6.43970806562500 -2.31236614687500 
 C -1.08722535625000 -6.98559206562500 -1.77806714687500 
 C -2.40169235625000 -2.98568006562500 -2.43568914687500 
 C -1.15043935625000 -3.26600406562500 -1.82718114687500 
 N -0.117044356249997 -7.04638006562500 -2.67952414687500 
 N -2.27765835625000 -6.11555706562500 -3.58972614687500 
 N -2.80747835625000 -6.81960806562500 0.152797853125001 
 N -8.810335624999777E-002 -3.33368906562500 -2.65890314687500 
 N -2.32277535625000 -2.81040506562500 -3.74647414687500 
 N -2.98465135625000 -3.44047306562500 1.370685312500108E-002
 S -0.732291356249998 -6.47167506562500 -4.14484314687500 
 S -3.62790635625000 -6.33794606562500 -1.25843714687500 
 S -1.23867035625000 -7.30070906562500 -5.679214687499878E-002
 S -0.731459356249998 -3.07073306562500 -4.14919214687500 
 S -3.73595535625000 -2.88222806562500 -1.35611114687500 
 S -1.35000235625000 -3.65556406562500 -0.131717146874999 
