16

 C -2.35382025000001 -6.40568320625000 -2.41354727187500 
 C -1.10978725000001 -6.74464420625000 -1.76444627187500 
 C -2.52362625000001 -2.66496920625000 -2.59257627187500 
 C -1.38035425000001 -3.09846720625000 -1.84997527187500 
 N -6.924325000000575E-002 -6.87418820625000 -2.58767427187500 
 N -2.21732425000001 -6.37986220625000 -3.73815027187500 
 N -2.89186325000001 -6.63236520625000 4.808972812499990E-002
 N -0.393231250000006 -3.56270320625000 -2.60582827187500 
 N -2.40877325000001 -2.62633220625000 -3.92658327187500 
 N -3.29495525000001 -2.92985620625000 -3.871927187500024E-002
 S -0.651087250000006 -6.71713920625000 -4.11959027187500 
 S -3.70160025000001 -6.26687520625000 -1.37819927187500 
 S -1.24075125000001 -6.89891920625000 -1.143327187500010E-002
 S -0.876805250000006 -3.23267520625000 -4.16654627187500 
 S -3.94803925000001 -2.46209720625000 -1.52635827187500 
 S -1.67576025000001 -3.41071720625000 -0.102461271875000 
