16

 C -2.46918024375000 -6.34658849375000 -2.15955458125000 
 C -1.20880724375000 -6.82657249375000 -1.60950858125000 
 C -2.20259324375000 -2.66010349375000 -2.61753958125000 
 C -0.992122243750003 -3.07375449375000 -1.88642758125000 
 N -0.181369243750003 -7.01171549375000 -2.46539858125000 
 N -2.25929724375000 -6.09601549375000 -3.45720858125000 
 N -2.83483724375000 -6.84866549375000 0.424591418750001 
 N 0.111582756249996 -3.24419449375000 -2.61538958125000 
 N -2.03137424375000 -2.60208049375000 -3.92505558125000 
 N -2.95644224375000 -2.78393049375000 -0.170260581249999 
 S -0.766263243750003 -6.58057649375000 -3.96125358125000 
 S -3.75568124375000 -6.46032449375000 -0.982133581249999 
 S -1.34036424375000 -7.46186749375000 3.092141875000132E-002
 S -0.447387243750003 -2.97731049375000 -4.16513858125000 
 S -3.60627824375000 -2.29568449375000 -1.61177658125000 
 S -1.32096824375000 -3.13913749375000 -0.209768581249999 
