16

 C -2.23133028125000 -6.47593270625000 -2.27787998750000 
 C -1.06801928125000 -7.05776970625000 -1.70729198750000 
 C -2.33020528125000 -2.62874570625000 -2.46455798750000 
 C -1.12621328125000 -3.13285970625000 -1.85173398750000 
 N -0.124807281250002 -7.31057770625000 -2.61931698750000 
 N -2.20958828125000 -6.32024470625000 -3.60544698750000 
 N -2.59558628125000 -6.66521370625000 0.302491012500000 
 N -9.765728125000095E-002 -3.28807570625000 -2.68502398750000 
 N -2.15859128125000 -2.27377470625000 -3.71573398750000 
 N -2.86843928125000 -3.07261570625000 6.830701250000026E-002
 S -0.741971281250001 -6.84634570625000 -4.09249098750000 
 S -3.36502428125000 -6.06412770625000 -1.02194298750000 
 S -1.17092028125000 -7.32900670625000 1.352301250000032E-002
 S -0.565871281250002 -2.80841170625000 -4.18378598750000 
 S -3.57576628125000 -2.41889970625000 -1.30970498750000 
 S -1.36389728125000 -3.58602370625000 -0.186567987500000 
