16

 C -2.25487875625000 -6.12946826250001 -2.18441507187500 
 C -1.04422975625000 -6.72876926250001 -1.65798307187500 
 C -2.70227175625000 -2.37697326250001 -2.68650807187500 
 C -1.47010875625000 -2.72624826250001 -2.05745507187500 
 N -0.113736756249998 -7.01505526250001 -2.57647107187500 
 N -2.21485775625000 -5.92026726250001 -3.48915107187500 
 N -2.66640875625000 -6.36348626250001 0.315386928125001 
 N -0.471849756249997 -3.01160826250001 -2.91489707187500 
 N -2.66252775625000 -2.35715126250001 -4.02121607187500 
 N -3.20567775625000 -2.49890526250001 -0.122151071874999 
 S -0.736424756249998 -6.42742726250001 -4.01619107187500 
 S -3.44529175625000 -5.73333626250001 -1.07012307187500 
 S -1.13375075625000 -6.94686926250001 6.573992812500040E-002
 S -1.08538175625000 -2.77500326250001 -4.36679007187500 
 S -4.03517675625000 -2.06551226250001 -1.56336607187500 
 S -1.59032375625000 -2.83744526250001 -0.299263071875000 
