16

 C -2.48036608750000 -6.40791474375000 -2.59487602500000 
 C -1.35472608750000 -6.86049074375000 -1.79612902500000 
 C -2.52907908750000 -2.54956274375000 -2.43109002500000 
 C -1.30541608750000 -2.88049074375000 -1.71787202500000 
 N -0.254090087500001 -7.06664974375000 -2.49846502500000 
 N -2.18727308750000 -6.22334074375000 -3.87178402500000 
 N -3.23254508750000 -6.62534874375000 -0.104029024999998 
 N -0.240716087500000 -3.04656874375000 -2.48802502500000 
 N -2.32825708750000 -2.38925374375000 -3.71051902500000 
 N -3.13073908750000 -2.53647174375000 0.106588975000002 
 S -0.611778087500000 -6.72865174375000 -4.06575302500000 
 S -3.87818608750000 -6.04815574375000 -1.55925002500000 
 S -1.61836308750000 -6.94396474375000 -0.130044024999998 
 S -0.769469087500000 -2.75246574375000 -4.10128902500000 
 S -3.82199408750000 -2.26863674375000 -1.36448902500000 
 S -1.55024608750000 -3.04546474375000 -1.657102499999796E-002
