16

 C -2.42302178125000 -6.37689054687501 -2.35663191875000 
 C -1.15226178125000 -6.78443154687501 -1.75111091875000 
 C -2.43470078125000 -2.94965354687501 -2.48114891875000 
 C -1.17752678125000 -3.28990354687501 -1.93622591875000 
 N -0.152504781250002 -6.97073154687500 -2.58410091875000 
 N -2.31361878125000 -6.11345154687501 -3.66595491875000 
 N -2.85211778125000 -6.85834154687501 0.167297081250001 
 N -0.157555781250002 -3.31347954687500 -2.80228191875000 
 N -2.36371778125000 -2.67715854687501 -3.81662091875000 
 N -2.95225978125000 -3.31072254687501 4.729081250000933E-003
 S -0.744898781250002 -6.48380254687500 -4.05415991875000 
 S -3.73665378125000 -6.46033854687500 -1.16929891875000 
 S -1.22726278125000 -7.18863354687501 -9.512991874999921E-002
 S -0.809523781250002 -2.87671054687500 -4.30262991875000 
 S -3.77411478125000 -2.94181154687501 -1.42780091875000 
 S -1.34384878125000 -3.60272554687501 -0.146914918749999 
