16

 C -2.31371240625000 -6.43521845625000 -2.61507376562500 
 C -1.14873840625000 -6.87972145625000 -1.94193776562500 
 C -2.29045240625000 -2.57216545625000 -2.52275776562500 
 C -1.02642540625000 -2.99414145625000 -2.02407576562500 
 N -0.121972406249995 -7.11525345625000 -2.74894976562500 
 N -2.21539940625000 -6.41319445625000 -3.95682276562500 
 N -3.02030740625000 -6.56801645625000 -0.134780765625000 
 N -7.826240624999503E-002 -2.97673745625000 -2.98692476562500 
 N -2.27537540625000 -2.18133845625000 -3.79983676562500 
 N -2.76337640625000 -3.24416045625000 -0.188102765625000 
 S -0.633612406249996 -6.75939445625000 -4.31723376562500 
 S -3.76879740625000 -6.06976345625000 -1.50192076562500 
 S -1.36015440625000 -6.90228145625000 -0.182366765624999 
 S -0.757442406249996 -2.54642545625000 -4.39167676562500 
 S -3.61887840625000 -2.62701945625000 -1.45934776562500 
 S -1.14766640625000 -3.58398145625000 -0.340830765624999 
