16

 C -2.56660914375000 -6.55008318437500 -2.37781281875000 
 C -1.28307314375000 -6.85908218437500 -1.78551081875000 
 C -2.30754214375000 -2.93608818437500 -2.38206381875000 
 C -1.13366214375000 -3.37322618437500 -1.79274081875000 
 N -0.323853143749997 -7.01667018437500 -2.69457981875000 
 N -2.53088114375000 -6.29221818437500 -3.69987381875000 
 N -2.95316614375000 -6.61001618437500 0.176154181249999 
 N -0.104208143749996 -3.55147418437500 -2.59136981875000 
 N -2.22489314375000 -2.85797918437500 -3.69150981875000 
 N -2.91082814375000 -3.20879018437500 0.111622181249999 
 S -0.991038143749996 -6.69524718437500 -4.15578181875000 
 S -3.77756114375000 -6.26219618437500 -1.19770181875000 
 S -1.34810214375000 -6.95277118437500 -5.222781875000093E-002
 S -0.621103143749996 -3.19386418437500 -4.16049381875000 
 S -3.63799814375000 -2.72752918437500 -1.30450981875000 
 S -1.24376014375000 -3.51457718437500 -6.659981875000076E-002
