16

 C -2.60461193437500 -6.31515839687500 -2.25783162187500 
 C -1.45970393437500 -6.99858539687500 -1.76694062187500 
 C -2.30252393437500 -2.50871939687500 -2.50204462187500 
 C -1.13144593437500 -3.12225039687500 -1.85661062187500 
 N -0.456758934375003 -7.12468439687500 -2.64145562187500 
 N -2.49838693437500 -5.93214139687500 -3.51568162187500 
 N -3.11584893437500 -6.68330139687500 0.216923378125001 
 N -0.125382934375002 -3.35475539687500 -2.71203962187500 
 N -2.15981893437500 -2.24344839687500 -3.77488562187500 
 N -2.89397293437500 -2.85293539687500 2.598837812500099E-002
 S -1.03770893437500 -6.54313139687500 -4.05593262187500 
 S -3.88241893437500 -6.11532439687500 -1.12676562187500 
 S -1.54705193437500 -7.24480839687500 -6.213621874998854E-003
 S -0.634114934375003 -2.74994939687500 -4.19208762187500 
 S -3.66663093437500 -2.25175639687500 -1.36066762187500 
 S -1.28553893437500 -3.29548239687500 -0.146803621874999 
