16

 C -2.46027386250000 -6.27699207500000 -2.45648306250000 
 C -1.29073786250000 -6.84983907500000 -1.83023806250000 
 C -2.52445986250000 -2.61692907500000 -2.16328506250000 
 C -1.35258286250000 -3.29056507500000 -1.62715506250000 
 N -0.285453862500003 -7.11437607500000 -2.66052706250000 
 N -2.37915686250000 -6.17863507500000 -3.78175406250000 
 N -3.10488486250000 -6.73361507500000 -2.300206250000203E-002
 N -0.360000862500003 -3.46636307500000 -2.48970806250000 
 N -2.38315386250000 -2.33733107500000 -3.45535606250000 
 N -2.93497086250000 -2.83915707500000 0.339915937499998 
 S -0.838118862500004 -6.69438907500000 -4.20896106250000 
 S -3.79696886250000 -5.91859007500000 -1.34418706250000 
 S -1.50165086250000 -7.20657007500000 -0.179293062500002 
 S -0.893843862500003 -2.87930707500000 -3.98404706250000 
 S -3.72925086250000 -2.30362107500000 -0.999067062500002 
 S -1.40207486250000 -3.42807307500000 0.124266937499998 
