16

 C -2.55839763437501 -6.72187447499999 -2.37651732187500 
 C -1.31521563437501 -7.10392147499999 -1.73820032187500 
 C -2.51481163437501 -2.79274847499999 -2.32815932187500 
 C -1.32738463437501 -3.34879547499999 -1.74770932187500 
 N -0.235242634375006 -7.11985447500000 -2.51361232187500 
 N -2.42347763437501 -6.45551347499999 -3.65540832187500 
 N -3.09321663437501 -6.93517547499999 0.164312678124999 
 N -0.282016634375006 -3.54325047499999 -2.58982832187500 
 N -2.45028763437501 -2.70957247499999 -3.64079032187500 
 N -2.99832163437501 -3.07885147499999 0.178166678124999 
 S -0.846286634375007 -6.74539547500000 -4.05397932187500 
 S -3.90529963437501 -6.50144647499999 -1.23235632187500 
 S -1.45622063437501 -7.23788247499999 -1.683732187500064E-002
 S -0.953323634375007 -3.11210347499999 -4.14822032187500 
 S -3.75991763437501 -2.61460447499999 -1.22568932187500 
 S -1.36639663437501 -3.52092947499999 -5.570332187500071E-002
