16

 C -2.34931321562500 -7.00764882812501 -2.41946505312500 
 C -1.20717421562500 -7.43737182812501 -1.69346205312500 
 C -2.77505821562500 -2.88097982812501 -2.37043505312500 
 C -1.67306621562500 -3.60618982812501 -1.77335505312500 
 N -0.115418215624997 -7.49266382812501 -2.42895905312500 
 N -2.15212721562500 -6.82323082812501 -3.71924405312500 
 N -2.99184621562500 -6.75725382812501 2.898594687499889E-002
 N -0.716327215624997 -3.92323782812501 -2.65071905312500 
 N -2.64290721562500 -2.56341482812501 -3.66713205312500 
 N -3.27868321562500 -3.06838482812501 0.164046946874999 
 S -0.527961215624997 -7.07508682812501 -3.97347205312500 
 S -3.64074721562500 -6.49379282812501 -1.44066205312500 
 S -1.40182721562500 -7.45612482812501 7.124094687499882E-002
 S -1.27494921562500 -3.41700882812501 -4.18999005312500 
 S -4.04586421562500 -2.39374182812501 -1.19817705312500 
 S -1.78444521562500 -3.81365682812501 5.257946874998920E-003
