16

 C -2.64306699375001 -6.34419160625000 -2.49264384375000 
 C -1.40352899375001 -6.92937260625000 -2.01464684375000 
 C -2.61318999375001 -2.86491860625000 -2.38426884375000 
 C -1.47725999375001 -3.22689960625000 -1.60849984375000 
 N -0.399095993750007 -7.12316860625000 -2.87103984375000 
 N -2.57217599375001 -6.06948160625000 -3.82096584375000 
 N -2.98219599375001 -6.75339060625000 8.303815624999933E-002
 N -0.419105993750007 -3.57962160625000 -2.36936184375000 
 N -2.50470599375001 -3.06235260625000 -3.70431584375000 
 N -3.27733399375001 -2.75287860625000 9.367815624999953E-002
 S -1.08016699375001 -6.64011360625000 -4.28735384375000 
 S -3.78885899375001 -5.99674560625000 -1.18631884375000 
 S -1.40550199375001 -7.22756660625000 -0.270477843750001 
 S -0.929332993750006 -3.43471360625000 -3.95643384375000 
 S -4.04945199375001 -2.56096460625000 -1.41863184375000 
 S -1.77733499375001 -3.46913160625000 0.123037156249999 
