16

 C -2.52542585312501 -6.38718817187500 -2.34489033750000 
 C -1.32825185312501 -6.89402017187501 -1.73251133750000 
 C -2.65669185312501 -3.02721217187501 -2.50342633750000 
 C -1.44299085312501 -3.38344617187501 -1.83752433750000 
 N -0.317239853125008 -7.12842917187501 -2.58270333750000 
 N -2.43742485312501 -6.23015417187501 -3.64857333750000 
 N -3.05773885312501 -6.64443117187501 8.882566249999901E-002
 N -0.395691853125007 -3.41581317187501 -2.62919033750000 
 N -2.53643385312501 -2.77050717187501 -3.81254533750000 
 N -3.11594485312501 -3.05724617187501 8.243866249999887E-002
 S -0.923651853125008 -6.63620917187501 -4.01544433750000 
 S -3.78473185312501 -6.14312417187501 -1.29967833750000 
 S -1.46836185312501 -7.00599117187501 -5.103633750000114E-002
 S -0.909363853125008 -3.17028717187500 -4.16611633750000 
 S -3.96034685312501 -3.02543717187501 -1.36550733750000 
 S -1.57609485312501 -3.61100617187501 -0.117809337500001 
