16

 C -2.35146866249999 -6.55957035312500 -2.26633488125000 
 C -1.09378566249999 -7.02114035312500 -1.77483688125000 
 C -2.48682366250000 -2.71784135312500 -2.50162488125000 
 C -1.30997766250000 -3.31209535312500 -1.86887388125000 
 N -0.138548662499995 -7.03122535312500 -2.67308888125000 
 N -2.35463666250000 -6.28708135312500 -3.57599288125000 
 N -2.57105266250000 -6.58507635312500 0.231622118749997 
 N -0.315607662499995 -3.58023035312500 -2.73102088125000 
 N -2.31902166250000 -2.42297935312500 -3.78197588125000 
 N -3.02008066250000 -2.87444135312500 2.383611874999692E-002
 S -0.858273662499995 -6.62576035312500 -4.08133388125000 
 S -3.49054466250000 -6.07742935312500 -1.06910088125000 
 S -0.978332662499995 -6.99627035312500 -6.687288125000324E-002
 S -0.773259662499996 -3.02089635312500 -4.22615588125000 
 S -3.77552366250000 -2.37156935312500 -1.38339188125000 
 S -1.45723866250000 -3.37469835312500 -6.266688125000308E-002
