16

 C -2.37797772500000 -6.11406541250001 -2.34657535000000 
 C -1.21630772500000 -6.82089941250001 -1.82370635000000 
 C -2.67892972500000 -2.50191741250001 -2.72285035000000 
 C -1.41646572500000 -2.83574341250001 -2.10147735000000 
 N -0.339221725000002 -7.14058341250001 -2.75158135000000 
 N -2.37566472500000 -5.88379741250001 -3.66809535000000 
 N -2.71348372500000 -6.36562941250001 0.191671650000001 
 N -0.431515725000002 -3.10681941250001 -2.92031035000000 
 N -2.58959372500000 -2.37920241250001 -4.05324035000000 
 N -3.09722972500000 -2.43083441250001 -0.117986349999999 
 S -0.956604725000002 -6.55819341250000 -4.20077135000000 
 S -3.57305072500000 -5.74993641250001 -1.14534335000000 
 S -1.27919572500000 -7.09962441250001 -9.423834999999925E-002
 S -1.02100072500000 -2.81698641250001 -4.40453135000000 
 S -3.97363572500000 -2.07444841250001 -1.52111335000000 
 S -1.52798372500000 -2.90996541250001 -0.319081349999999 
