16

 C -2.24254410312500 -6.41180042500000 -2.55597478125000 
 C -1.06170710312500 -6.75521642500000 -1.82984478125000 
 C -2.36903810312500 -2.90961142500000 -2.44632078125000 
 C -1.08740110312500 -3.25670242500000 -1.85144978125000 
 N -2.180310312500211E-002 -6.98598842500000 -2.64119178125000 
 N -2.06091910312500 -6.26430842500000 -3.87943378125000 
 N -2.97605310312500 -6.58014442500000 -6.642378125000237E-002
 N -0.122144103125002 -3.41386842500000 -2.75316578125000 
 N -2.29376410312500 -2.77686242500000 -3.75955778125000 
 N -2.72516810312500 -2.88173042500000 0.102097218749998 
 S -0.467227103125002 -6.61465842500000 -4.19138078125000 
 S -3.66179710312500 -5.95809642500000 -1.46871978125000 
 S -1.32076010312500 -6.71339142500000 -7.511978125000240E-002
 S -0.722739103125002 -3.07611342500000 -4.27126078125000 
 S -3.61288610312500 -2.76338942500000 -1.30292278125000 
 S -1.13600010312500 -3.31742642500000 -0.131332781250002 
