16

 C -2.56932731250000 -6.36555167187500 -2.48253077500000 
 C -1.42733631250000 -6.82608767187500 -1.72169677500000 
 C -2.45085431250000 -3.00391767187500 -2.34603377500000 
 C -1.19206131250000 -3.24192867187500 -1.70269477500000 
 N -0.442892312500001 -7.26762467187500 -2.47566777500000 
 N -2.46600531250000 -6.41871067187500 -3.79922677500000 
 N -3.26251231250000 -6.25620667187500 2.790622499999973E-002
 N -0.169988312500001 -3.33346067187500 -2.55134377500000 
 N -2.41050431250000 -2.95920867187500 -3.67543577500000 
 N -3.06194031250000 -3.11395367187500 0.141692225000000 
 S -0.869943312500000 -6.97380867187500 -4.09479077500000 
 S -3.91107931250000 -5.79468167187500 -1.46334977500000 
 S -1.64404431250000 -6.72487967187500 -3.052177500000020E-002
 S -0.786301312500001 -3.19428867187500 -4.04276577500000 
 S -3.75586631250000 -2.91107367187500 -1.29543477500000 
 S -1.40432931250000 -3.38128967187500 8.315122499999972E-002
