16

 C -2.44251196562500 -6.44212367500000 -2.19288991562500 
 C -1.21744296562500 -7.00621867500000 -1.62979891562500 
 C -2.19548596562500 -2.50567667500000 -2.59279191562500 
 C -1.03270396562500 -2.93364367500000 -1.84777191562500 
 N -0.171960965625003 -7.08079967500000 -2.46673191562500 
 N -2.38413496562500 -6.15607667500000 -3.49437391562500 
 N -2.86753396562500 -6.78520367500000 0.298547084375001 
 N -8.482965625002947E-003 -3.27974767500000 -2.60823591562500 
 N -1.98279096562500 -2.44682067500000 -3.88830991562500 
 N -2.98745796562500 -2.93261967500000 -0.168603915624999 
 S -0.836750965625003 -6.69584867500000 -3.92525291562500 
 S -3.72858196562500 -6.40361867500000 -1.01847891562500 
 S -1.32590096562500 -7.39218567500000 5.241908437500098E-002
 S -0.402434965625003 -2.88975367500000 -4.19933891562500 
 S -3.61600696562500 -2.34953267500000 -1.60848791562500 
 S -1.33195196562500 -3.09066967500000 -0.112440915624999 
