16

 C -2.43979913125000 -6.41459711562501 -2.34365795625000 
 C -1.20917213125000 -6.73204611562501 -1.69536695625000 
 C -2.33303513125000 -3.07406011562501 -2.09594595625000 
 C -1.11108713125000 -3.42858311562501 -1.46961495625000 
 N -0.193716131250000 -6.90578311562501 -2.51527695625000 
 N -2.33134013125000 -6.22753411562501 -3.63967995625000 
 N -2.92856113125000 -6.94273611562501 0.167491043750000 
 N -4.165213125000022E-002 -3.45720111562501 -2.22573295625000 
 N -2.28879413125000 -2.87297611562501 -3.40876095625000 
 N -2.91074213125000 -3.33814111562501 0.456604043750000 
 S -0.762512131250000 -6.62617411562501 -4.04536895625000 
 S -3.75352513125000 -6.53385611562501 -1.27594495625000 
 S -1.31569413125000 -7.01982711562501 1.063604374999971E-002
 S -0.695747131250000 -3.22870511562501 -3.79353695625000 
 S -3.68921713125000 -3.01995711562501 -0.933851956250000 
 S -1.25739413125000 -3.54342011562501 0.222927043750000 
