16

 C -2.37298189687500 -6.51370031875000 -2.33376151875000 
 C -1.14960589687500 -6.91134531875000 -1.65586151875000 
 C -2.42699889687500 -2.54835631875000 -2.37450851875000 
 C -1.24827489687500 -3.19182731875000 -1.78686351875000 
 N -9.915189687500181E-002 -7.03611831875000 -2.47160451875000 
 N -2.29749189687500 -6.28274031875000 -3.63273151875000 
 N -2.83745489687500 -6.66015331875000 0.194916481249998 
 N -0.239602896875001 -3.44940431875000 -2.58544951875000 
 N -2.23418089687500 -2.28986731875000 -3.64761651875000 
 N -2.99635489687500 -3.01150031875000 7.896848124999845E-002
 S -0.691045896875002 -6.64335031875000 -3.95366351875000 
 S -3.75283589687500 -6.38887631875000 -1.18638351875000 
 S -1.31831789687500 -7.35818531875000 -4.100951875000169E-002
 S -0.711741896875002 -2.86516931875000 -4.06376451875000 
 S -3.65738489687500 -2.31478331875000 -1.22584451875000 
 S -1.46620889687500 -3.53513431875000 -0.116380518750002 
