16

 C -2.50905956875000 -6.24950695625000 -2.48922568125000 
 C -1.39170056875000 -6.88040495625000 -1.89155968125000 
 C -2.49180256875000 -2.61687995625000 -2.20761468125000 
 C -1.30893556875000 -3.32202095625000 -1.62305468125000 
 N -0.397540568750002 -7.11715995625000 -2.74279068125000 
 N -2.38011056875000 -6.02563995625000 -3.81261868125000 
 N -3.08043156875000 -6.63648395625000 5.833431875000161E-002
 N -0.393476568750002 -3.66608695625000 -2.54401668125000 
 N -2.35313256875000 -2.29213395625000 -3.51119868125000 
 N -2.94682656875000 -2.74181795625000 0.352547318750002 
 S -0.897993568750002 -6.68631895625000 -4.23969868125000 
 S -3.78590356875000 -5.99364695625000 -1.28487168125000 
 S -1.56742856875000 -7.26062195625000 -0.181814681249998 
 S -0.897430568750002 -2.95728295625000 -3.93649368125000 
 S -3.74699856875000 -2.37891895625000 -1.06520568125000 
 S -1.46144656875000 -3.53228495625000 0.105622318750002 
