16

 C -2.42345612812500 -6.65323459062500 -2.18244960937500 
 C -1.18490512812500 -7.09323059062500 -1.58692860937500 
 C -2.22471612812500 -2.43187459062500 -2.55553160937500 
 C -1.08797912812500 -2.97384259062500 -1.84520060937500 
 N -0.303534128125000 -7.32036859062500 -2.53712860937500 
 N -2.39606912812500 -6.44166759062500 -3.49858860937500 
 N -2.98486912812500 -6.84687759062500 0.297642390624999 
 N -1.097312812500029E-002 -3.17187359062500 -2.60142260937500 
 N -1.97508312812500 -2.18144659062500 -3.81554260937500 
 N -2.98911712812500 -2.88174159062500 -0.130501609375001 
 S -0.852439128125001 -6.73056659062500 -4.00712960937500 
 S -3.71194512812500 -6.26909059062500 -1.11100260937500 
 S -1.31680712812500 -7.27612459062500 0.131231390624999 
 S -0.465311128125000 -2.80617759062500 -4.17333860937500 
 S -3.66156912812500 -2.41259459062500 -1.60775060937500 
 S -1.36513712812500 -3.11893759062500 -0.113467609375001 
