16

 C -2.36378115000000 -6.66703675000000 -2.33064597500000 
 C -1.16461015000000 -7.20014575000000 -1.74145497500000 
 C -2.34893215000000 -2.53576775000000 -2.28099897500000 
 C -1.30568015000000 -3.36995975000000 -1.70675897500000 
 N -0.125951150000001 -7.41773075000000 -2.54319897500000 
 N -2.16197615000000 -6.43140875000000 -3.60122097500000 
 N -3.00172315000000 -7.13049975000000 9.075002499999973E-002
 N -0.484402150000001 -3.78159875000000 -2.67498397500000 
 N -2.26217615000000 -2.28917875000000 -3.58149497500000 
 N -2.96876915000000 -2.73890275000000 0.188964025000000 
 S -0.640596150000001 -6.83534875000000 -4.06366497500000 
 S -3.71379615000000 -6.44236775000000 -1.31858797500000 
 S -1.38552615000000 -7.29754375000000 3.703702499999961E-002
 S -0.872126150000001 -2.99995875000000 -4.04319497500000 
 S -3.59621315000000 -2.05856675000000 -1.14200897500000 
 S -1.66144715000000 -3.69044275000000 -8.240297500000038E-002
