16

 C -2.50779512812500 -6.38714793437500 -2.27199190312500 
 C -1.23157012812500 -6.70337993437500 -1.67487690312500 
 C -2.41083112812500 -2.65265893437500 -2.88037090312500 
 C -1.16207312812501 -2.81493993437500 -2.22037790312500 
 N -0.203766128125005 -6.72424693437500 -2.52098290312500 
 N -2.37623412812501 -6.13006793437500 -3.55075090312500 
 N -3.00069212812500 -6.87262593437500 0.150064096875000 
 N -0.135810128125005 -2.76074293437500 -3.06490990312500 
 N -2.37312612812500 -2.52946893437500 -4.18372990312500 
 N -2.98194512812500 -3.04584693437500 -0.409212903125000 
 S -0.784952128125004 -6.28651493437500 -4.03353590312500 
 S -3.77636112812500 -6.22433693437500 -1.16876890312500 
 S -1.35472612812501 -7.02407693437500 1.670509687500044E-002
 S -0.796450128125005 -2.62414493437500 -4.55978990312500 
 S -3.84477512812501 -2.71888893437500 -1.80272390312500 
 S -1.37672712812500 -3.03741293437500 -0.542058903125000 
