16

 C -2.24872901562500 -6.44368565312500 -2.36311089062500 
 C -1.10421001562500 -6.92796165312500 -1.69884589062500 
 C -2.60049401562500 -2.72513665312500 -2.55379989062500 
 C -1.36647601562500 -3.01235065312500 -1.91025289062500 
 N -0.161985015625002 -7.24897865312500 -2.52778989062500 
 N -2.16415901562500 -6.26389265312500 -3.66152489062500 
 N -2.84987101562500 -6.18437065312500 9.380410937500083E-002
 N -0.329567015625003 -3.13220765312500 -2.73252289062500 
 N -2.50506801562500 -2.64891165312500 -3.86533589062500 
 N -3.12107101562500 -2.88245365312500 -0.117791890624999 
 S -0.685815015625002 -6.80264065312500 -4.07195989062500 
 S -3.57727801562500 -6.05207165312500 -1.35844989062500 
 S -1.29970901562500 -6.86993365312500 2.373210937500092E-002
 S -0.918522015625002 -2.90313765312500 -4.29137789062500 
 S -3.93312101562500 -2.48904665312500 -1.50134389062500 
 S -1.49925201562500 -3.13306765312500 -0.248160890624999 
