16

 C -2.29916036562500 -6.29217746875000 -2.21708430312500 
 C -1.13159736562500 -6.75706846875000 -1.56466430312500 
 C -2.30533836562500 -2.47101846875000 -2.11701730312500 
 C -1.15088636562500 -3.14332746875000 -1.64444830312500 
 N -6.093136562500412E-002 -6.90819346875000 -2.36653830312500 
 N -2.12972936562500 -6.06600446875000 -3.52465930312500 
 N -3.08667836562500 -6.50146146875000 0.200696696875004 
 N -8.857036562500387E-002 -3.08755446875000 -2.44610430312500 
 N -2.23120036562500 -2.03827246875000 -3.38289530312500 
 N -2.94276136562500 -3.32552946875000 0.266274696875004 
 S -0.640888365625004 -6.60194446875000 -3.88605530312500 
 S -3.71404436562500 -6.09107146875000 -1.24387430312500 
 S -1.47850336562500 -7.10102346875000 0.141421696875004 
 S -0.643677365625004 -2.46340946875000 -3.86027630312500 
 S -3.65227836562500 -2.48417446875000 -0.946749303124996 
 S -1.35167336562500 -3.75505546875000 -6.034030312499605E-002
