16

 C -2.68295641562501 -6.34585645625000 -2.37338016875000 
 C -1.50816641562501 -6.97821045625000 -1.89968916875000 
 C -2.45255241562501 -2.74269245625000 -2.30572316875000 
 C -1.32518341562501 -3.46001145625000 -1.63158516875000 
 N -0.548344415625006 -7.21400845625000 -2.80726916875000 
 N -2.55565141562501 -5.95651045625000 -3.63436116875000 
 N -3.07340141562501 -6.69877045625000 0.114785831250004 
 N -0.329152415625006 -3.73354045625000 -2.47762716875000 
 N -2.27987541562501 -2.50777745625000 -3.62397516875000 
 N -3.14549141562501 -3.09875745625000 0.256672831250004 
 S -1.10704941562501 -6.49023045625000 -4.21120816875000 
 S -3.84959441562501 -5.98979445625000 -1.18937116875000 
 S -1.55499941562501 -7.31775445625000 -0.169112168749996 
 S -0.822174415625006 -3.17363245625000 -3.97103916875000 
 S -3.75698141562501 -2.42841945625000 -1.16131916875000 
 S -1.59428641562501 -3.77774845625000 4.853683125000385E-002
