16

 C -2.49526257812500 -6.68827920312500 -2.09860495625000 
 C -1.23636357812500 -7.23130420312500 -1.62431195625000 
 C -2.43620657812500 -2.69162120312500 -2.45845595625000 
 C -1.25020557812500 -3.26202220312500 -1.78805495625000 
 N -0.326808578125003 -7.26322020312500 -2.61824395625000 
 N -2.55259857812500 -6.27338920312500 -3.36771695625000 
 N -2.81123057812500 -6.95409520312500 0.411953043750000 
 N -0.275022578125002 -3.56806920312500 -2.61428995625000 
 N -2.36136357812500 -2.69452320312500 -3.79763495625000 
 N -3.04360057812500 -2.99075120312500 2.162704374999969E-002
 S -1.08877057812500 -6.68631420312500 -3.97865195625000 
 S -3.75010957812500 -6.37039220312500 -0.919550956250000 
 S -1.26227557812500 -7.56739920312500 4.675904374999962E-002
 S -0.781003578125002 -3.16004420312500 -4.12136895625000 
 S -3.70274057812500 -2.36572020312500 -1.36111195625000 
 S -1.50805357812500 -3.59239920312500 -0.118559956250000 
