16

 C -2.53202206562500 -6.23401725000000 -2.52627635312500 
 C -1.39792306562500 -6.83365625000000 -1.86305835312500 
 C -2.18458506562500 -2.93647125000000 -2.32513335312500 
 C -0.974677065624997 -3.35737925000000 -1.77325335312500 
 N -0.342447065624997 -7.01306925000000 -2.63613035312500 
 N -2.34298206562500 -6.10835125000000 -3.82012835312500 
 N -3.20071506562500 -6.49707025000000 -0.110977353125001 
 N 4.289693437500297E-002 -3.35223825000000 -2.62407735312500 
 N -2.20515006562500 -2.49921625000000 -3.60253435312500 
 N -2.58215406562500 -3.45659325000000 0.242320646874999 
 S -0.770985065624997 -6.56037325000000 -4.16792635312500 
 S -3.84804906562500 -5.86718525000000 -1.52600435312500 
 S -1.60877806562500 -7.02292325000000 -0.106915353125001 
 S -0.629217065624997 -2.87032925000000 -4.08352035312500 
 S -3.45217206562500 -3.00345225000000 -1.11816235312500 
 S -1.02441406562500 -3.93645125000000 -0.119761353125001 
