16

 C -2.28328700000000 -6.30688904375000 -2.36549092812500 
 C -1.11715999999999 -6.90339304375000 -1.68728292812500 
 C -2.63148100000000 -2.74397004375000 -2.61265392812500 
 C -1.38043499999999 -3.02028504375000 -1.94810092812500 
 N -0.141286999999995 -7.21591604375000 -2.56658392812500 
 N -2.22056000000000 -6.26607804375000 -3.70092492812500 
 N -2.76021899999999 -6.16071104375000 0.123196071875002 
 N -0.345373999999995 -3.07886404375000 -2.75087092812500 
 N -2.52360799999999 -2.63814504375000 -3.93589592812500 
 N -3.13125700000000 -2.85144904375000 -9.666092812499838E-002
 S -0.672069999999995 -6.77472504375000 -4.05742592812500 
 S -3.60782300000000 -6.05135904375000 -1.33931192812500 
 S -1.24867999999999 -6.95043604375000 3.745807187500172E-002
 S -0.930553999999995 -2.98772804375000 -4.28173792812500 
 S -3.89531599999999 -2.40968104375000 -1.51499392812500 
 S -1.53567299999999 -3.17610404375000 -0.207793928124998 
