16

 C -2.47769909062500 -6.45302563750000 -2.57030889062500 
 C -1.24971009062500 -6.77783563750000 -1.87189589062500 
 C -2.37818309062500 -2.61924863750000 -2.46795289062500 
 C -1.17154009062500 -3.02770863750000 -1.77776989062500 
 N -0.135104090625003 -6.83859663750000 -2.61065489062500 
 N -2.29883309062500 -6.26050763750000 -3.88047789062500 
 N -3.08768809062500 -6.60277963750000 -6.487089062499996E-002
 N -0.127969090625002 -3.27645263750000 -2.57570589062500 
 N -2.26535209062500 -2.50251863750000 -3.80776989062500 
 N -3.04645509062500 -2.78738163750000 9.232110937499982E-002
 S -0.618718090625002 -6.50318363750000 -4.16743689062500 
 S -3.86616509062500 -6.32614963750000 -1.47069489062500 
 S -1.47730509062500 -7.02946363750000 -0.117336890625000 
 S -0.750840090625002 -2.99418263750000 -4.13061989062500 
 S -3.73199209062500 -2.29338563750000 -1.30945489062500 
 S -1.41214009062500 -3.15444463750000 -2.291289062500024E-002
