16

 C -2.63886514062500 -6.63114593125000 -2.13911006562500 
 C -1.42778714062500 -7.20280793125000 -1.63461206562500 
 C -2.32765214062500 -2.73108293125000 -2.33239006562500 
 C -1.15833614062500 -3.35608393125000 -1.74577606562500 
 N -0.564947140624997 -7.52372493125000 -2.59661406562500 
 N -2.56666414062500 -6.31516793125000 -3.44503806562500 
 N -2.96427514062500 -6.97269893125000 0.451306934375000 
 N -0.222149140624997 -3.67550493125000 -2.63814106562500 
 N -2.18080914062500 -2.55569893125000 -3.62681506562500 
 N -2.82219914062500 -2.97983393125000 0.138549934375001 
 S -1.14346614062500 -6.95460393125000 -4.04203106562500 
 S -3.86049014062500 -6.47745993125000 -0.867870065624999 
 S -1.43877014062500 -7.53302593125000 5.392493437500034E-002
 S -0.708519140624997 -3.12841893125000 -4.13358706562500 
 S -3.59223014062500 -2.49761393125000 -1.25716506562500 
 S -1.27244414062500 -3.44763493125000 -5.830606562499940E-002
