16

 C -2.60130242187500 -6.29759738125000 -2.48901667187500 
 C -1.34743542187500 -6.64388038125000 -1.85565767187500 
 C -2.62450342187500 -3.01523838125000 -2.34814567187500 
 C -1.38444742187500 -3.34437238125000 -1.70349567187500 
 N -0.344652421875002 -6.80478738125000 -2.72331767187500 
 N -2.55997242187500 -6.23559638125000 -3.82252067187500 
 N -3.04614142187500 -6.47570038125000 6.776432812500177E-002
 N -0.333534421875002 -3.44953038125000 -2.51303167187500 
 N -2.54883142187500 -2.76106138125000 -3.66322667187500 
 N -3.10597642187500 -3.04066138125000 0.216671328125002 
 S -0.964483421875002 -6.54216638125000 -4.24459167187500 
 S -3.89781442187500 -6.17870438125000 -1.35266467187500 
 S -1.39867842187500 -6.73855338125000 -0.111137671874998 
 S -0.988729421875002 -3.16632838125000 -4.04351267187500 
 S -3.87340542187500 -2.64040538125000 -1.20573767187500 
 S -1.52553442187500 -3.45519638125000 4.538032812500181E-002
