16

 C -2.31122659062500 -6.16774115937500 -2.04999667187500 
 C -1.04276459062500 -6.67873815937500 -1.59879167187500 
 C -2.37043859062500 -2.69296715937500 -2.41800367187500 
 C -1.20940359062500 -3.12837315937500 -1.64277567187500 
 N -3.379559062500181E-002 -6.79172815937500 -2.47447467187500 
 N -2.29566459062500 -5.91746315937500 -3.32498467187500 
 N -2.70574859062500 -6.71318615937500 0.443425328124999 
 N -0.182052590625002 -3.35066115937500 -2.44252567187500 
 N -2.23865159062500 -2.75521715937500 -3.74124667187500 
 N -3.08285759062500 -2.73017015937500 8.428632812499948E-002
 S -0.765863590625002 -6.36510115937500 -3.94242867187500 
 S -3.54427159062500 -6.14358915937500 -0.844229671875000 
 S -1.16437559062500 -7.25372515937500 8.058632812499944E-002
 S -0.613425590625002 -3.09026515937500 -4.04353267187500 
 S -3.75461359062500 -2.32746615937500 -1.37704867187500 
 S -1.54750759062500 -3.42185015937500 5.336332812499944E-002
