16

 C -2.44267972500000 -6.49233931875000 -2.30682720312500 
 C -1.13632072500000 -6.84389531875000 -1.74949020312500 
 C -2.46235172500000 -3.17733331875000 -2.06875220312500 
 C -1.25567972500000 -3.42619831875000 -1.34761720312500 
 N -0.103027725000005 -6.98259431875000 -2.59476220312500 
 N -2.38710772500000 -6.31826431875000 -3.63448720312500 
 N -2.93573372500000 -6.92913231875000 0.175446796874998 
 N -0.251203725000004 -3.57405631875000 -2.18132620312500 
 N -2.40526572500000 -3.03198731875000 -3.38527920312500 
 N -3.07083672500000 -3.36909231875000 0.409334796874998 
 S -0.796921725000004 -6.65754631875000 -4.09157120312500 
 S -3.77616872500000 -6.50491831875000 -1.18652320312500 
 S -1.28477872500000 -7.15360331875000 6.103479687499824E-002
 S -0.791841725000005 -3.22765431875000 -3.72986320312500 
 S -3.90328472500000 -3.09638631875000 -1.02304420312500 
 S -1.39925172500000 -3.56609831875000 0.422873796874998 
