16

 C -2.54760214375000 -6.29397544687500 -2.46543185000000 
 C -1.29977914375000 -6.58971544687500 -1.80203085000000 
 C -2.77320714375000 -2.61121144687500 -2.58610985000000 
 C -1.52376314375000 -3.03040444687500 -2.01360385000000 
 N -0.259668143750002 -6.72543844687500 -2.62519685000000 
 N -2.47742514375000 -6.18306644687500 -3.79095185000000 
 N -3.13570914375000 -6.57868244687500 2.143215000000032E-002
 N -0.509674143750002 -3.05468944687500 -2.87370685000000 
 N -2.69376314375000 -2.50407544687500 -3.88467085000000 
 N -3.20071814375000 -3.12322344687500 -6.676084999999965E-002
 S -0.887398143750002 -6.41849144687500 -4.16507185000000 
 S -3.95037214375000 -6.42972544687500 -1.45544485000000 
 S -1.52751914375000 -6.89663644687500 -0.106440850000000 
 S -1.09682214375000 -2.74858344687500 -4.32488185000000 
 S -4.01837714375000 -2.44083044687500 -1.32948485000000 
 S -1.54565414375000 -3.36554044687500 -0.277112850000000 
