16

 C -2.34367300312500 -6.44552041875001 -2.52222707812500 
 C -1.16390800312500 -6.88082941875000 -1.86896007812500 
 C -2.54123500312500 -2.59201441875001 -2.56717507812500 
 C -1.37176000312500 -3.00193241875000 -1.75713107812500 
 N -9.009500312499963E-002 -6.95604841875000 -2.61199907812500 
 N -2.18414400312500 -6.33747841875000 -3.81048507812500 
 N -2.84154600312500 -6.47519641875000 -9.407078125000634E-003
 N -0.255850003125000 -3.20378941875000 -2.50134107812500 
 N -2.21679500312500 -2.40351041875001 -3.87230507812500 
 N -3.36247100312500 -2.86733441875000 -0.147027078125000 
 S -0.525932003124999 -6.50549741875000 -4.15008207812500 
 S -3.64592900312500 -6.24192941875000 -1.41864607812500 
 S -1.27235700312500 -7.01000741875001 -0.164082078125001 
 S -0.690613003125000 -3.02167541875000 -4.08948607812500 
 S -4.07776600312500 -2.52341141875000 -1.63161207812500 
 S -1.68066800312500 -3.14864041875000 -7.984507812500063E-002
