16

 C -2.33586302187500 -6.44673372187500 -2.30495844687500 
 C -1.05459602187500 -6.84978072187500 -1.81357744687500 
 C -2.55283302187500 -2.68737872187500 -2.44786144687500 
 C -1.39170702187500 -3.25721372187500 -1.77019244687500 
 N -0.110534021874999 -6.95372672187500 -2.74125244687500 
 N -2.34651702187500 -6.18538272187500 -3.61897944687500 
 N -2.62012202187500 -6.76030972187500 0.246101553124998 
 N -0.391913021874999 -3.47742872187500 -2.60076844687500 
 N -2.39633302187500 -2.42652972187500 -3.74144544687500 
 N -3.31539402187500 -2.98341472187500 2.777155312499846E-002
 S -0.772335021874999 -6.41481772187500 -4.14880144687500 
 S -3.54032902187500 -6.35541472187500 -1.11979344687500 
 S -1.05150602187500 -7.17791172187500 -5.144644687500177E-002
 S -0.833129021874999 -2.97287372187500 -4.03877144687500 
 S -3.94905602187500 -2.40486872187500 -1.40302844687500 
 S -1.70663802187500 -3.35493372187500 -5.117844687500162E-002
