16

 C -2.17580021562500 -6.52106774374999 -2.51044397500000 
 C -1.02855721562500 -7.08221874374999 -1.81917397500000 
 C -2.67458121562500 -2.36243474374999 -2.39848197500000 
 C -1.47456921562500 -2.93813374374999 -1.76332097500000 
 N -1.643721562500122E-002 -7.31619474374999 -2.60585797500000 
 N -2.07589621562500 -6.38104474374999 -3.82617797500000 
 N -2.70035821562500 -6.54500674374999 3.733502499999952E-002
 N -0.478518215625002 -3.24803474374999 -2.59815797500000 
 N -2.52470321562500 -2.19908974374999 -3.71921497500000 
 N -3.23795021562500 -2.65014874374999 3.800702499999953E-002
 S -0.461189215625001 -6.84270074374999 -4.15626497500000 
 S -3.47303321562500 -6.11273674374999 -1.37805897500000 
 S -1.25209221562500 -7.32821874374999 -0.131730975000000 
 S -1.01155221562500 -2.86898974374999 -4.14484997500000 
 S -3.88774121562500 -1.86779274374999 -1.30613997500000 
 S -1.67304521562500 -3.19072274374999 -3.565497500000037E-002
