16

 C -2.43443260000000 -6.81314838750000 -2.40581031250000 
 C -1.20067160000000 -7.17242438750000 -1.72712431250000 
 C -2.79707560000000 -3.27979938750000 -2.12765031250000 
 C -1.53730960000000 -3.52503638750000 -1.43413131250000 
 N -0.181710599999999 -7.16877738750000 -2.54277131250000 
 N -2.40179460000000 -6.53081138750000 -3.73573831250000 
 N -2.83693460000000 -6.89603338750000 0.197946687499997 
 N -0.410317599999999 -3.54122538750000 -2.13649531250000 
 N -2.58950360000000 -2.99578038750000 -3.38955031250000 
 N -3.36925060000000 -3.25823838750000 0.379726687499997 
 S -0.748099599999999 -6.74820538750000 -4.04836631250000 
 S -3.69856660000000 -6.41971038750000 -1.19297231250000 
 S -1.25912560000000 -7.19716938750000 2.830168749999684E-002
 S -0.958741599999999 -3.32643938750000 -3.72713631250000 
 S -4.17376460000000 -3.21753938750000 -1.02555831250000 
 S -1.73488160000000 -3.66113138750000 0.330027687499997 
