16

 C -2.31081016875000 -6.34087002812501 -2.40896767812500 
 C -1.14181016875000 -6.84691802812501 -1.77368967812500 
 C -2.54994516875000 -2.58161402812501 -2.21064467812500 
 C -1.30086816875000 -3.06831302812501 -1.67005367812500 
 N -0.113743168749997 -7.04876302812501 -2.59335567812500 
 N -2.18100716875000 -6.13162102812501 -3.71695467812500 
 N -2.84940916875000 -6.50465302812501 7.658532187500078E-002
 N -0.291882168749996 -3.19017502812501 -2.52631167812500 
 N -2.49518016875000 -2.36963602812501 -3.52339967812500 
 N -2.94007016875000 -2.88665902812501 0.287963321875001 
 S -0.648115168749997 -6.57587502812501 -4.08747167812500 
 S -3.64737316875000 -6.28301102812500 -1.34951467812500 
 S -1.25242416875000 -7.02210302812500 -8.412167812499938E-002
 S -0.963596168749996 -2.72712802812500 -3.96676767812500 
 S -3.82236716875000 -2.51716302812501 -1.01666367812500 
 S -1.34999916875000 -3.29708402812501 7.722232187500078E-002
