16

 C -2.28616828437500 -6.36107196562500 -2.48080537500000 
 C -1.13442928437500 -6.84518696562500 -1.71016337500000 
 C -2.72251928437500 -2.48780896562500 -2.47992537500000 
 C -1.47663128437500 -2.85556296562500 -1.86337037500000 
 N -2.820228437499939E-002 -6.98676796562500 -2.44785337500000 
 N -2.07514928437500 -6.15216996562500 -3.79150537500000 
 N -3.06164428437500 -6.45283596562500 -5.064037499999907E-002
 N -0.396503284374999 -2.84149196562500 -2.65492437500000 
 N -2.65135128437500 -2.31746796562500 -3.80231937500000 
 N -3.29110128437500 -2.88308296562500 3.154262500000105E-002
 S -0.501504284375000 -6.62694296562500 -4.01291637500000 
 S -3.71995528437500 -6.17692696562500 -1.52871637500000 
 S -1.47106228437500 -7.07515896562500 -3.727537499999922E-002
 S -1.03172028437500 -2.55796696562500 -4.14274937500000 
 S -4.05903828437500 -2.44982896562500 -1.40361737500000 
 S -1.64393428437500 -2.93670096562500 -8.830437499999899E-002
