16

 C -2.44645702812500 -6.48176320937500 -2.62179540625000 
 C -1.19567002812500 -6.96090720937500 -2.03163140625000 
 C -2.28968702812500 -2.57177020937500 -2.48557340625000 
 C -1.13062102812500 -3.22438620937500 -2.01406640625000 
 N -0.226846028124996 -7.27647120937500 -2.87804140625000 
 N -2.34806602812500 -6.36338920937500 -3.93286240625000 
 N -2.92322202812500 -6.50591620937500 -3.808640624999904E-002
 N -0.159398028124996 -3.22352620937500 -2.93787940625000 
 N -2.25845802812500 -2.06931620937500 -3.72436540625000 
 N -2.67055602812500 -3.16032220937500 1.504159375000103E-002
 S -0.779194028124996 -6.82488420937500 -4.41178640625000 
 S -3.74141502812500 -6.29384820937500 -1.43513540625000 
 S -1.38107302812500 -7.24476520937500 -0.277540406249999 
 S -0.767451028124996 -2.45872220937500 -4.22711840625000 
 S -3.51399702812500 -2.52338820937500 -1.26359040625000 
 S -1.11119902812500 -3.62680120937500 -0.336287406249999 
