16

 C -2.13945320000000 -6.18066956875000 -2.12913728750000 
 C -1.03524020000000 -6.81456456875000 -1.49646628750000 
 C -2.39063220000000 -2.64841256875000 -2.61036128750000 
 C -1.17399520000000 -3.04848156875000 -2.02357128750000 
 N -8.872200000000774E-003 -6.93237056875000 -2.31060128750000 
 N -1.98912720000000 -5.91852056875000 -3.39504928750000 
 N -2.82366120000000 -6.58095156875000 0.261997712500001 
 N -0.231143200000000 -3.35526556875000 -2.87256928750000 
 N -2.32974220000000 -2.57343856875000 -3.92862228750000 
 N -2.98982920000000 -3.04509756875000 -0.169338287499999 
 S -0.557579200000000 -6.54695456875000 -3.84812428750000 
 S -3.61675220000000 -6.18874056875000 -1.16393828750000 
 S -1.33699520000000 -7.28310156875000 0.149482712500001 
 S -0.768043200000000 -2.97150656875000 -4.41077428750000 
 S -3.74061720000000 -2.49722356875000 -1.52526128750000 
 S -1.35791520000000 -3.23466356875000 -0.331279287499999 
