16

 C -2.53358808750000 -6.23308920625000 -2.38773012500000 
 C -1.26457008750000 -6.61409920625000 -1.72440912500000 
 C -2.49387408750000 -2.47539920625000 -2.87471212500000 
 C -1.33470808750000 -2.91627120625000 -2.17852412500000 
 N -0.228123087499998 -6.74697020625000 -2.54469412500000 
 N -2.43927008750000 -6.08063720625000 -3.73766712500000 
 N -3.04517508750000 -6.68141520625000 0.147492875000002 
 N -0.194735087499999 -2.91874320625000 -2.86283412500000 
 N -2.28995708750000 -2.15670820625000 -4.16878812500000 
 N -3.23715808750000 -2.73084020625000 -0.426679124999999 
 S -0.835662087499998 -6.44094820625000 -4.05209912500000 
 S -3.90454108750000 -6.54712220625000 -1.24864712500000 
 S -1.39367908750000 -6.90961720625000 -6.075124999998627E-003
 S -0.666656087499999 -2.55639920625000 -4.45321312500000 
 S -3.89043408750000 -2.30058720625000 -1.87143712500000 
 S -1.60713608750000 -3.12330820625000 -0.513402124999999 
