16

 C -2.56528429375000 -6.31569822500000 -2.24370229687500 
 C -1.37446829375000 -6.85717122500000 -1.57379229687500 
 C -2.50204729375000 -3.10739622500000 -2.31938729687500 
 C -1.23902129375000 -3.28459022500000 -1.66697929687500 
 N -0.392208293750000 -7.05298122500000 -2.43460329687500 
 N -2.52162229375000 -6.18646922500000 -3.57265429687500 
 N -3.05564629375000 -6.58151722500000 0.272494703124998 
 N -0.192123293750000 -3.42187522500000 -2.49888929687500 
 N -2.43676529375000 -3.00225822500000 -3.64156629687500 
 N -3.02537929375000 -3.17111722500000 0.165082703124998 
 S -0.925024293750000 -6.60824122500000 -3.94805429687500 
 S -3.82551729375000 -6.16719722500000 -1.09791329687500 
 S -1.51860529375000 -7.10012222500000 7.536770312499774E-002
 S -0.903625293749999 -3.21271022500000 -4.01606929687500 
 S -3.81344929375000 -2.87949422500000 -1.25376529687500 
 S -1.35462729375000 -3.36469622500000 7.311670312499774E-002
