16

 C -2.30056200312500 -6.24255580625000 -2.06340089062500 
 C -1.10830000312500 -6.86683380625000 -1.54059589062500 
 C -2.32406100312500 -2.58846680625000 -2.29585589062500 
 C -1.23020600312500 -3.19447280625000 -1.59412189062500 
 N -7.472900312499675E-002 -6.93549980625000 -2.41300589062500 
 N -2.09896800312500 -5.74710680625000 -3.26872989062500 
 N -2.98641600312500 -6.79605480625000 0.391665109375002 
 N -0.208251003124996 -3.51783080625000 -2.36797789062500 
 N -2.08874900312500 -2.30369280625000 -3.57527889062500 
 N -3.09286000312500 -3.00261680625000 0.208839109375002 
 S -0.607052003124997 -6.16712980625000 -3.76643089062500 
 S -3.63781400312500 -6.15487380625000 -0.964215890624998 
 S -1.35381700312500 -7.18038480625000 0.232703109375002 
 S -0.473328003124997 -2.84220480625000 -3.84003889062500 
 S -3.78673400312500 -2.46581580625000 -1.26319289062500 
 S -1.41365800312500 -3.29758880625000 0.156819109375002 
