16

 C -2.59069542812500 -6.19719188125000 -2.69785760625000 
 C -1.34838042812500 -6.53056188125000 -2.02729360625000 
 C -2.46825642812500 -2.69979588125000 -2.53758460625000 
 C -1.16220942812500 -2.98718588125000 -1.85627760625000 
 N -0.314553428124998 -6.66895288125000 -2.82703360625000 
 N -2.48654442812500 -5.98282988125000 -4.00494960625000 
 N -3.23665242812500 -6.75296488125000 -0.270680606249999 
 N -0.144531428124997 -3.23921888125000 -2.69075960625000 
 N -2.38908042812500 -2.65733888125000 -3.87104860625000 
 N -2.97495342812500 -2.84581788125000 1.240339375000099E-002
 S -0.904577428124997 -6.40415388125000 -4.35457260625000 
 S -3.98199842812500 -6.19572788125000 -1.68428660625000 
 S -1.53231842812500 -6.94745888125000 -0.349117606249999 
 S -0.792357428124998 -2.97199288125000 -4.18038860625000 
 S -3.82749242812500 -2.71597288125000 -1.39374960625000 
 S -1.35167742812500 -3.15958488125000 -0.141498606249999 
