16

 C -2.31753412187500 -6.48077853124999 -2.51813007812500 
 C -1.05099912187500 -6.78108253124999 -1.83673307812500 
 C -2.40344412187500 -3.27137953124999 -2.10926107812500 
 C -1.11336212187500 -3.38958953124999 -1.56905607812500 
 N -5.342512187500326E-002 -6.90082453124999 -2.70250407812500 
 N -2.24943712187500 -6.44682753124999 -3.83515407812500 
 N -2.96123012187500 -6.55187753124999 -1.581607812499941E-002
 N -0.161549121875003 -3.49588953124999 -2.48405507812500 
 N -2.49973712187500 -3.23557653124999 -3.44091907812500 
 N -2.77882812187500 -3.60767453124999 0.425545921875001 
 S -0.649570121875003 -6.70020753124999 -4.24500107812500 
 S -3.73176812187500 -6.24913753124999 -1.41783607812500 
 S -1.33049412187500 -6.82555953124999 -7.350007812499948E-002
 S -0.899159121875003 -3.37267153124999 -3.95269107812500 
 S -3.68342912187500 -3.35680653124999 -0.917189078124999 
 S -1.11614512187500 -3.65713353124999 0.200071921875001 
