16

 C -2.42292613750000 -6.42477225000001 -2.33136342500000 
 C -1.14044913750000 -6.73643925000001 -1.68366542500000 
 C -2.32768613750000 -2.97142625000001 -2.11225042500000 
 C -1.04551613750000 -3.29045325000001 -1.51401242500000 
 N -0.106915137500002 -6.94174725000001 -2.51607342500000 
 N -2.34552513750000 -6.27812525000001 -3.67726142500000 
 N -3.00075813750000 -6.86137525000001 6.988657500000062E-002
 N -3.313913750000275E-002 -3.49268425000001 -2.37295142500000 
 N -2.22699813750000 -2.87213425000001 -3.43889942500000 
 N -2.73727413750000 -3.30511625000001 0.404317575000001 
 S -0.730938137500003 -6.56037225000001 -3.98947142500000 
 S -3.81817313750000 -6.51658125000001 -1.28587042500000 
 S -1.31369413750000 -6.93771825000001 -3.247042499999941E-002
 S -0.660175137500003 -3.14796425000001 -3.85552042500000 
 S -3.60768713750000 -2.96451925000001 -0.978193424999999 
 S -1.15053213750000 -3.56754625000001 0.217911575000001 
