16

 C -2.39997437187500 -6.63145803437500 -2.28043748125000 
 C -1.15524037187499 -6.91843403437500 -1.63084948125000 
 C -2.41751137187499 -2.67241003437500 -2.49184748125000 
 C -1.22159237187500 -3.24033203437500 -1.89418548125000 
 N -0.157289371874995 -7.05281803437500 -2.48906748125000 
 N -2.37651737187500 -6.46307103437500 -3.59017648125000 
 N -2.90439937187500 -6.72165103437500 0.270070518749999 
 N -0.270615371874995 -3.59672503437500 -2.76307848125000 
 N -2.29058037187500 -2.53077703437500 -3.80361748125000 
 N -3.02536937187500 -2.99313903437500 5.340751874999938E-002
 S -0.758749371874996 -6.72967203437500 -4.03368748125000 
 S -3.75261537187500 -6.61931103437500 -1.16103948125000 
 S -1.28944037187500 -6.91742403437500 0.132732518749999 
 S -0.835276371874995 -3.05457803437500 -4.29061148125000 
 S -3.72087337187499 -2.39924503437500 -1.37869748125000 
 S -1.43093137187499 -3.40442003437500 -0.151944481250001 
