16

 C -2.42413208750000 -6.42068766562500 -2.13050689375000 
 C -1.22223708750000 -6.92292266562500 -1.54714189375000 
 C -2.33443308750000 -2.69321766562500 -2.43139589375000 
 C -1.11879008750000 -3.10748866562500 -1.87436689375000 
 N -0.128788087500002 -7.05136666562500 -2.32205989375000 
 N -2.25632608750000 -6.14857566562500 -3.42754989375000 
 N -3.06566708750000 -7.18542966562500 0.246398106250001 
 N -0.162459087500002 -3.24366966562500 -2.75772889375000 
 N -2.33492908750000 -2.45010866562500 -3.71693689375000 
 N -2.88564308750000 -3.05011666562500 6.860106250000664E-003
 S -0.660402087500001 -6.53036366562500 -3.81534789375000 
 S -3.83857808750000 -6.69216066562500 -1.12849689375000 
 S -1.39659808750000 -7.37792866562500 0.133067106250001 
 S -0.765853087500002 -2.83481766562500 -4.25169289375000 
 S -3.61303408750000 -2.36235966562500 -1.31115389375000 
 S -1.22862608750000 -3.28497766562500 -0.157173893749999 
