16

 C -2.46745793750000 -6.30422866875000 -2.54491908437500 
 C -1.32848193750000 -6.83066466875000 -1.83634308437500 
 C -2.24727493750000 -2.90739266875000 -2.30828308437500 
 C -0.966401937500004 -3.40181866875000 -1.77449808437500 
 N -0.298361937500004 -7.03697766875000 -2.65890608437500 
 N -2.29263393750000 -6.10920166875000 -3.85572908437500 
 N -3.16800793750000 -6.49126166875000 -0.119185084375000 
 N -4.258937500003945E-003 -3.32710166875000 -2.67808908437500 
 N -2.13274393750000 -2.47914366875000 -3.56067608437500 
 N -2.56644993750000 -3.43401766875000 0.214843915625000 
 S -0.756862937500004 -6.53561466875000 -4.16325208437500 
 S -3.81667593750000 -5.86435666875000 -1.53231608437500 
 S -1.56375893750000 -7.03454366875000 -0.126047084375000 
 S -0.619837937500003 -2.88725066875000 -4.12658508437500 
 S -3.48663893750000 -2.99321066875000 -1.10254708437500 
 S -1.02196593750000 -3.96057866875000 -0.133094084375000 
