16

 C -2.53314259374999 -6.37815988750000 -2.51927584687500 
 C -1.27199259374999 -6.68892688750000 -1.88142484687500 
 C -2.67609059374999 -2.80962488750000 -2.29751684687500 
 C -1.43179759374999 -3.29954388750000 -1.69329784687500 
 N -0.283712593749994 -6.85833688750000 -2.75744984687500 
 N -2.50498559374999 -6.25150288750000 -3.84957284687500 
 N -2.92263259374999 -6.39818888750000 4.134515312499998E-002
 N -0.469144593749994 -3.51493088750000 -2.57661584687500 
 N -2.59251059374999 -2.72057488750000 -3.61548584687500 
 N -3.19229759374999 -3.01753588750000 0.203931153125000 
 S -0.917140593749994 -6.53499288750000 -4.23869384687500 
 S -3.79720759374999 -6.16168088750000 -1.33282384687500 
 S -1.30635759374999 -6.65280288750000 -0.188646846875000 
 S -1.05165359374999 -3.17912888750000 -4.07873084687500 
 S -3.95602459374999 -2.63987388750000 -1.21338184687500 
 S -1.57126659374999 -3.42451288750000 3.043715312500006E-002
