16

 C -2.22898560937500 -6.34123515937500 -2.56369831875000 
 C -1.02783260937500 -6.71053015937500 -1.83361631875000 
 C -2.36544760937500 -2.87573515937500 -2.51422131875000 
 C -1.12309960937500 -3.30008615937500 -1.91294331875000 
 N 2.274439062500111E-002 -7.00942615937500 -2.63435431875000 
 N -2.02931860937500 -6.24058815937500 -3.87375331875000 
 N -2.98947660937500 -6.58154215937500 -0.120960318750000 
 N -9.752560937499855E-002 -3.41159615937500 -2.75053631875000 
 N -2.30433560937500 -2.70770015937500 -3.84632331875000 
 N -2.74457960937500 -2.87707515937500 0.105275681250000 
 S -0.442952609374998 -6.59027015937500 -4.17728431875000 
 S -3.61977360937500 -5.91634415937500 -1.51249131875000 
 S -1.35512960937500 -6.71021515937500 -7.626231875000022E-002
 S -0.739496609374998 -3.07556515937500 -4.21999231875000 
 S -3.65125260937500 -2.77887515937500 -1.31501831875000 
 S -1.13826660937500 -3.29101015937500 -0.118355318750000 
