16

 C -2.28215548750000 -6.48508512187499 -2.24144225000000 
 C -1.08903448750000 -6.98155812187499 -1.63974525000000 
 C -2.34564548750000 -2.58957812187499 -2.51325225000000 
 C -1.13757348750000 -3.26084412187499 -2.05034625000000 
 N -0.120852487500004 -7.18485212187499 -2.54781825000000 
 N -2.28072348750000 -6.23178512187499 -3.55929525000000 
 N -2.82805448750000 -6.67055912187499 0.346825749999998 
 N -0.154939487500004 -3.39706112187499 -2.97832225000000 
 N -2.31983148750000 -2.28373612187499 -3.81810825000000 
 N -2.71853148750000 -3.14569012187499 4.479974999999747E-002
 S -0.752939487500004 -6.71547212187499 -4.01892225000000 
 S -3.64253748750000 -6.48105812187499 -1.14197725000000 
 S -1.24977048750000 -7.15712712187499 9.653674999999762E-002
 S -0.887820487500004 -2.79921412187499 -4.38287625000000 
 S -3.53227948750000 -2.41804112187499 -1.20954625000000 
 S -1.13566548750000 -3.48982912187499 -0.247769250000003 
