16

 C -2.61227033125000 -6.37908593125000 -2.52128608437500 
 C -1.31109633125000 -6.87007193125000 -2.08327608437500 
 C -2.71450533125000 -3.06600493125000 -2.34568008437500 
 C -1.53184633125000 -3.49989593125000 -1.59864008437500 
 N -0.401823331249997 -7.01062893125000 -3.03436208437500 
 N -2.73505333125000 -6.15998593125000 -3.83961208437500 
 N -2.92002033125000 -6.70260493125000 -6.674084375002609E-003
 N -0.399109331249996 -3.71239693125000 -2.34038808437500 
 N -2.47921333125000 -2.95927893125000 -3.65886908437500 
 N -3.39803533125000 -3.04720493125000 0.121365915624998 
 S -1.24398133125000 -6.50327593125000 -4.37216908437500 
 S -3.74203233125000 -6.08708793125000 -1.27844508437500 
 S -1.32545233125000 -7.16099493125000 -0.370634084375003 
 S -0.892927331249997 -3.34094493125000 -3.91815108437500 
 S -4.11221533125000 -2.70380293125000 -1.35240108437500 
 S -1.75681133125000 -3.33506393125000 0.110986915624997 
