16

 C -2.38133020937500 -6.52388826562500 -2.55026245000000 
 C -1.14315620937500 -6.70758926562500 -1.83587045000000 
 C -2.42370220937500 -3.24678626562500 -2.13100545000000 
 C -1.06834120937500 -3.50321526562500 -1.55480045000000 
 N -9.050920937500173E-002 -6.94509826562500 -2.65367845000000 
 N -2.30156420937500 -6.48660426562500 -3.89465545000000 
 N -2.95996020937500 -6.55646726562500 -9.136450000000407E-003
 N -5.547920937500184E-002 -3.57901126562500 -2.45747645000000 
 N -2.43156120937500 -3.10624226562500 -3.46709645000000 
 N -2.79679320937500 -3.60721826562500 0.416516550000000 
 S -0.672951209375002 -6.72018526562500 -4.21023045000000 
 S -3.74813920937500 -6.28073826562500 -1.46205445000000 
 S -1.28141120937500 -6.81038026562500 -0.103409450000000 
 S -0.868354209375002 -3.39220626562500 -3.91033845000000 
 S -3.70696220937500 -3.36252426562500 -0.959437450000000 
 S -1.17833220937500 -3.67879426562500 0.207129550000000 
