16

 C -2.59749983437501 -6.67999600000000 -2.28145853750000 
 C -1.36293483437501 -7.04484600000000 -1.65808653750000 
 C -2.67391183437501 -2.38849000000000 -2.34585153750000 
 C -1.57083783437501 -3.04369600000000 -1.66654553750000 
 N -0.306557834375008 -7.10770400000000 -2.46702653750000 
 N -2.50568683437501 -6.47551600000000 -3.57653953750000 
 N -3.17384083437501 -6.83000300000000 0.206963462500001 
 N -0.538300834375008 -3.22809500000000 -2.47858653750000 
 N -2.56125883437501 -2.28416400000000 -3.66367353750000 
 N -3.46724883437501 -2.78074600000000 9.587646250000126E-002
 S -0.955628834375008 -6.71887900000000 -3.97463253750000 
 S -3.91323683437501 -6.51062400000000 -1.21378053750000 
 S -1.62309383437501 -7.25079800000000 7.972846250000121E-002
 S -0.977377834375008 -2.77788800000000 -3.98703253750000 
 S -4.01829983437501 -2.04503800000000 -1.31626453750000 
 S -1.92543983437501 -3.34983100000000 -8.739537499998784E-003
