16

 C -2.44155676875000 -6.49708467187500 -2.31362706250000 
 C -1.26219176875000 -7.00524567187500 -1.67103806250000 
 C -2.53080176875000 -2.75197367187500 -2.51160206250000 
 C -1.28879876875000 -3.11685867187500 -1.80262606250000 
 N -0.203298768750000 -7.19558167187500 -2.47260106250000 
 N -2.35485776875000 -6.27290067187500 -3.62307206250000 
 N -3.16905176875000 -6.65283267187500 0.133593937500003 
 N -0.242756768750000 -3.26563767187500 -2.59474206250000 
 N -2.34276976875000 -2.45809367187500 -3.80687606250000 
 N -3.16884976875000 -3.12642567187500 -4.351106249999659E-002
 S -0.791363768750000 -6.74914367187500 -4.02310706250000 
 S -3.85559176875000 -6.39634067187500 -1.34544906250000 
 S -1.58609976875000 -7.21243667187500 6.512793750000334E-002
 S -0.710424768750000 -2.80915267187500 -4.10778306250000 
 S -3.87875976875000 -2.72762567187500 -1.46765506250000 
 S -1.53343376875000 -3.37444467187500 -0.124439062499997 
