16

 C -2.31787588125000 -6.37512907500001 -2.64901669375000 
 C -1.09187988125000 -6.77499507500000 -2.00208469375000 
 C -2.77564288125000 -2.72402307500001 -2.34109469375000 
 C -1.61470588125000 -3.02114207500000 -1.63871069375000 
 N -7.895488125000227E-002 -7.08597507500000 -2.80684969375000 
 N -2.18756288125000 -6.35539107500001 -3.96652569375000 
 N -2.79528788125000 -6.43379607500001 -7.765569374999970E-002
 N -0.556001881250002 -3.12913007500001 -2.42325169375000 
 N -2.64928588125000 -2.62723807500000 -3.66570269375000 
 N -3.43909788125000 -2.86892707500000 0.136869306250000 
 S -0.661424881250002 -6.79904307500001 -4.33246669375000 
 S -3.55655888125000 -6.07844707500001 -1.49303069375000 
 S -1.18244988125000 -6.87663007500000 -0.204909693749999 
 S -1.07690988125000 -3.03096807500000 -3.95586269375000 
 S -4.06709288125000 -2.28791207500000 -1.25631869375000 
 S -1.80605288125000 -3.10876907500000 7.546530625000036E-002
