16

 C -2.35239450000001 -6.43566469375000 -2.42150009375000 
 C -1.10074950000001 -6.71274169375000 -1.74778409375000 
 C -2.60068850000001 -2.69490869375000 -2.49332009375000 
 C -1.39200150000001 -3.23674269375000 -1.83042409375000 
 N -6.253150000000751E-002 -6.87373369375000 -2.54015309375000 
 N -2.30429050000001 -6.46290069375000 -3.75342209375000 
 N -2.97040350000001 -6.52130869375000 8.929490624999836E-002
 N -0.363659500000007 -3.46974469375000 -2.64936809375000 
 N -2.44564150000001 -2.61006569375000 -3.80555009375000 
 N -3.21357350000001 -2.91753769375000 -7.971109375000163E-002
 S -0.665853500000007 -6.77223669375000 -4.10585409375000 
 S -3.77153750000001 -6.25289269375000 -1.34585409375000 
 S -1.35208050000001 -6.90376369375000 -4.894109375000166E-002
 S -0.921190500000007 -3.19241369375000 -4.19726709375000 
 S -3.94322350000001 -2.45850669375000 -1.48240209375000 
 S -1.66907250000001 -3.40347269375000 -0.160092093750002 
