16

 C -2.62022852187500 -6.47674673750000 -2.23257134687500 
 C -1.39112852187500 -6.97613573750000 -1.63419534687500 
 C -2.42763352187500 -2.87056273750000 -2.21905634687500 
 C -1.16692552187500 -3.18100273750000 -1.57511734687500 
 N -0.334941521874999 -7.04301673750000 -2.47518734687500 
 N -2.49443452187500 -6.23546273750000 -3.54047334687500 
 N -3.14784152187500 -6.64411073750000 0.281850653124997 
 N -0.173820521874999 -3.53927773750000 -2.41362234687500 
 N -2.34254952187500 -2.86392873750000 -3.54439334687500 
 N -2.91222652187500 -2.98961773750000 0.313920653124997 
 S -0.882847521874999 -6.57918873750000 -4.00453734687500 
 S -3.90428952187500 -6.27369773750000 -1.09734234687500 
 S -1.52403652187500 -7.09805873750000 0.165798653124997 
 S -0.813135521874999 -3.21876373750000 -3.95823834687500 
 S -3.83573552187500 -2.74134773750000 -1.04141634687500 
 S -1.26185852187500 -3.37222573750000 0.135362653124997 
