16

 C -2.43840663749999 -6.50393347187501 -2.18751795937500 
 C -1.21678463749999 -7.07027547187501 -1.63526495937500 
 C -2.18907463749999 -2.45864447187501 -2.61643895937500 
 C -1.03641563749999 -2.95189047187501 -1.84516995937500 
 N -0.204553637499995 -7.20898747187501 -2.49590795937500 
 N -2.39207663750000 -6.31807647187501 -3.49412695937500 
 N -2.87086063750000 -6.83172047187501 0.306240040624999 
 N 1.497536250000486E-002 -3.24013247187501 -2.61345295937500 
 N -1.98940363750000 -2.27378347187501 -3.95391695937500 
 N -3.00739463749999 -2.93070847187501 -0.173242959375001 
 S -0.876010637499995 -6.69761847187501 -3.94509195937500 
 S -3.72337363749999 -6.33127747187501 -1.09399195937500 
 S -1.32182463750000 -7.33309547187501 0.107491040624998 
 S -0.435547637499995 -2.85800647187501 -4.17479795937500 
 S -3.64767563749999 -2.38416447187501 -1.59552695937500 
 S -1.33487163749999 -3.09614247187501 -5.930995937500150E-002
