16

 C -2.28906158750000 -6.46065745000000 -2.50067790312500 
 C -1.07122958750000 -6.82976745000000 -1.80561690312500 
 C -2.50897558750000 -2.50640645000000 -2.64834890312500 
 C -1.44079958750000 -3.07659445000000 -1.89219690312500 
 N -4.367858749999698E-002 -6.90843745000000 -2.64110090312500 
 N -2.14999558750000 -6.22481445000000 -3.80437190312500 
 N -2.95928958750000 -6.55957845000000 -2.838690312499947E-002
 N -0.363392587499997 -3.35858245000000 -2.58583490312500 
 N -2.23944958750000 -2.27530145000000 -3.91710190312500 
 N -3.48201058750000 -2.79419545000000 -0.277245903124999 
 S -0.579900587499997 -6.57724545000000 -4.22059290312500 
 S -3.70497058750000 -6.32935745000000 -1.52572790312500 
 S -1.28626058750000 -6.77034645000000 -0.101204903124999 
 S -0.624001587499998 -2.65922445000000 -4.08601890312500 
 S -3.98316258750000 -2.19779145000000 -1.73977190312500 
 S -1.86403958750000 -3.30951745000000 -0.198394903124999 
