16

 C -2.48127699062500 -6.60689674062500 -2.46190534687500 
 C -1.16819599062500 -6.79704574062500 -1.77848134687500 
 C -2.46372099062500 -2.19098874062500 -2.80658034687500 
 C -1.48046899062500 -2.89483274062500 -2.10196234687500 
 N -0.139006990624996 -6.65185074062500 -2.60225134687500 
 N -2.39572299062500 -6.46399574062500 -3.79874934687500 
 N -2.97122699062500 -6.48928974062500 6.825865312499912E-002
 N -0.336879990624996 -3.13351074062500 -2.77107934687500 
 N -2.15194599062500 -1.81869974062500 -4.06267634687500 
 N -3.46507399062500 -2.73231174062500 -0.480739346875001 
 S -0.795062990624996 -6.37651974062500 -4.10357034687500 
 S -3.85766199062500 -6.41095874062500 -1.41330634687500 
 S -1.38124899062500 -6.80897074062500 2.066465312499921E-002
 S -0.642830990624996 -2.49444174062500 -4.30115334687500 
 S -3.82478999062500 -1.95903074062500 -1.89234534687500 
 S -1.89404799062500 -3.24476074062500 -0.428504346875001 
