16

 C -2.34534943749999 -6.39626670625000 -2.51668727500000 
 C -1.15433843749999 -6.75056970625000 -1.81072827500000 
 C -2.31022043749999 -2.89318770625000 -2.45509327500000 
 C -0.999995437499991 -3.23206270625000 -1.87119927500000 
 N -0.115604437499991 -6.93546070625000 -2.59154527500000 
 N -2.24528343749999 -6.27496870625000 -3.82645227500000 
 N -2.86804443749999 -6.44246970625000 1.800872499999850E-002
 N 1.431856250000951E-002 -3.34350370625000 -2.75265727500000 
 N -2.30675343749999 -2.87764170625000 -3.79402527500000 
 N -2.68832443749999 -2.92796670625000 0.123862724999999 
 S -0.665730437499991 -6.70526770625000 -4.11974627500000 
 S -3.67348343749999 -6.16694670625000 -1.42392627500000 
 S -1.27464943749999 -6.80700670625000 -0.128966275000001 
 S -0.757932437499991 -3.14112970625000 -4.21443727500000 
 S -3.59254143749999 -2.72846270625000 -1.29478127500000 
 S -1.13175043749999 -3.43416770625000 -8.257327500000167E-002
