16

 C -2.32421853749999 -6.31787299062500 -2.14893095625000 
 C -1.12483553749999 -6.92545399062500 -1.58866195625000 
 C -2.24786553749999 -2.77129099062500 -2.65368995625000 
 C -1.06409453749999 -3.10652399062500 -1.89143395625000 
 N -0.148472537499994 -7.00976799062500 -2.45769495625000 
 N -2.36030653749999 -6.09359699062500 -3.48016195625000 
 N -2.89436153749999 -6.94162099062500 0.329985043749999 
 N 4.580246250000641E-002 -3.21520299062500 -2.64471495625000 
 N -2.04458253749999 -2.64675899062500 -3.95627995625000 
 N -2.88828253749999 -2.63936899062500 -0.153448956250001 
 S -0.756003537499994 -6.44337599062500 -3.89376595625000 
 S -3.72414553749999 -6.44084699062500 -0.986109956250001 
 S -1.31028853749999 -7.45308399062500 6.240204374999903E-002
 S -0.451908537499994 -3.03933399062500 -4.22796695625000 
 S -3.58238353749999 -2.29498499062500 -1.63535795625000 
 S -1.30571353749999 -3.20158799062500 -0.166659956250001 
