16

 C -2.41837368750000 -6.52904963125000 -2.51566740937500 
 C -1.13459068750000 -6.94241163125000 -1.91037840937500 
 C -2.71304268750000 -2.66907863125000 -2.33102440937500 
 C -1.50727268750000 -3.21461363125000 -1.65393340937500 
 N -0.121715687500004 -7.07491563125000 -2.76292640937500 
 N -2.29328468750000 -6.39440363125000 -3.82860740937500 
 N -2.92257168750000 -6.73251063125000 -9.455540937500295E-002
 N -0.509524687500003 -3.44527163125000 -2.51385940937500 
 N -2.56675768750000 -2.36776563125000 -3.62984440937500 
 N -3.32242368750000 -2.82553763125000 0.127434590624997 
 S -0.762287687500003 -6.71263263125000 -4.25536840937500 
 S -3.74378268750000 -6.27263363125000 -1.43423440937500 
 S -1.29520468750000 -7.16435963125000 -0.149972409375003 
 S -1.03094768750000 -2.92748563125000 -3.99036740937500 
 S -3.99071668750000 -2.19438563125000 -1.30166340937500 
 S -1.69764468750000 -3.43859963125000 4.624059062499697E-002
