16

 C -2.67141371562500 -6.41103109062499 -2.44418373437500 
 C -1.53368271562500 -6.98243609062499 -1.72944373437500 
 C -2.33642671562500 -2.70216909062499 -2.51489873437500 
 C -1.13231671562500 -3.19690709062499 -1.78602673437500 
 N -0.457484715625000 -7.32527709062499 -2.42942473437500 
 N -2.43842071562500 -6.32624009062499 -3.75419373437500 
 N -3.20368871562500 -6.32359909062499 8.711126562499860E-002
 N -4.248371562499997E-002 -3.35178709062499 -2.56454173437500 
 N -2.18847471562500 -2.61738709062499 -3.84837773437500 
 N -2.96205571562500 -2.91081209062499 -3.368273437500147E-002
 S -0.896735715625001 -6.90500209062499 -3.98748173437500 
 S -3.98857871562500 -5.98686109062499 -1.36842773437500 
 S -1.67852071562500 -7.01015709062499 3.164026562499855E-002
 S -0.599977715625000 -3.00846609062499 -4.13414573437500 
 S -3.74616571562500 -2.52703709062499 -1.48729873437500 
 S -1.36620071562500 -3.31575809062499 -5.489473437500125E-002
