16

 C -2.30039878750000 -6.42329458749999 -2.35606709687500 
 C -1.20501078750000 -6.94443058749999 -1.60485009687500 
 C -2.52147078750000 -2.61217858749999 -2.61658009687500 
 C -1.25301778750000 -3.01866158749999 -2.03628409687500 
 N -0.120122787500001 -7.19991858749999 -2.34229109687500 
 N -2.02057478750000 -6.07237158749999 -3.65325309687500 
 N -2.92245378750000 -6.37949758749999 0.141866903124999 
 N -0.187996787500001 -3.08379658749999 -2.87919109687500 
 N -2.48597378750000 -2.43229358749999 -3.93833109687500 
 N -2.96575178750000 -2.98979958749999 -1.402109687500053E-002
 S -0.455301787500001 -6.67438958749999 -3.86542209687500 
 S -3.63080378750000 -5.86364458749999 -1.23564809687500 
 S -1.34309178750000 -6.96174858749999 8.148190312499937E-002
 S -0.892799787500001 -2.59960158749999 -4.31714409687500 
 S -3.77022278750000 -2.39725858749999 -1.36995209687500 
 S -1.38509178750000 -3.38888558749999 -0.316285096875001 
