16

 C -2.27104200000000 -6.07951228750000 -2.28625664687500 
 C -1.10408800000000 -6.73244428750000 -1.75265264687500 
 C -2.74326100000000 -2.46285228750000 -2.71556064687500 
 C -1.48145700000000 -2.81722128750000 -2.09078464687500 
 N -0.198470999999998 -7.04289428750000 -2.64891064687500 
 N -2.23570800000000 -5.84402128750000 -3.59615964687500 
 N -2.65939000000000 -6.40473928750000 0.297472353124999 
 N -0.473336999999998 -3.09079828750000 -2.95607964687500 
 N -2.65010600000000 -2.27678328750000 -4.06129364687500 
 N -3.19384600000000 -2.39256128750000 -0.159200646875001 
 S -0.806835999999998 -6.54475028750000 -4.13674064687500 
 S -3.48380500000000 -5.74738728750000 -1.02926264687500 
 S -1.19547300000000 -7.03484028750000 -4.082364687500117E-002
 S -1.12600700000000 -2.75480928750000 -4.40030664687500 
 S -3.99211500000000 -2.17585328750000 -1.62841664687500 
 S -1.62310700000000 -2.82785528750000 -0.353623646875001 
