16

 C -2.60961433125000 -6.57563807499999 -2.30228931875000 
 C -1.37962033125000 -7.03600407499999 -1.66106731875000 
 C -2.72827533125000 -2.54807607499999 -2.33829031875000 
 C -1.68659133125000 -3.19520007499999 -1.66556531875000 
 N -0.368188331250003 -7.23598907499999 -2.49939531875000 
 N -2.40021533125000 -6.41619307499999 -3.62504531875000 
 N -3.01474433125000 -6.88696407499999 0.197108681250002 
 N -0.606247331250004 -3.36821607499999 -2.41160131875000 
 N -2.49631433125000 -2.31693707499999 -3.61623931875000 
 N -3.40280033125000 -2.55829407499999 0.100743681250002 
 S -0.862361331250003 -6.82035207499999 -4.01014331875000 
 S -3.91720933125000 -6.46316407499999 -1.13165131875000 
 S -1.44189633125000 -7.45263107499999 2.104068125000169E-002
 S -0.914183331250004 -2.89229707499999 -3.93290831875000 
 S -4.05155633125000 -1.98922007499999 -1.35822831875000 
 S -1.97500533125000 -3.41668307499999 2.316668125000154E-002
