16

 C -2.38400633437500 -6.81576400000000 -2.19456375625000 
 C -1.11974933437500 -7.18327000000000 -1.61441975625000 
 C -2.52597633437500 -2.79597000000000 -2.45042675625000 
 C -1.23318233437500 -3.17787800000000 -1.82053975625000 
 N -0.104021334375001 -7.24694700000000 -2.46139275625000 
 N -2.31115233437500 -6.58306900000000 -3.50692475625000 
 N -2.80608233437500 -6.95837100000000 0.332305243749999 
 N -0.195143334375000 -3.31101500000000 -2.63777475625000 
 N -2.44732133437500 -2.66713700000000 -3.78267975625000 
 N -2.91663433437500 -2.94798300000000 0.135943243749999 
 S -0.779614334375001 -6.85846600000000 -3.95661975625000 
 S -3.78502033437500 -6.65452700000000 -1.01929775625000 
 S -1.23643933437500 -7.36331900000000 0.154099243749999 
 S -0.858718334375001 -2.99624600000000 -4.19374475625000 
 S -3.79492533437500 -2.58203600000000 -1.25825275625000 
 S -1.30726533437500 -3.31491200000000 -3.303375625000093E-002
