16

 C -2.57626205312500 -6.63235082812500 -2.38005913750000 
 C -1.35489305312500 -7.07222182812500 -1.75327013750000 
 C -2.39879005312500 -2.99281882812500 -2.33532213750000 
 C -1.15847805312500 -3.55999382812500 -1.86305813750000 
 N -0.374181053124996 -7.38933782812500 -2.57640413750000 
 N -2.55323805312500 -6.59517782812500 -3.71486813750000 
 N -3.02479905312500 -6.82352682812500 0.195477862499999 
 N -0.153725053124997 -3.66044082812500 -2.76488313750000 
 N -2.39728705312500 -2.82617982812500 -3.67527713750000 
 N -2.76267805312500 -3.30193282812500 0.204983862499999 
 S -0.974012053124996 -7.00255582812500 -4.08425513750000 
 S -3.87329205312500 -6.53391082812500 -1.18774613750000 
 S -1.42640805312500 -7.23117382812500 1.442862499998920E-003
 S -0.887024053124996 -3.21433882812500 -4.23630013750000 
 S -3.63032305312500 -2.74957182812500 -1.14865413750000 
 S -1.21496605312500 -3.88480682812500 -0.101531137500001 
