16

 C -2.61562127812500 -6.36551345937500 -2.46427930625000 
 C -1.33358527812500 -6.61050445937500 -1.81206230625000 
 C -2.70175927812500 -2.65993545937500 -2.56309830625000 
 C -1.40964427812500 -2.96575845937500 -1.98960030625000 
 N -0.255565278125001 -6.65680745937500 -2.59820630625000 
 N -2.44873527812500 -6.29240745937500 -3.80555230625000 
 N -3.11523927812500 -6.53911145937500 5.983069374999994E-002
 N -0.412641278125001 -3.01090845937500 -2.82064830625000 
 N -2.71625427812500 -2.47390945937500 -3.86636230625000 
 N -3.11037827812500 -3.13550245937500 -9.207730625000021E-002
 S -0.808376278125001 -6.38449045937500 -4.10721730625000 
 S -3.94168427812500 -6.46007945937500 -1.35063930625000 
 S -1.46916427812500 -6.91824245937500 -0.114148306250000 
 S -1.18071127812500 -2.74061845937500 -4.38218130625000 
 S -3.96587227812500 -2.49201145937500 -1.37216230625000 
 S -1.49565027812500 -3.34743445937500 -0.336623306250000 
