16

 C -2.50981347812500 -6.69106407500000 -2.39263625937500 
 C -1.23997847812500 -6.93872907500000 -1.78793025937500 
 C -2.11624747812500 -2.88274907500000 -2.41202825937500 
 C -0.959866478125002 -3.25073407500000 -1.59872825937500 
 N -0.179673478125001 -6.92126907500000 -2.57743125937500 
 N -2.38605047812500 -6.55539107500000 -3.71407425937500 
 N -2.93673547812500 -7.03371707500000 7.020374062500068E-002
 N 0.114200521874999 -3.40555307500000 -2.36315825937500 
 N -1.93488347812500 -2.76013007500000 -3.72232825937500 
 N -2.92645547812500 -3.09744507500000 2.767974062500067E-002
 S -0.809951478125002 -6.56477107500000 -4.04054025937500 
 S -3.80005847812500 -6.78802407500000 -1.34079425937500 
 S -1.30755747812500 -7.26719607500000 -6.361325937499940E-002
 S -0.295380478125002 -3.08557807500000 -3.97057025937500 
 S -3.51641547812500 -2.51433307500000 -1.41933525937500 
 S -1.32302547812500 -3.66780307500000 4.235974062500047E-002
