16

 C -2.25438305624999 -6.44444530937500 -2.26317366250000 
 C -1.04689105624999 -7.05153830937500 -1.68776466250000 
 C -2.33172205624999 -2.62482430937500 -2.45398866250000 
 C -1.12764305624999 -3.12135430937500 -1.85615766250000 
 N -0.137272056249993 -7.30657930937500 -2.60397466250000 
 N -2.21815305624999 -6.31874430937500 -3.60012166250000 
 N -2.64682005624999 -6.68441930937500 0.315415337500000 
 N -0.133647056249993 -3.30479330937500 -2.69894466250000 
 N -2.16157005624999 -2.27111730937501 -3.71154366250000 
 N -2.86118305624999 -3.09259430937500 3.423233749999954E-002
 S -0.724155056249994 -6.86066930937500 -4.10072166250000 
 S -3.39548005624999 -6.07245430937500 -1.00651266250000 
 S -1.15462505624999 -7.31381630937500 -8.386625000005310E-004
 S -0.581067056249993 -2.79877630937500 -4.21513166250000 
 S -3.58981005624999 -2.41473730937500 -1.28738266250000 
 S -1.33221005624999 -3.59056430937500 -0.195257662500000 
