16

 C -2.48429900625000 -6.22858766249999 -2.48112039687500 
 C -1.29731700625000 -6.78686666249999 -1.82187139687500 
 C -2.41902100625000 -2.99218166249999 -2.59894239687500 
 C -1.15045400625000 -3.30014766249999 -1.86329439687500 
 N -0.330632006249996 -6.95183466249999 -2.68574439687500 
 N -2.40712600625000 -5.99237266249999 -3.78579139687500 
 N -3.00792000625000 -6.26652466249999 5.452060312500007E-002
 N -6.591900624999525E-002 -3.48357766249999 -2.61033139687500 
 N -2.24496500625000 -2.89527266249999 -3.90231739687500 
 N -2.90704300625000 -2.98881066249999 -3.465739687499991E-002
 S -0.854897006249995 -6.52090566249999 -4.19425339687500 
 S -3.75624300625000 -5.94166066250000 -1.35202039687500 
 S -1.34833800625000 -6.69574466249999 -7.661339687500002E-002
 S -0.635392006249996 -3.19214266249999 -4.17882439687500 
 S -3.72744100625000 -2.92464366249999 -1.49011939687500 
 S -1.29855800625000 -3.40223766249999 -0.147114396875000 
