16

 C -2.75440164062500 -6.75649755624999 -2.33076164375000 
 C -1.47973564062500 -7.01779955624999 -1.67372464375000 
 C -2.43187464062500 -3.09751655624999 -2.43326564375000 
 C -1.10475764062500 -3.12715155624999 -1.90889264375000 
 N -0.440877640625001 -7.02554855624999 -2.51641064375000 
 N -2.73254164062500 -6.62307155624999 -3.65047164375000 
 N -3.15730664062500 -6.69673955624999 0.171744356249998 
 N -0.152170640625001 -3.22853255624999 -2.82649164375000 
 N -2.52319464062500 -3.27082155624999 -3.75412964375000 
 N -2.75734264062500 -3.11032655624999 0.111569356249998 
 S -1.07233764062500 -6.69502755624999 -4.00515664375000 
 S -4.02419064062500 -6.36939255624999 -1.19307764375000 
 S -1.50095964062500 -7.04193855624999 1.646356249997538E-003
 S -0.948462640625001 -3.22836955624999 -4.28730764375000 
 S -3.64306164062500 -2.98805555624999 -1.23807864375000 
 S -1.11571564062500 -3.33376255624999 -0.160283643750002 
