16

 C -2.12990922500000 -6.42682500625000 -2.51855178437500 
 C -1.03310322500000 -7.04131900625000 -1.84526978437500 
 C -2.65008622500000 -2.36810400625000 -2.43090478437500 
 C -1.56609422500000 -3.02696600625000 -1.79187078437500 
 N -1.198222499999968E-002 -7.24599000625000 -2.66148478437500 
 N -2.03378622500000 -6.26219200625000 -3.82066278437500 
 N -2.79011622500000 -6.54144200625000 -3.179778437500080E-002
 N -0.504408225000000 -3.39683700625000 -2.54663478437500 
 N -2.46730122500000 -2.16982000625000 -3.74958378437500 
 N -3.28090022500000 -2.48020700625000 9.000621562499900E-002
 S -0.518917224999999 -6.86771000625000 -4.20688378437500 
 S -3.50559122500000 -6.11687800625000 -1.48143978437500 
 S -1.32226722500000 -7.33306000625000 -0.174450784375001 
 S -0.977632225000000 -2.80387300625000 -4.04918678437500 
 S -3.89347022500000 -1.90700200625000 -1.31072078437500 
 S -1.75483222500000 -3.16047800625000 -6.282778437500069E-002
