16

 C -2.57192941562501 -6.56849916875000 -2.42043521250000 
 C -1.31640841562501 -6.87513216875000 -1.72760121250000 
 C -2.66028541562501 -2.83045916875000 -2.51410221250000 
 C -1.47596841562501 -3.27541116875000 -1.86985221250000 
 N -0.235203415625008 -6.99251316875000 -2.47101421250000 
 N -2.43006541562501 -6.56079316875000 -3.74261421250000 
 N -3.08802041562501 -6.44272416875000 8.138278749999861E-002
 N -0.493712415625008 -3.45715116875000 -2.74304721250000 
 N -2.60583941562501 -2.73250016875000 -3.85304021250000 
 N -3.07580741562501 -2.89468716875000 4.616778749999861E-002
 S -0.780977415625007 -6.84506716875000 -4.04075821250000 
 S -3.88889341562501 -6.19546516875000 -1.38276021250000 
 S -1.46278541562501 -6.87828216875000 4.909278749999868E-002
 S -0.974459415625008 -2.97760616875000 -4.25274121250000 
 S -3.88171241562501 -2.46693016875000 -1.34328421250000 
 S -1.53036341562501 -3.38301216875000 -0.128641212500001 
