16

 C -2.50166626250000 -6.39321695625001 -2.27527681875000 
 C -1.23120226250000 -6.70254995625001 -1.67083081875000 
 C -2.41566626250000 -2.66322395625001 -2.88526381875000 
 C -1.16393626250000 -2.81859495625001 -2.22619381875000 
 N -0.211331262500003 -6.72344195625001 -2.51801481875000 
 N -2.37139026250000 -6.12994995625001 -3.55724681875000 
 N -2.99090026250000 -6.87009395625001 0.160549181250000 
 N -0.136459262500003 -2.75517295625001 -3.06538281875000 
 N -2.37394426250000 -2.52614495625001 -4.18543281875000 
 N -2.97894726250000 -3.05229995625001 -0.408928818750000 
 S -0.780269262500004 -6.28279995625001 -4.03412381875000 
 S -3.77622026250000 -6.21775395625001 -1.16592881875000 
 S -1.35567726250000 -7.02878295625001 1.522418124999958E-002
 S -0.798160262500003 -2.62725895625001 -4.55648281875000 
 S -3.83676026250000 -2.72595095625001 -1.79717781875000 
 S -1.37610426250000 -3.03560395625001 -0.544434818750001 
