16

 C -2.43161577500000 -6.48304106875001 -2.43152367187500 
 C -1.16492977500000 -6.66883506875001 -1.75895967187500 
 C -2.55962577500000 -2.77493206875001 -2.47912967187500 
 C -1.41833277500000 -3.30029806875001 -1.85493467187500 
 N -7.284477500000364E-002 -6.89994706875001 -2.53243767187500 
 N -2.29280177500000 -6.50615606875001 -3.75350067187500 
 N -2.99942977500000 -6.47437106875001 0.112786328124999 
 N -0.396048775000003 -3.41925706875001 -2.67119567187500 
 N -2.45088377500000 -2.62267606875001 -3.77370467187500 
 N -3.18050377500000 -2.90939906875001 -6.235167187500057E-002
 S -0.687722775000004 -6.79540506875001 -4.09398167187500 
 S -3.77723477500000 -6.24767706875001 -1.33703867187500 
 S -1.41549177500000 -6.90430406875001 -5.002667187500043E-002
 S -0.954917775000004 -3.14574906875001 -4.21043167187500 
 S -3.95890677500000 -2.44480506875001 -1.45169767187500 
 S -1.63823777500000 -3.40032806875001 -0.174695671875000 
