16

 C -2.50662572500000 -6.61704274062500 -2.42470225312500 
 C -1.40435172500000 -7.20440574062500 -1.73408825312500 
 C -2.56592372500000 -2.62757574062500 -2.41709725312500 
 C -1.43429172500000 -3.25779774062500 -1.77358325312500 
 N -0.393194724999997 -7.46529774062500 -2.54410125312500 
 N -2.37001572500000 -6.37850374062500 -3.73770625312500 
 N -3.08472272500000 -6.59347374062500 0.120187746874998 
 N -0.439713724999997 -3.68861874062500 -2.58722525312500 
 N -2.40358372500000 -2.43175674062500 -3.73102125312500 
 N -3.17163772500000 -2.76030274062500 7.474074687499765E-002
 S -0.878336724999997 -7.01400274062500 -4.06758625312500 
 S -3.79016672500000 -6.12145774062500 -1.26531925312500 
 S -1.56274272500000 -7.22728174062500 -5.901625312500247E-002
 S -0.891428724999996 -3.04552174062500 -4.05753125312500 
 S -3.93939972500000 -2.36848774062500 -1.37349125312500 
 S -1.61058172500000 -3.33526174062500 -2.972625312500243E-002
