16

 C -2.41571213437500 -6.57219166875000 -2.31524867812500 
 C -1.22488113437500 -7.17810266875000 -1.76908167812500 
 C -2.63894413437500 -2.47781866875000 -2.35242167812500 
 C -1.67299413437500 -3.25874966875000 -1.64439767812500 
 N -0.324165134374997 -7.37307066875000 -2.73986367812500 
 N -2.36262213437500 -6.21652466875000 -3.59705167812500 
 N -2.90341213437500 -7.04757066875000 0.132686321875000 
 N -0.708742134374997 -3.70932166875000 -2.42225267812500 
 N -2.39002613437500 -2.33466466875000 -3.62852867812500 
 N -3.40319513437500 -2.55843366875000 7.400532187499964E-002
 S -0.917331134374997 -6.69815166875000 -4.16013967812500 
 S -3.71149013437500 -6.46190766875000 -1.20602767812500 
 S -1.32636113437500 -7.48880066875000 -4.062567812500051E-002
 S -0.944678134374997 -3.17606266875000 -3.92586367812500 
 S -3.97508613437500 -2.04137266875000 -1.42227367812500 
 S -1.95085513437500 -3.29866066875000 5.665132187499955E-002
