16

 C -2.21390294687500 -6.62631102812501 -2.21398065937500 
 C -0.936207946875000 -7.11223202812501 -1.66642365937500 
 C -2.47526794687500 -2.68809602812501 -2.28524665937500 
 C -1.29050994687500 -3.29896402812501 -1.75159365937500 
 N 3.399605312499965E-002 -7.18515502812501 -2.57461765937500 
 N -2.25596494687500 -6.36289502812501 -3.51028265937500 
 N -2.60259494687500 -6.98770302812501 0.345131340625001 
 N -0.293556946875000 -3.54258802812501 -2.60316965937500 
 N -2.36310794687500 -2.38575902812501 -3.57462765937500 
 N -2.98316994687500 -3.19093402812501 0.221458340625001 
 S -0.670451946875001 -6.64111402812501 -4.02099865937500 
 S -3.44165794687500 -6.42479102812501 -0.986532659374999 
 S -1.02856294687500 -7.22733902812501 5.230234062500161E-002
 S -0.869472946875001 -2.97545302812501 -4.07778365937500 
 S -3.73898794687500 -2.48423202812501 -1.12027965937500 
 S -1.38516794687500 -3.52929202812501 -4.148265937499840E-002
