16

 C -2.30334810000000 -6.18686788125000 -2.02676346562500 
 C -1.09599710000000 -6.80751988125000 -1.52454946562500 
 C -2.31771510000000 -2.54559588125000 -2.30839646562500 
 C -1.23640910000000 -3.20613188125000 -1.55039046562500 
 N -8.123109999999656E-002 -6.93945888125000 -2.42442746562500 
 N -2.10854310000000 -5.75660088125000 -3.29152646562500 
 N -2.93883110000000 -6.85012788125000 0.419611534374999 
 N -0.208090099999997 -3.53697288125000 -2.32712546562500 
 N -2.07171110000000 -2.37131088125000 -3.61903546562500 
 N -3.08478810000000 -2.99844588125000 0.182480534374999 
 S -0.615573099999996 -6.15847188125000 -3.78688746562500 
 S -3.62784310000000 -6.15649388125000 -0.943656465625001 
 S -1.35221710000000 -7.19603488125000 0.243900534374999 
 S -0.509824099999997 -2.88388988125000 -3.84415646562500 
 S -3.78606110000000 -2.45414188125000 -1.30116146562500 
 S -1.41699310000000 -3.28220688125000 0.139500534374999 
