16

 C -2.27872531562500 -6.39006680625000 -2.34112045312500 
 C -1.20386431562500 -6.94261880625000 -1.60257845312500 
 C -2.52510131562500 -2.63030480625000 -2.62209345312500 
 C -1.25962831562500 -3.01227980625000 -2.04651945312500 
 N -0.127623315625004 -7.19633880625000 -2.33676745312500 
 N -1.99889431562500 -6.09160880625000 -3.63384845312500 
 N -2.91019731562500 -6.41599680625000 0.154636546875001 
 N -0.213510315625004 -3.07759780625000 -2.87042745312500 
 N -2.48709631562500 -2.43936780625000 -3.93857845312500 
 N -2.98083531562500 -3.00834580625000 -4.190345312499932E-002
 S -0.454727315625004 -6.65723480625000 -3.87583145312500 
 S -3.61638131562500 -5.87070780625000 -1.22311445312500 
 S -1.34639831562500 -6.96823880625000 0.103260546875001 
 S -0.887806315625004 -2.63314880625000 -4.33512545312500 
 S -3.75890831562500 -2.40664580625000 -1.38665845312500 
 S -1.37274431562500 -3.38913480625000 -0.307116453124999 
