16

 C -2.40005647812500 -6.64785780312500 -2.30072644687500 
 C -1.11949647812500 -6.94502280312500 -1.66333144687500 
 C -2.48898947812500 -2.63540180312500 -2.46418444687500 
 C -1.30044447812500 -3.22387880312500 -1.83666144687500 
 N -0.129158478125002 -7.05521280312500 -2.55529244687500 
 N -2.35962247812500 -6.49323380312500 -3.61973444687500 
 N -2.91983147812500 -6.68577280312500 0.200740553125001 
 N -0.338358478125002 -3.50759380312500 -2.70422344687500 
 N -2.42464847812500 -2.43012580312500 -3.75247844687500 
 N -3.06689547812500 -2.91607980312500 -2.672544687499889E-002
 S -0.822926478125003 -6.77274080312500 -4.03485344687500 
 S -3.68378047812500 -6.49067580312500 -1.20145844687500 
 S -1.26884447812500 -6.94193680312500 6.689155312500117E-002
 S -0.898723478125002 -3.05574780312500 -4.18452544687500 
 S -3.77202247812500 -2.37173980312500 -1.38730544687500 
 S -1.50187247812500 -3.45632280312500 -0.126637446874999 
