16

 C -2.55233501562500 -6.56280881562500 -2.45670420625000 
 C -1.33498101562500 -7.00412381562500 -1.89427520625000 
 C -2.58915301562500 -2.76748881562500 -2.53624420625000 
 C -1.41157401562500 -3.13917881562500 -1.83058620625000 
 N -0.340278015625004 -7.05677481562500 -2.78324320625000 
 N -2.48005001562500 -6.32192881562500 -3.77708420625000 
 N -2.98725901562500 -6.97831381562500 7.027179375000059E-002
 N -0.367456015625003 -3.44489481562500 -2.59003120625000 
 N -2.39272001562500 -2.69975281562500 -3.82371120625000 
 N -3.23789801562500 -2.75917681562500 -3.054420624999943E-002
 S -0.946333015625004 -6.62037281562500 -4.26156820625000 
 S -3.84987501562500 -6.46720781562500 -1.25975320625000 
 S -1.36115901562500 -7.24148881562500 -0.187632206250000 
 S -0.771713015625004 -3.10725781562500 -4.14847120625000 
 S -3.90084001562500 -2.40871681562500 -1.52157320625000 
 S -1.68781501562500 -3.25908681562500 -9.101420624999923E-002
