16

 C -2.44991664062501 -6.66270280625000 -2.41209460312500 
 C -1.17138464062501 -6.93911380625000 -1.78214960312500 
 C -2.43482464062501 -2.82404380625000 -2.45636660312500 
 C -1.21192764062501 -3.08699080625000 -1.64134960312500 
 N -8.383464062500767E-002 -6.88609880625000 -2.53705960312500 
 N -2.28115464062501 -6.45037480625000 -3.72725560312500 
 N -2.91504864062501 -7.11790080625000 0.101758396874998 
 N -0.137939640625008 -3.23533780625000 -2.39700660312500 
 N -2.18350664062501 -2.74020080625000 -3.76274060312500 
 N -3.10885764062501 -2.69078180625000 5.535339687499863E-002
 S -0.647726640625008 -6.54037680625000 -4.08905060312500 
 S -3.77157064062501 -6.55784080625000 -1.27517360312500 
 S -1.25666464062501 -7.30232880625000 -7.410960312500148E-002
 S -0.527573640625008 -3.06493080625000 -3.95964160312500 
 S -3.81162164062501 -2.42473580625000 -1.51129260312500 
 S -1.53126464062501 -3.19856880625000 2.837439687499854E-002
