16

 C -2.23710654687500 -6.65741308750000 -2.57049405625000 
 C -1.01011154687500 -7.01750508750000 -1.92519205625000 
 C -2.50755254687500 -2.55790408750000 -2.51788705625000 
 C -1.31203854687500 -3.11117308750000 -1.99579305625000 
 N -0.115927546875001 -7.45431208750000 -2.79921105625000 
 N -2.25868254687500 -6.80882708750000 -3.89380905625000 
 N -2.64753254687500 -6.45624208750000 -4.702705625000214E-002
 N -0.351048546875002 -3.39692608750000 -2.89251705625000 
 N -2.57277154687500 -2.53267208750000 -3.83190205625000 
 N -2.94119854687500 -2.84422008750000 5.417194374999790E-002
 S -0.782392546875002 -7.36281008750000 -4.31214605625000 
 S -3.57373654687500 -6.26857608750000 -1.46755505625000 
 S -1.10846654687500 -6.92385508750000 -0.225703056250002 
 S -0.983667546875002 -2.95380108750000 -4.35696305625000 
 S -3.69346454687500 -2.21536508750000 -1.29995905625000 
 S -1.45858554687500 -3.42926108750000 -0.263373056250002 
