16

 C -2.58325668750000 -6.30794339687500 -2.52698087812500 
 C -1.35078468750000 -6.74744939687500 -1.86178687812500 
 C -2.77274568750000 -2.69137539687500 -2.54369087812500 
 C -1.54246368750000 -3.15498039687500 -1.95734987812500 
 N -0.308430687500004 -6.78988439687500 -2.70137287812500 
 N -2.44598568750000 -6.03004039687500 -3.85552487812500 
 N -3.20428868750000 -6.70173039687500 -2.249187812500075E-002
 N -0.482319687500004 -3.27817239687500 -2.69536987812500 
 N -2.60433068750000 -2.41309639687500 -3.82126287812500 
 N -3.32052868750000 -3.02593339687500 -4.336887812500079E-002
 S -0.910391687500003 -6.44981239687500 -4.21847887812500 
 S -3.97042668750000 -6.30411139687500 -1.48587987812500 
 S -1.56293868750000 -6.89159739687500 -0.106370878125001 
 S -1.08406168750000 -2.72923639687500 -4.26568487812500 
 S -4.04251568750000 -2.46888139687500 -1.40826387812500 
 S -1.70501468750000 -3.38232139687500 -0.220089878125000 
