16

 C -2.28372039999999 -6.82298497812500 -2.39059408125000 
 C -1.12041739999999 -7.46014097812500 -1.83412308125000 
 C -2.69144739999999 -2.89375797812500 -2.61028908125000 
 C -1.50379539999999 -3.18675797812500 -1.85300108125000 
 N -0.165675399999993 -7.68351197812500 -2.74382908125000 
 N -2.17817539999999 -6.51193397812500 -3.71814308125000 
 N -2.86225339999999 -7.10500197812500 0.212276918750000 
 N -0.384849399999993 -3.26037497812500 -2.57726008125000 
 N -2.46339439999999 -2.77276197812500 -3.91051308125000 
 N -3.34254839999999 -2.73701397812500 -0.135055081250000 
 S -0.712734399999993 -7.04460297812500 -4.19725708125000 
 S -3.47670039999999 -6.38006297812500 -1.17583208125000 
 S -1.31924239999999 -7.60639397812500 -4.671808125000010E-002
 S -0.783933399999993 -3.15827697812500 -4.15469108125000 
 S -4.04297839999999 -2.39552397812500 -1.61488408125000 
 S -1.71388739999999 -3.19130497812500 -0.114122081250000 
