16

 C -2.32786010312500 -6.45442380000000 -2.51528343125000 
 C -1.09759910312499 -6.82745880000000 -1.82898943125000 
 C -2.51111510312499 -2.66653180000000 -2.50254343125000 
 C -1.31468910312499 -2.96608780000000 -1.77268443125000 
 N -4.984103124995087E-003 -6.93067380000000 -2.60984143125000 
 N -2.18574410312499 -6.25635580000000 -3.86038543125000 
 N -2.78810610312499 -6.53719480000000 6.106756875000041E-002
 N -0.214608103124995 -3.23859180000000 -2.46231143125000 
 N -2.31132710312499 -2.61444480000000 -3.79959043125000 
 N -3.28834510312499 -2.83004580000000 -6.494943124999963E-002
 S -0.604153103124995 -6.55763080000000 -4.12001043125000 
 S -3.64452910312499 -6.19233980000000 -1.41610243125000 
 S -1.26977110312499 -7.13269580000000 -0.165147431250000 
 S -0.695439103124994 -3.07717480000000 -4.10126343125000 
 S -4.04390010312499 -2.60833980000000 -1.58854443125000 
 S -1.62849510312499 -3.10866980000000 -5.821843124999959E-002
