16

 C -2.53035597500001 -6.73441250000000 -2.28970445937500 
 C -1.27776797500001 -7.10487650000000 -1.76039645937500 
 C -2.29077097500001 -3.11608250000000 -2.30786545937500 
 C -1.05959697500001 -3.63430550000000 -1.76345245937500 
 N -0.325360975000006 -7.27240550000000 -2.67563245937500 
 N -2.57041697500001 -6.71602150000000 -3.62328245937500 
 N -2.90340397500001 -6.76652950000000 0.210763540625001 
 N -8.694597500000611E-002 -3.82188550000000 -2.65931245937500 
 N -2.23436897500001 -2.94858150000000 -3.66129545937500 
 N -2.72759197500001 -3.38221250000000 0.211958540625000 
 S -1.00906397500001 -6.98652050000000 -4.14020245937500 
 S -3.72933197500001 -6.41244450000000 -1.16584745937500 
 S -1.30152897500001 -7.14613350000000 2.041254062500064E-002
 S -0.664726975000006 -3.40002250000000 -4.06538645937500 
 S -3.58758797500001 -2.84996650000000 -1.14501545937500 
 S -1.14573297500001 -3.85888350000000 -2.831345937499963E-002
