16

 C -2.30236729687500 -6.28149909062499 -2.26468301875000 
 C -1.15626629687500 -6.77056809062499 -1.53811001875000 
 C -2.35810029687500 -2.50847809062499 -2.11649601875000 
 C -1.16653829687500 -3.12509109062499 -1.66603701875000 
 N -0.155731296874997 -7.02642609062499 -2.34286501875000 
 N -2.22400229687500 -6.20856909062499 -3.59721401875000 
 N -2.99442729687500 -6.62265709062499 0.146660981249999 
 N -0.130329296874997 -3.22639109062499 -2.49697901875000 
 N -2.13314429687500 -1.94993509062499 -3.30331501875000 
 N -2.85801329687500 -3.43576009062499 0.222611981249999 
 S -0.656730296874997 -6.66227109062499 -3.91106801875000 
 S -3.74638429687500 -6.08582809062499 -1.32466301875000 
 S -1.42179029687500 -7.04492309062499 0.104478981249999 
 S -0.678670296874997 -2.42240009062499 -3.88266601875000 
 S -3.62460829687500 -2.48865509062499 -0.941877018750001 
 S -1.28606429687500 -3.79863609062499 -5.390501875000075E-002
