16

 C -2.36104488437499 -6.38507039375001 -2.12840989687500 
 C -1.12944288437499 -6.95613439375001 -1.56792489687500 
 C -2.26839488437499 -2.77486639375001 -2.65415589687500 
 C -1.07859588437499 -3.10992639375001 -1.87786889687500 
 N -0.136818884374993 -7.00039439375001 -2.47269889687500 
 N -2.33648588437499 -6.08826639375001 -3.41713189687500 
 N -2.91248088437499 -6.99286939375001 0.279493103125000 
 N -4.066788437499191E-002 -3.23138639375001 -2.65574389687500 
 N -2.05002788437499 -2.68366539375001 -3.95033689687500 
 N -2.85306488437499 -2.58639339375001 -0.132926896875000 
 S -0.752213884374992 -6.38394939375001 -3.86978989687500 
 S -3.67991588437499 -6.41444039375001 -1.01524189687500 
 S -1.29369088437499 -7.43628239375001 7.763310312499971E-002
 S -0.447497884374992 -3.05269439375001 -4.27687089687500 
 S -3.56903688437499 -2.30909839375001 -1.64998589687500 
 S -1.31034488437499 -3.22209439375001 -0.160121896875000 
