16

 C -2.24315693437500 -6.66573014687500 -2.24608030937500 
 C -0.916564934375000 -6.97001214687500 -1.77056330937500 
 C -2.49101393437500 -2.69920914687500 -2.31374230937500 
 C -1.32468393437500 -3.26871814687500 -1.72299930937500 
 N 1.964106562500056E-002 -7.00535314687500 -2.71015730937500 
 N -2.35589993437500 -6.43031714687500 -3.56250130937500 
 N -2.41714093437500 -6.97779014687500 0.283250690625001 
 N -0.368339934375000 -3.47031514687500 -2.59236130937500 
 N -2.49028193437500 -2.61969514687500 -3.62623630937500 
 N -3.01589393437500 -3.02379214687500 0.178436690625001 
 S -0.787539934375000 -6.66041214687500 -4.17789530937500 
 S -3.42991293437500 -6.54177014687500 -1.00702930937500 
 S -0.811181934375000 -7.28396614687500 -2.957630937499944E-002
 S -0.900368934375000 -3.07484114687500 -4.12078330937500 
 S -3.81634993437500 -2.44668514687500 -1.21875730937500 
 S -1.45230293437500 -3.54832314687500 -4.363093749994995E-004
