16

 C -2.63096408437500 -6.22995661562500 -2.65016367500000 
 C -1.37314808437500 -6.57133361562500 -2.02859467500000 
 C -2.46886708437500 -2.74075161562500 -2.48864267500000 
 C -1.27166708437500 -3.07367761562500 -1.87520567500000 
 N -0.339300084375000 -6.68845861562500 -2.85235167500000 
 N -2.53345708437500 -6.06110161562500 -3.96962267500000 
 N -3.25576908437500 -6.86494761562500 -0.321170675000000 
 N -0.206538084375000 -3.21553761562500 -2.66216867500000 
 N -2.37940108437500 -2.66243661562500 -3.81481367500000 
 N -2.90859808437500 -2.91773661562500 9.787832500000060E-002
 S -0.975765084375000 -6.33746561562500 -4.38294467500000 
 S -4.00835808437500 -6.21474561562500 -1.65941167500000 
 S -1.60523908437500 -6.93449761562500 -0.379185674999999 
 S -0.783228084375001 -2.99852561562500 -4.22842067500000 
 S -3.77087008437500 -2.69492661562500 -1.35094767500000 
 S -1.27240108437500 -3.14907461562500 -0.140973674999999 
