16

 C -2.37181949062501 -6.22743184062500 -2.38051100312500 
 C -1.26307049062501 -6.92337684062500 -1.76327200312500 
 C -2.52623449062501 -2.33542284062500 -2.49231400312500 
 C -1.43470549062501 -2.97220484062500 -1.78132300312500 
 N -0.258602490625007 -7.25877084062500 -2.60712000312500 
 N -2.14912949062501 -5.93197484062500 -3.66748500312500 
 N -3.15868549062501 -6.60536884062500 2.468299687500020E-002
 N -0.391827490625007 -3.34698384062500 -2.45890500312500 
 N -2.28002649062501 -2.19534284062500 -3.78744700312500 
 N -3.16898449062501 -2.47477784062500 1.673699687500019E-002
 S -0.676301490625008 -6.51329384062500 -4.03455700312500 
 S -3.76156249062501 -5.97181184062500 -1.42209700312500 
 S -1.64559349062501 -7.21748784062500 -3.337700312500003E-002
 S -0.796797490625007 -2.84217084062500 -4.07853100312500 
 S -3.90142249062501 -2.08007684062500 -1.40871600312500 
 S -1.60798649062501 -3.11630084062500 -6.752800312500007E-002
