16

 C -2.39090157187500 -6.38830163750000 -2.53035360937500 
 C -1.19935957187500 -6.81083263750000 -1.84394760937500 
 C -2.36629257187500 -2.63046863750000 -2.44095360937500 
 C -1.17459957187500 -3.02629763750000 -1.74131960937500 
 N -0.143716571875003 -6.91202363750000 -2.63995060937500 
 N -2.24167557187500 -6.21712163750000 -3.84625360937500 
 N -3.09241457187500 -6.62628963750000 -1.550160937499956E-002
 N -0.153437571875003 -3.30033363750000 -2.56629560937500 
 N -2.23359257187500 -2.46612963750000 -3.75769660937500 
 N -3.02409757187500 -2.84200663750000 3.439939062500041E-002
 S -0.669481571875003 -6.54532963750000 -4.16966360937500 
 S -3.75405357187500 -6.31568463750000 -1.48648460937500 
 S -1.45658357187500 -7.04719563750000 -0.123176609375000 
 S -0.676385571875003 -3.02944963750000 -4.08411960937500 
 S -3.66287357187500 -2.34783363750000 -1.36438260937500 
 S -1.42702057187500 -3.13461463750000 -1.411160937499956E-002
