16

 C -2.59210440000001 -6.63314254062500 -2.34180976875000 
 C -1.33865540000001 -7.06498454062500 -1.71727476875000 
 C -2.40225840000001 -2.97442054062500 -2.33789376875000 
 C -1.16466840000001 -3.52291954062500 -1.82774376875000 
 N -0.360847400000007 -7.36896954062500 -2.58165876875000 
 N -2.50094940000001 -6.52254654062500 -3.67523576875000 
 N -3.04993440000001 -6.81703654062500 0.194807231250000 
 N -0.235564400000007 -3.68608054062500 -2.71686776875000 
 N -2.41054340000001 -2.78975254062500 -3.63528676875000 
 N -2.79752140000001 -3.30089654062500 0.165762231250000 
 S -0.981011400000007 -7.00649954062500 -4.10485376875000 
 S -3.88913340000001 -6.56998854062500 -1.24634076875000 
 S -1.47811740000001 -7.25932554062500 2.544723124999981E-002
 S -0.929444400000007 -3.17960654062500 -4.25427176875000 
 S -3.63759540000001 -2.74753654062500 -1.14512276875000 
 S -1.21621740000001 -3.82516954062500 -0.147325768750000 
