16

 C -2.30052929999999 -6.94530282187500 -2.62276775937500 
 C -1.09282629999999 -7.26864882187500 -1.88669675937500 
 C -2.60573229999999 -2.74638282187500 -2.51236075937500 
 C -1.37883629999999 -3.31738482187500 -1.96074475937500 
 N -5.607729999999211E-002 -7.55091982187500 -2.71705075937500 
 N -2.18687229999999 -6.97697482187500 -3.93458275937500 
 N -2.72894429999999 -6.62364282187500 -3.656375937499878E-002
 N -0.387450299999992 -3.34407482187500 -2.83376175937500 
 N -2.53910429999999 -2.50561282187500 -3.82484675937500 
 N -2.91392229999999 -2.66796782187500 -1.605759374998739E-003
 S -0.622672299999992 -7.41377582187500 -4.26304975937500 
 S -3.48592829999999 -6.19578282187500 -1.49522275937500 
 S -1.16436029999999 -7.04668882187500 -0.202894759374999 
 S -0.962192299999992 -2.93747882187500 -4.30371175937500 
 S -3.78666329999999 -2.24158382187500 -1.43542875937500 
 S -1.37699129999999 -3.32353182187500 -0.189990759374999 
