16

 C -2.23974222812500 -6.35336433125000 -2.46264860000000 
 C -1.08049422812500 -6.82868933125000 -1.73739560000000 
 C -2.82927722812500 -2.56527933125000 -2.52586160000000 
 C -1.56461822812500 -2.81744233125000 -1.88948960000000 
 N 2.858777187499850E-002 -7.04011833125000 -2.47784260000000 
 N -2.01581222812500 -6.13540633125000 -3.76887260000000 
 N -2.91650022812500 -6.56204933125000 7.973839999999877E-002
 N -0.508207228125001 -2.91795833125000 -2.67703060000000 
 N -2.68844922812500 -2.31914333125000 -3.78381060000000 
 N -3.35147722812500 -2.87836533125000 -1.929760000000114E-002
 S -0.439859228125001 -6.54999333125000 -4.02099260000000 
 S -3.65043322812500 -6.16622933125000 -1.35364860000000 
 S -1.32913922812500 -7.07899433125000 -4.257060000000124E-002
 S -1.12576222812500 -2.46724133125000 -4.26647460000000 
 S -4.17104822812500 -2.47926333125000 -1.40095660000000 
 S -1.68511822812500 -2.99747233125000 -0.140712600000001 
