16

 C -2.50829016250000 -6.68527573125000 -2.39586036250000 
 C -1.23935216250000 -6.93320473125000 -1.79545836250000 
 C -2.10987116250000 -2.89075873125000 -2.40848536250000 
 C -0.957180162500000 -3.25174273125000 -1.59707236250000 
 N -0.182907162500000 -6.92033073125000 -2.57764336250000 
 N -2.38400216250000 -6.55454473125000 -3.71630836250000 
 N -2.93855816250000 -7.02952173125000 6.563563750000023E-002
 N 0.118108837499999 -3.39866673125000 -2.35814836250000 
 N -1.92972216250000 -2.75107273125000 -3.71637136250000 
 N -2.93499616250000 -3.09849773125000 2.740963750000014E-002
 S -0.807319162500001 -6.56914473125000 -4.03900836250000 
 S -3.80041316250000 -6.78487673125000 -1.33664636250000 
 S -1.30345816250000 -7.26972773125000 -6.561936249999989E-002
 S -0.296266162500000 -3.08121173125000 -3.97180036250000 
 S -3.51604116250000 -2.50959873125000 -1.41741836250000 
 S -1.32408116250000 -3.67175973125000 4.514463750000020E-002
