16

 C -2.26958279062501 -6.46937355937500 -2.20525162500000 
 C -1.05332179062501 -6.99602655937500 -1.58500662500000 
 C -2.39906279062501 -2.67432955937500 -2.30342562500000 
 C -1.21813779062501 -3.30641055937500 -1.72926762500000 
 N -6.998679062500823E-002 -7.21020255937500 -2.45156362500000 
 N -2.07686079062501 -6.23817455937500 -3.50830662500000 
 N -2.71653279062501 -6.86764655937500 0.329052375000001 
 N -0.276045790625008 -3.56130855937500 -2.64438962500000 
 N -2.30268079062501 -2.32573455937500 -3.59029362500000 
 N -2.95955079062501 -3.17145855937500 0.173234375000001 
 S -0.575251790625008 -6.74506755937500 -3.91653062500000 
 S -3.59106979062501 -6.41398455937500 -1.03170262500000 
 S -1.08124279062501 -7.27039355937500 0.137259375000001 
 S -0.824885790625008 -2.83275555937500 -4.05759262500000 
 S -3.73987479062501 -2.54408155937500 -1.13587762500000 
 S -1.32167979062501 -3.58280555937500 3.711037500000081E-002
