16

 C -2.26622516250000 -6.45282686250000 -2.50210895625000 
 C -1.04663516250000 -6.80510186250000 -1.81194695625000 
 C -2.52066416250000 -2.70862786250000 -2.48309795625000 
 C -1.30732816250000 -2.98714486250000 -1.72772295625000 
 N -1.930716250000408E-002 -6.89989986250000 -2.63594995625000 
 N -2.19354916250000 -6.21060586250000 -3.80595695625000 
 N -2.85065116250000 -6.57598786250000 3.943204375000131E-002
 N -0.220035162500004 -3.26278886250000 -2.49531595625000 
 N -2.34452316250000 -2.77241686250000 -3.82269395625000 
 N -3.24836416250000 -2.80051486250000 -3.489495624999872E-002
 S -0.618050162500004 -6.59832386250000 -4.14218995625000 
 S -3.64408916250000 -6.16449986250000 -1.37578395625000 
 S -1.25490016250000 -7.19922086250000 -0.143752956249999 
 S -0.716049162500004 -3.07696186250000 -4.07131095625000 
 S -3.94709816250000 -2.65073686250000 -1.53730395625000 
 S -1.62097216250000 -3.08022086250000 -4.553695624999876E-002
