16

 C -2.40669583750000 -6.23467090000001 -2.45410383750000 
 C -1.17447983750000 -6.62621690000001 -1.76694483750000 
 C -2.31181683750000 -2.90024490000001 -2.49703983750000 
 C -1.01071583750000 -3.24362090000001 -1.88129183750000 
 N -0.193086837499997 -6.96538790000001 -2.60522083750000 
 N -2.33821383750000 -6.12855090000001 -3.75770783750000 
 N -3.01228283750000 -6.40160290000001 3.949116249999829E-002
 N -6.007837499996782E-003 -3.35178090000001 -2.74911383750000 
 N -2.19701983750000 -2.83154590000001 -3.80736083750000 
 N -2.87515583750000 -3.14500190000001 1.864316249999831E-002
 S -0.782343837499997 -6.55753990000001 -4.11421283750000 
 S -3.83279683750000 -5.97872490000001 -1.41396483750000 
 S -1.40065383750000 -6.70438290000001 -8.481783750000171E-002
 S -0.638560837499997 -3.09892590000001 -4.24989583750000 
 S -3.65212483750000 -2.91241390000001 -1.42000383750000 
 S -1.21303683750000 -3.47915590000001 -0.101151837500002 
