16

 C -2.52994102500000 -6.34895548750000 -2.54645222812500 
 C -1.40188602500000 -7.04474248750000 -1.92584122812500 
 C -2.43967102500000 -2.59953948750000 -2.42460422812500 
 C -1.23634002500000 -3.18356648750000 -1.80474122812500 
 N -0.385974024999997 -7.10908548750000 -2.75142622812500 
 N -2.39172802500000 -5.91433248750000 -3.78311822812500 
 N -3.06542602500000 -6.79836948750000 -7.467922812499772E-002
 N -0.224456024999997 -3.42783448750000 -2.63187022812500 
 N -2.31455202500000 -2.52560848750000 -3.74036222812500 
 N -3.02906902500000 -2.65912448750000 8.561177187500224E-002
 S -0.838803024999997 -6.46043148750000 -4.23365322812500 
 S -3.82148202500000 -6.07636148750000 -1.41918322812500 
 S -1.58967602500000 -7.43303548750000 -0.317577228124998 
 S -0.792758024999997 -2.98187448750000 -4.17332122812500 
 S -3.71255202500000 -2.16918048750000 -1.38520822812500 
 S -1.57902102500000 -3.49047048750000 -8.670722812499765E-002
