16

 C -2.31376603125000 -6.59517549687499 -2.49944973125000 
 C -1.11856703125000 -7.07572349687499 -1.79355473125000 
 C -2.34875003125000 -2.97317349687499 -2.54592173125000 
 C -1.16227403125000 -3.37604249687499 -1.87872173125000 
 N -2.994003124999800E-002 -7.18460849687499 -2.56440273125000 
 N -2.13271703125000 -6.36539849687499 -3.78986673125000 
 N -3.02820203125000 -6.86684149687499 3.683268750002577E-003
 N -9.082803124999828E-002 -3.54140849687499 -2.66420373125000 
 N -2.25306903125000 -2.82552749687499 -3.88513173125000 
 N -3.03918403125000 -3.21264649687499 6.323268750002553E-003
 S -0.536347031249998 -6.67002649687499 -4.12256473125000 
 S -3.74950203125000 -6.44046549687499 -1.48986373125000 
 S -1.46344903125000 -7.38693049687499 -3.951973124999753E-002
 S -0.631704031249998 -3.16267449687499 -4.21109173125000 
 S -3.72409503125000 -2.61309749687499 -1.44995073125000 
 S -1.46772603125000 -3.74422349687499 -0.100976731249997 
