16

 C -2.45310997499999 -6.55759335625000 -2.32537020000000 
 C -1.15667997499999 -6.72335835625000 -1.68044320000000 
 C -2.60883997499999 -2.84101035625000 -2.61773320000000 
 C -1.32886097499999 -3.17288135625000 -2.08033720000000 
 N -0.177790974999991 -6.74388635625000 -2.57488320000000 
 N -2.45467397499999 -6.40836835625000 -3.62675420000000 
 N -2.98089497499999 -6.76354635625000 0.140636800000000 
 N -0.349845974999990 -3.18413935625000 -2.99108820000000 
 N -2.57853297499999 -2.44216935625000 -3.88895720000000 
 N -2.96035997499999 -3.17993535625000 -5.928020000000034E-002
 S -0.851192974999990 -6.32568435625000 -4.07092220000000 
 S -3.80484797499999 -6.47896235625000 -1.31000220000000 
 S -1.36011797499999 -7.01250335625000 8.579799999999693E-003
 S -0.966913974999991 -2.70801035625000 -4.36121420000000 
 S -3.88593697499999 -2.82320335625000 -1.38263820000000 
 S -1.32653897499999 -3.39169335625000 -0.352751200000000 
