16

 C -2.62834741875000 -6.64148391875000 -2.30656407812500 
 C -1.34885141875000 -6.81938591875001 -1.68014407812500 
 C -2.40480741875000 -3.08071091875001 -2.46387807812500 
 C -1.09362041875000 -3.32460491875001 -1.93451007812500 
 N -0.307085418750000 -6.75480691875001 -2.55680207812500 
 N -2.63866741875000 -6.46771191875001 -3.64132307812500 
 N -3.19959941875000 -6.87409991875001 0.222906921875000 
 N -7.907741874999985E-002 -3.40921691875001 -2.79747207812500 
 N -2.35732941875000 -3.01244091875001 -3.79932607812500 
 N -2.71306041875000 -3.05752491875001 4.800992187500031E-002
 S -0.987799418750000 -6.67731791875001 -4.11304007812500 
 S -3.98610641875000 -6.77038191875001 -1.18569207812500 
 S -1.51826841875000 -7.16801291875001 4.698692187500031E-002
 S -0.784395418750000 -3.29009391875001 -4.27119107812500 
 S -3.68571241875000 -2.89423191875001 -1.27587007812500 
 S -1.08022741875000 -3.33363691875001 -0.195430078125000 
