16

 C -2.31732944687500 -6.30218012187500 -2.46414160000000 
 C -1.15118444687500 -6.88952312187500 -1.83352960000000 
 C -2.28077644687500 -2.69009812187500 -2.38524460000000 
 C -1.03588544687500 -3.27262312187500 -1.77407760000000 
 N -0.170063446875002 -7.12609612187500 -2.68173460000000 
 N -2.14316244687500 -5.99520212187500 -3.72450360000000 
 N -3.01015644687500 -6.83898012187500 -3.648059999999975E-002
 N -4.720544687500183E-002 -3.56260112187500 -2.63536060000000 
 N -2.26088944687500 -2.67064312187500 -3.73048560000000 
 N -2.65599144687500 -2.99798412187500 0.169407400000000 
 S -0.630576446875001 -6.59660012187500 -4.21512660000000 
 S -3.66328844687500 -6.11087212187500 -1.38831060000000 
 S -1.40213544687500 -7.20648312187500 -9.714859999999992E-002
 S -0.699545446875002 -3.14785312187500 -4.14479860000000 
 S -3.50168244687500 -2.67051612187500 -1.19742460000000 
 S -1.18593244687500 -3.63483712187500 -8.053759999999976E-002
