16

 C -2.41126047187500 -6.62239828750000 -2.24281083437500 
 C -1.13137347187500 -6.77093228750000 -1.54763283437500 
 C -2.32143047187500 -2.69109128750000 -2.49948583437500 
 C -1.08786747187500 -3.23971628750000 -1.97607283437500 
 N -0.110430471875001 -6.74118528750000 -2.41773583437500 
 N -2.33492347187500 -6.53871328749999 -3.58193883437500 
 N -3.04334747187500 -6.92551728750000 0.266297165625000 
 N -0.151290471875002 -3.42263228750000 -2.89422183437500 
 N -2.36727347187500 -2.65193628750000 -3.84012083437500 
 N -2.72925347187500 -2.90408728750000 -3.408343749997655E-004
 S -0.756909471875002 -6.63886428750000 -3.95446083437500 
 S -3.77633547187500 -6.69566028750000 -1.19800783437500 
 S -1.33391347187500 -7.05361028750000 0.153709165625000 
 S -0.787021471875001 -3.05987628750000 -4.36287783437500 
 S -3.55840147187500 -2.42208928750000 -1.35664083437500 
 S -1.18170147187500 -3.43737628750000 -0.248298834375000 
