16

 C -2.37793999687500 -6.47036866562500 -2.42660222812500 
 C -1.13550799687500 -6.82645066562500 -1.81316322812500 
 C -2.45790399687500 -3.20169766562500 -2.16142422812500 
 C -1.06424199687500 -3.34512066562500 -1.66180122812500 
 N -5.939099687500438E-002 -6.92781966562500 -2.58509822812500 
 N -2.25565199687500 -6.30958666562500 -3.74204922812500 
 N -2.91907599687500 -6.60889166562500 0.128534771875001 
 N -0.161415996875005 -3.34494066562500 -2.64426822812500 
 N -2.58251599687500 -3.14365166562500 -3.51121822812500 
 N -2.57792099687500 -3.37501366562500 0.450122771875000 
 S -0.650229996875004 -6.60415466562500 -4.14054322812500 
 S -3.73213599687500 -6.28555266562500 -1.25339422812500 
 S -1.28379099687500 -7.00320466562500 -8.135122812499973E-002
 S -1.04119999687500 -3.17033166562500 -4.07046822812500 
 S -3.59479299687500 -3.26030566562500 -0.867187228124999 
 S -0.950195996875005 -3.48021166562500 8.818877187500029E-002
