16

 C -2.68826089375000 -6.31420984687500 -2.37608529687500 
 C -1.52946389375000 -6.99573584687500 -1.85409729687500 
 C -2.45804489375000 -2.82826484687500 -2.24452129687500 
 C -1.35230989375000 -3.50640484687500 -1.65689629687500 
 N -0.570189893750000 -7.14096484687500 -2.75892329687500 
 N -2.62495389375000 -5.92738284687500 -3.65969029687500 
 N -3.11858889375000 -6.79883084687500 0.182890703125001 
 N -0.328534893750001 -3.74159984687500 -2.45105929687500 
 N -2.30635789375000 -2.68744084687500 -3.54623629687500 
 N -3.14668789375000 -3.21059184687500 0.131959703125001 
 S -1.12734989375000 -6.50805284687500 -4.19566129687500 
 S -3.83262089375000 -6.01652684687500 -1.09326929687500 
 S -1.58620089375000 -7.30008984687500 -0.148555296874999 
 S -0.749229893750001 -3.17016484687500 -3.99008829687500 
 S -3.73232089375000 -2.45724384687500 -1.21677629687500 
 S -1.62716389375000 -3.80150784687500 3.278070312500070E-002
