16

 C -2.33961471875000 -6.51442260000000 -2.23295866250000 
 C -1.10018171875000 -6.95791060000000 -1.67896466250000 
 C -2.33501571875000 -2.58005560000000 -2.49828066250000 
 C -1.11867271875000 -3.25150060000000 -2.05594266250000 
 N -0.104693718749997 -7.15900460000000 -2.54588466250000 
 N -2.24238571875000 -6.28015660000000 -3.54997566250000 
 N -2.83114971875000 -6.66158860000000 0.313332337500000 
 N -0.212967718749998 -3.38317260000000 -2.99420066250000 
 N -2.37660471875000 -2.32160760000000 -3.80822666250000 
 N -2.68394371875000 -3.12546060000000 9.262733749999996E-002
 S -0.735474718749998 -6.67253060000000 -4.02425866250000 
 S -3.71127371875000 -6.52864960000000 -1.13182166250000 
 S -1.26093371875000 -7.14477860000000 0.121206337500000 
 S -0.861948718749998 -2.82365260000000 -4.41989366250000 
 S -3.57107371875000 -2.40296660000000 -1.21290566250000 
 S -1.10247771875000 -3.49497760000000 -0.273202662500000 
