16

 C -2.32926421562500 -6.07084220000000 -2.00143839375000 
 C -1.11655321562500 -6.65924619999999 -1.50413439375000 
 C -2.32151821562500 -2.72600620000000 -2.32225739375000 
 C -1.14525121562500 -3.16242120000000 -1.57104639375000 
 N -0.112707215625001 -6.82638720000000 -2.36047139375000 
 N -2.20138721562500 -5.76954620000000 -3.28623439375000 
 N -2.79724621562500 -6.81839020000000 0.364165606250000 
 N -9.866121562500130E-002 -3.35578820000000 -2.37054239375000 
 N -2.14985121562500 -2.49269620000000 -3.63438439375000 
 N -3.11986021562500 -2.86318320000000 0.103313606250000 
 S -0.719697215625001 -6.28356220000000 -3.75749239375000 
 S -3.60452921562500 -6.14606220000000 -0.911123393750000 
 S -1.16534021562500 -7.28506719999999 0.123727606250000 
 S -0.605379215625002 -3.09606019999999 -3.90913039375000 
 S -3.72766121562500 -2.38883719999999 -1.36221639375000 
 S -1.54232621562500 -3.32297720000000 7.543160624999978E-002
