16

 C -2.60246162187500 -6.35902187500000 -2.60893691250000 
 C -1.31815462187501 -6.83674787500000 -2.07986191250000 
 C -2.66029262187500 -2.92272387500000 -2.30158591250000 
 C -1.49301862187501 -3.43461287500000 -1.62032291250000 
 N -0.406920621875005 -6.99911087500000 -3.00994691250000 
 N -2.68874862187501 -6.24189187500000 -3.93966691250000 
 N -2.82212862187501 -6.54799187500000 3.486508750000117E-002
 N -0.401913621875005 -3.60144287500000 -2.37504591250000 
 N -2.48958462187501 -2.66690687500000 -3.58352891250000 
 N -3.34490762187500 -3.17197887500000 0.178827087500001 
 S -1.14280862187501 -6.66842487500000 -4.46031091250000 
 S -3.84141462187501 -6.33608887500000 -1.20489491250000 
 S -1.26444362187500 -7.14036787500000 -0.330740912499999 
 S -0.936176621875005 -3.15895587500000 -3.90387891250000 
 S -3.98516562187501 -2.66429387500000 -1.22367291250000 
 S -1.71159162187501 -3.43135187500000 9.995708750000110E-002
