16

 C -2.75679278437500 -6.25501982500000 -2.47418645625000 
 C -1.60222978437500 -6.80281382500000 -1.79649945625000 
 C -2.23801878437500 -2.97890682500000 -2.28446745625000 
 C -0.996094784375000 -3.41604182500000 -1.65209045625000 
 N -0.536504784375000 -7.03953582500000 -2.57833245625000 
 N -2.55488678437500 -6.05268082500000 -3.77853145625000 
 N -3.40855978437500 -6.46334982500000 -4.171145625000117E-002
 N 6.107215624999718E-003 -3.35257282500000 -2.50787445625000 
 N -2.12701178437500 -2.64767682500000 -3.57672645625000 
 N -2.69896078437500 -3.29531382500000 0.268896543749999 
 S -1.01259578437500 -6.54553082500000 -4.07934145625000 
 S -4.11062278437500 -6.02786482500000 -1.47483845625000 
 S -1.82583978437500 -7.04404382500000 -4.843545625000134E-002
 S -0.561569784375000 -2.94962982500000 -3.98826545625000 
 S -3.50380478437500 -2.97998682500000 -1.12044545625000 
 S -1.07841278437500 -3.58828482500000 5.679954374999885E-002
