16

 C -2.48407038437500 -6.43702630000000 -2.20237998750000 
 C -1.20715538437500 -6.93814330000000 -1.75128898750000 
 C -2.53498938437500 -2.76646830000000 -2.52317098750000 
 C -1.39400038437500 -3.39354630000000 -1.77659498750000 
 N -0.186442384374996 -7.01486730000000 -2.60149098750000 
 N -2.42481338437500 -6.17869430000000 -3.51455398750000 
 N -2.85208438437500 -7.03937430000000 0.285175012500003 
 N -0.332879384374996 -3.64825530000000 -2.53950098750000 
 N -2.34110838437500 -2.59693430000000 -3.84049098750000 
 N -3.27772338437500 -3.07498630000000 -3.206798749999762E-002
 S -0.864377384374996 -6.55495830000000 -4.04025298750000 
 S -3.73749038437500 -6.37085930000000 -0.981428987499998 
 S -1.18426738437500 -7.36800030000000 -4.525998749999749E-002
 S -0.783300384374996 -3.15110030000000 -4.04822098750000 
 S -3.84027338437500 -2.40053330000000 -1.42413298750000 
 S -1.69128838437500 -3.60965230000000 -3.474998749999747E-002
