16

 C -2.59065722187500 -6.65012862812499 -2.07172850937500 
 C -1.30998922187500 -7.17193562812499 -1.66374950937500 
 C -2.39984922187500 -2.70699462812499 -2.43875250937500 
 C -1.28398022187500 -3.24115162812499 -1.79144050937500 
 N -0.405363221875001 -7.34878162812499 -2.59915250937500 
 N -2.52884022187500 -6.30002762812499 -3.33367150937500 
 N -2.78976922187500 -6.90193462812499 0.386519490625001 
 N -0.300315221875000 -3.55420062812499 -2.61347550937500 
 N -2.28737322187500 -2.62429962812499 -3.74429050937500 
 N -2.94387122187500 -2.94010762812499 7.257349062500063E-002
 S -1.10678522187500 -6.76435162812499 -3.97742550937500 
 S -3.77806422187500 -6.41753562812499 -0.893915509374999 
 S -1.29226022187500 -7.60581362812499 5.660149062500075E-002
 S -0.762709221875001 -3.17331762812499 -4.16842950937500 
 S -3.69824422187500 -2.40420862812499 -1.34273450937500 
 S -1.43448122187500 -3.57447462812499 -9.468350937499914E-002
