16

 C -2.61546328750000 -6.70173013749999 -2.21120729375000 
 C -1.44068828750000 -7.24500513749999 -1.64106629375000 
 C -2.26052628750000 -2.88918013749999 -2.30024029375000 
 C -1.10697228750000 -3.40877613749999 -1.70582729375000 
 N -0.566477287500003 -7.50858813749999 -2.60457929375000 
 N -2.67139328750000 -6.48422313749999 -3.51527729375000 
 N -3.12161428750000 -7.05209013749999 0.302517706250001 
 N -9.354028750000332E-002 -3.55761913749999 -2.51258029375000 
 N -2.13032528750000 -2.69710713749999 -3.60093929375000 
 N -2.80971528750000 -3.16743913749999 0.176413706250001 
 S -1.19566728750000 -6.98803413749999 -4.03708529375000 
 S -3.88749128750000 -6.42991613749999 -1.08046029375000 
 S -1.51598928750000 -7.43223213749999 3.729270625000103E-002
 S -0.603918287500004 -3.20587113749999 -4.07344829375000 
 S -3.57248628750000 -2.55242013749999 -1.19974429375000 
 S -1.22260828750000 -3.57494513749999 4.111270625000096E-002
