16

 C -2.42996506875000 -6.64732103750000 -2.37222700312500 
 C -1.19349706875000 -6.96253603750000 -1.76430400312500 
 C -2.51134606875001 -2.83556703750000 -2.24545200312500 
 C -1.29116806875000 -3.29356603750000 -1.67009400312500 
 N -0.160484068750005 -7.17197403750000 -2.58282200312500 
 N -2.27139306875001 -6.53477403750000 -3.68388500312500 
 N -2.80866706875000 -6.66619403750000 0.147813996874999 
 N -0.380784068750005 -3.56736703750000 -2.61522000312500 
 N -2.56004906875001 -2.75388203750000 -3.59697500312500 
 N -2.89940306875001 -3.11825103750000 0.278299996874999 
 S -0.715908068750005 -7.01090203750000 -4.13281900312500 
 S -3.72495306875000 -6.39535303750000 -1.31137300312500 
 S -1.27388206875001 -7.32902903750000 -6.654500312500100E-002
 S -1.00333606875000 -3.06031003750000 -4.03518200312500 
 S -3.70041606875001 -2.58880503750000 -1.07716800312500 
 S -1.28794206875000 -3.23772803750000 5.817899687499906E-002
