16

 C -2.61332714375000 -6.37847350312500 -2.60069908750000 
 C -1.32415114375000 -6.82314750312500 -2.08678808750000 
 C -2.65773514375000 -2.89242250312500 -2.28886608750000 
 C -1.47569414375000 -3.42729050312500 -1.60105108750000 
 N -0.403428143749996 -7.02831850312500 -3.00051708750000 
 N -2.67438214375000 -6.26644850312500 -3.93212308750000 
 N -2.83559814375000 -6.54392450312500 4.616891249999933E-002
 N -0.371408143749996 -3.56799450312500 -2.38081208750000 
 N -2.49293014375000 -2.63690950312500 -3.58470008750000 
 N -3.34025514375000 -3.15962450312500 0.188503912499999 
 S -1.13284914375000 -6.67524950312500 -4.45380408750000 
 S -3.82631614375000 -6.35378650312500 -1.20642408750000 
 S -1.26743214375000 -7.13277650312500 -0.335884087500001 
 S -0.942353143749996 -3.15813950312500 -3.91678608750000 
 S -3.99160214375000 -2.65232050312500 -1.21164408750000 
 S -1.70132214375000 -3.45570950312500 9.562491249999927E-002
