16

 C -2.60211742499999 -6.43646479999999 -2.27485459062500 
 C -1.35712242499999 -6.87301879999999 -1.66004859062500 
 C -2.41335842499999 -2.88906579999999 -2.19693959062500 
 C -1.22562542499999 -3.34530379999999 -1.57381059062500 
 N -0.336733424999994 -7.11667379999999 -2.48394459062500 
 N -2.47546642499999 -6.27658279999999 -3.59331459062500 
 N -3.11885542499999 -6.73558079999999 0.261508409374999 
 N -0.214162424999994 -3.43325179999999 -2.42601659062500 
 N -2.39278342499999 -2.71502679999999 -3.50785559062500 
 N -2.83791942499999 -2.89514779999999 0.330920409374999 
 S -0.920986424999994 -6.66279679999999 -3.96279259062500 
 S -3.89065942499999 -6.36432979999999 -1.19564359062500 
 S -1.51114342499999 -7.12929279999999 4.031840937499909E-002
 S -0.843815424999994 -3.12307279999999 -3.89665459062500 
 S -3.65881042499999 -2.63671079999999 -1.08083859062500 
 S -1.26185942499999 -3.41409279999999 0.144815409374999 
