16

 C -2.68932189687500 -6.25092331562500 -2.31131316250000 
 C -1.54165389687500 -6.96794231562500 -1.86972816250000 
 C -2.45751889687500 -2.93247031562500 -2.31705916250000 
 C -1.28291289687500 -3.53053631562500 -1.63178316250000 
 N -0.557593896875000 -7.10954531562500 -2.76022716250000 
 N -2.62459189687500 -5.98538831562500 -3.61758516250000 
 N -3.13047889687500 -6.82543431562500 0.179970837499999 
 N -0.272640896875000 -3.75837531562500 -2.47513016250000 
 N -2.30367389687500 -2.70706631562500 -3.61308516250000 
 N -3.15380889687500 -3.20841431562500 8.592583749999894E-002
 S -1.14724889687500 -6.52883231562500 -4.15757416250000 
 S -3.86854989687500 -6.03050231562500 -1.06687116250000 
 S -1.57554489687500 -7.30877531562500 -0.138115162500001 
 S -0.743396896875000 -3.17345631562500 -3.94315716250000 
 S -3.76244689687500 -2.48568431562500 -1.23870516250000 
 S -1.62531289687500 -3.82957631562500 3.250183749999902E-002
