16

 C -2.53700488125000 -6.33757711875000 -2.51048546875000 
 C -1.33260488125000 -6.69980811875000 -1.84036946875000 
 C -2.78731388125000 -2.68280311875000 -2.58606546875000 
 C -1.54881388125000 -3.10112311875000 -1.93922046875000 
 N -0.321896881250001 -6.74388811875000 -2.70003546875000 
 N -2.46216588125000 -6.02553611875000 -3.80461146875000 
 N -3.21725888125000 -6.66681411875000 -4.117546874999922E-002
 N -0.475662881250001 -3.24530811875000 -2.73271246875000 
 N -2.65946088125000 -2.43584511875000 -3.87089746875000 
 N -3.27793188125000 -3.07024511875000 -3.029446874999886E-002
 S -0.909264881250001 -6.46036711875000 -4.21807746875000 
 S -3.95654488125000 -6.34341211875000 -1.48790346875000 
 S -1.55037988125000 -6.88665311875000 -9.030646874999881E-002
 S -1.07807088125000 -2.72563511875000 -4.29526346875000 
 S -4.03525288125000 -2.45226611875000 -1.37237246875000 
 S -1.67235788125000 -3.37513811875000 -0.240217468749999 
