16

 C -2.38099569062500 -6.30858440624999 -2.24206015000000 
 C -1.15846569062500 -6.72604140624999 -1.62891815000000 
 C -2.48698969062500 -2.75688440624999 -2.81674515000000 
 C -1.15749169062500 -2.89239040624999 -2.23956215000000 
 N -0.165029690625002 -6.73596840624999 -2.49172815000000 
 N -2.27744169062500 -5.96766040624999 -3.51134215000000 
 N -2.78942069062500 -6.53234640624999 0.237341850000000 
 N -0.134743690625002 -2.88693840624999 -3.10106815000000 
 N -2.39491269062500 -2.66020140624999 -4.12210115000000 
 N -2.91385969062500 -3.10308640624999 -0.329530150000001 
 S -0.725719690625002 -6.25814340624999 -3.98817215000000 
 S -3.71619369062500 -6.18189840624999 -1.16909415000000 
 S -1.34769369062500 -7.20495740624999 -2.315615000000038E-002
 S -0.822303690625002 -2.56685840624999 -4.56483315000000 
 S -3.83509469062500 -2.97145640624999 -1.69529315000000 
 S -1.23790069062500 -3.13226740624999 -0.434890150000001 
