16

 C -2.34950170937500 -6.61872575937501 -2.33316987812500 
 C -1.07549070937500 -7.04507975937501 -1.72605187812500 
 C -2.87118770937500 -3.20501975937501 -2.21010487812500 
 C -1.62499570937500 -3.55352275937501 -1.48529387812500 
 N -6.058670937499677E-002 -7.34483875937501 -2.52168687812500 
 N -2.25842770937500 -6.59312575937501 -3.64694387812500 
 N -2.91767370937500 -6.95581075937501 0.135406121875000 
 N -0.612274709374997 -3.75983775937501 -2.30190587812500 
 N -2.81945970937500 -3.07189975937501 -3.51849687812500 
 N -3.51497870937500 -3.33631375937501 0.253043121875000 
 S -0.713820709374997 -7.07021975937501 -4.03952687812500 
 S -3.69170770937500 -6.50837375937501 -1.31483787812500 
 S -1.32464770937500 -7.21077975937501 3.874812187499987E-002
 S -1.20913370937500 -3.34885675937501 -3.84761287812500 
 S -4.24403470937500 -3.09515775937501 -1.16798687812500 
 S -1.92144370937500 -3.72945075937501 0.145445121875000 
