16

 C -2.27013126250000 -6.77246741875000 -2.38531181250000 
 C -1.09009026250000 -7.19992441875000 -1.64109981250000 
 C -2.97285826250000 -3.02680741875000 -2.35816881250000 
 C -1.75408626250000 -3.55303241875000 -1.74104481250000 
 N -0.100771262499996 -7.47067641875000 -2.44524781250000 
 N -2.12883926250000 -6.70923641875000 -3.71286681250000 
 N -2.99959826250000 -6.85759141875000 8.593918750000062E-002
 N -0.739611262499996 -3.92921241875000 -2.51333181250000 
 N -2.84227726250000 -2.94502741875000 -3.66173081250000 
 N -3.46469126250000 -3.31591141875000 0.157972187500001 
 S -0.555777262499996 -7.17356541875000 -4.01203281250000 
 S -3.70247826250000 -6.53382341875000 -1.35437181250000 
 S -1.38230726250000 -7.28800541875000 8.734187500000656E-003
 S -1.27419126250000 -3.41733241875000 -4.04428881250000 
 S -4.20426126250000 -2.75978341875000 -1.20540481250000 
 S -1.88267526250000 -3.74920941875000 7.975187500000480E-003
