16

 C -2.49812563125001 -6.48933550312500 -2.52911147500000 
 C -1.31544463125001 -6.73244550312500 -1.78518947500000 
 C -2.59349563125001 -2.59184450312500 -2.47520147500000 
 C -1.34305163125001 -3.02073150312500 -1.83640047500000 
 N -0.220829631250005 -6.74869350312500 -2.53711447500000 
 N -2.42976563125001 -6.30117050312500 -3.84238947500000 
 N -3.20406063125001 -6.66056150312500 -4.948847499999931E-002
 N -0.296633631250006 -3.24054750312500 -2.63572347500000 
 N -2.47046163125001 -2.40278250312500 -3.80493447500000 
 N -2.97885363125001 -2.62283550312500 8.634752500000076E-002
 S -0.755780631250006 -6.44619450312500 -4.08700247500000 
 S -3.90277663125001 -6.42655350312500 -1.53191547500000 
 S -1.60396063125001 -6.92418550312500 -9.244147499999911E-002
 S -0.954308631250005 -2.82175250312500 -4.11958447500000 
 S -3.75914663125001 -2.24417650312500 -1.30653947500000 
 S -1.45174263125001 -3.19684950312500 -0.103235474999999 
