16

 C -2.45119943437500 -6.29727850312500 -2.45505919375000 
 C -1.27973243437500 -6.83884650312500 -1.82382319375000 
 C -2.53466743437500 -2.60684250312500 -2.16583119375000 
 C -1.34026243437500 -3.28885550312500 -1.62632119375000 
 N -0.286358434375000 -7.11426450312500 -2.65502819375000 
 N -2.37275043437500 -6.19185050312500 -3.77758219375000 
 N -3.10672043437500 -6.73820550312500 -3.596419374999993E-002
 N -0.340640434375000 -3.44938350312500 -2.49323519375000 
 N -2.38630143437500 -2.34193450312500 -3.46804419375000 
 N -2.94505843437500 -2.84773050312500 0.344300806250000 
 S -0.836321434375000 -6.69086950312500 -4.20115719375000 
 S -3.79322143437500 -5.91536450312500 -1.34884019375000 
 S -1.49629443437500 -7.20005150312500 -0.179863193750000 
 S -0.900047434375000 -2.87419050312500 -3.97566519375000 
 S -3.73237443437500 -2.29690850312500 -0.992046193750000 
 S -1.39270443437500 -3.42276250312500 0.122545806250000 
