16

 C -2.49137217500000 -6.78321688124999 -2.39078408125000 
 C -1.18416117500000 -6.99070188124999 -1.84580408125000 
 C -2.45241617500000 -2.69213588124999 -2.42621008125000 
 C -1.30102517500000 -3.24802988124999 -1.69753608125000 
 N -0.217800174999999 -6.93128588124999 -2.72552508125000 
 N -2.46588817500000 -6.66397788124999 -3.71086108125000 
 N -2.75949617500000 -6.98723188124999 0.180209918750001 
 N -0.258219174999999 -3.53525388124999 -2.49169408125000 
 N -2.19085417500000 -2.40044288124999 -3.70786208125000 
 N -3.23617117500000 -3.02782088124999 2.505591875000057E-002
 S -0.885896174999999 -6.71772688124999 -4.21935108125000 
 S -3.76083917500000 -6.78349888124999 -1.15588308125000 
 S -1.12749417500000 -7.02284688124999 -0.112185081249999 
 S -0.715690174999999 -3.07373088124999 -4.03110808125000 
 S -3.84218817500000 -2.48769888124999 -1.46043008125000 
 S -1.64045217500000 -3.47916288124999 8.404918750000601E-003
