16

 C -2.44683137499999 -6.41833484062500 -2.34611211562500 
 C -1.20519137499999 -6.71221584062500 -1.72228811562500 
 C -2.31648737499999 -3.05192784062500 -2.10330811562500 
 C -1.09001237499999 -3.40965284062500 -1.46304611562500 
 N -0.167350374999995 -6.92171784062500 -2.51113111562500 
 N -2.34050837499999 -6.23372684062500 -3.62709311562500 
 N -2.93605437499999 -6.93174184062500 0.148230884375000 
 N -2.951037499999387E-002 -3.46420684062500 -2.23970011562500 
 N -2.28342337499999 -2.86782884062500 -3.42809711562500 
 N -2.87946437499999 -3.33130884062500 0.448348884375000 
 S -0.756624374999994 -6.61417584062500 -4.02702611562500 
 S -3.76108837499999 -6.53191684062500 -1.28299911562500 
 S -1.31744637499999 -7.00303684062500 1.660884375000338E-003
 S -0.690710374999995 -3.21478284062500 -3.80350811562500 
 S -3.66894437499999 -3.01051484062500 -0.932689115625000 
 S -1.24081937499999 -3.54515984062500 0.207361884375000 
