16

 C -2.45322022187500 -6.55351693124999 -2.32394256562500 
 C -1.15183422187500 -6.71941593124999 -1.69234656562500 
 C -2.59932822187500 -2.85121093124999 -2.60341856562500 
 C -1.32683322187500 -3.19156393124999 -2.07433156562500 
 N -0.166787221875000 -6.75399693124999 -2.57275556562500 
 N -2.45005722187500 -6.39720293124999 -3.62263556562500 
 N -2.97338022187500 -6.77312093124999 0.144768434374999 
 N -0.349286221875000 -3.18819793124999 -2.99431756562500 
 N -2.56537222187500 -2.44294693124999 -3.89535356562500 
 N -2.95170222187500 -3.18094293124999 -5.708756562500117E-002
 S -0.851143221875001 -6.33109493124999 -4.07043456562500 
 S -3.80122422187500 -6.48159093124999 -1.30480556562500 
 S -1.35575622187500 -7.01800493124999 1.323243437499855E-002
 S -0.957273221875001 -2.71302993124999 -4.34637356562500 
 S -3.88128422187500 -2.83425393124999 -1.38479956562500 
 S -1.32359122187500 -3.39583593124999 -0.361144565625001 
