16

 C -2.43796755312500 -6.22169033750000 -2.44067907812500 
 C -1.17605255312500 -6.65256433750000 -1.76781307812500 
 C -2.32268555312500 -2.91124933750000 -2.51197107812500 
 C -1.04795655312500 -3.21891933750000 -1.86528507812500 
 N -0.236278553125000 -6.98502233750000 -2.62499007812500 
 N -2.32733755312500 -6.12159433750000 -3.74617807812500 
 N -2.97123555312500 -6.38143733750000 2.508692187499739E-002
 N -5.496055312500125E-002 -3.39213033750000 -2.75073107812500 
 N -2.21131655312500 -2.86194733750000 -3.82508007812500 
 N -2.88682755312500 -3.11322333750000 -1.621207812500280E-002
 S -0.808117553125000 -6.53946233750000 -4.11993207812500 
 S -3.83855155312500 -5.96133033750000 -1.42010707812500 
 S -1.38424355312500 -6.69937633750000 -8.221507812500262E-002
 S -0.620808553125000 -3.10840733750000 -4.25421107812500 
 S -3.68098955312500 -2.91736733750000 -1.43889507812500 
 S -1.21809355312500 -3.47600933750000 -8.120607812500280E-002
