16

 C -2.61731018437500 -6.37037005937500 -2.48622686562500 
 C -1.39052318437500 -6.93173905937500 -1.99537486562500 
 C -2.67044718437500 -3.03212205937500 -2.35245086562500 
 C -1.51312418437500 -3.33446605937500 -1.61438386562500 
 N -0.531629184375002 -7.05394905937500 -2.97429486562500 
 N -2.66888118437500 -6.17932805937500 -3.81687486562500 
 N -2.93129818437500 -6.78239505937500 2.674713437499854E-002
 N -0.401091184375002 -3.56327905937500 -2.35865286562500 
 N -2.48494418437500 -2.98456005937500 -3.67235086562500 
 N -3.39414018437500 -2.86734605937500 0.125183134374999 
 S -1.10930918437500 -6.49152105937500 -4.44384686562500 
 S -3.76585618437500 -5.99406205937500 -1.20212986562500 
 S -1.35864018437500 -7.18742305937500 -0.288634865625002 
 S -0.911218184375001 -3.48895305937500 -3.93615786562500 
 S -4.02890518437500 -2.67917505937500 -1.36337386562500 
 S -1.83085618437500 -3.39831305937500 8.374213437499844E-002
