16

 C -2.61193346250000 -6.79176663125001 -2.32471956562500 
 C -1.33957046250000 -7.14903863125001 -1.77805056562500 
 C -2.38491846250000 -3.09907663125001 -2.31266256562500 
 C -1.13728446250000 -3.54390163125001 -1.79087056562500 
 N -0.320008462500002 -7.28975763125000 -2.60230156562500 
 N -2.53027246250000 -6.62865663125001 -3.64204156562500 
 N -2.92495046250000 -6.79085563125001 0.237367434375000 
 N -0.145645462500002 -3.72552963125001 -2.64516056562500 
 N -2.32361846250000 -2.89713863125001 -3.65001956562500 
 N -2.73377246250000 -3.32093863125001 0.168059434375000 
 S -0.982558462500002 -7.02092563125001 -4.12716856562500 
 S -3.86075046250000 -6.44614863125001 -1.14034256562500 
 S -1.35587346250000 -7.18555363125001 -2.850156562500006E-002
 S -0.792471462500002 -3.28877163125001 -4.17897656562500 
 S -3.55263446250000 -2.79662063125001 -1.13410256562500 
 S -1.20722446250000 -3.90822863125001 -0.118933565625000 
