16

 C -2.41242967187501 -6.29745335937500 -2.41322349687500 
 C -1.23344967187501 -6.80336835937500 -1.79435549687500 
 C -2.51673167187501 -2.49048935937500 -2.32942149687500 
 C -1.37307867187501 -3.05496335937500 -1.71849149687500 
 N -0.269625671875008 -6.95204835937500 -2.66480649687500 
 N -2.31711967187501 -5.98337335937500 -3.67090849687500 
 N -2.95888967187501 -6.32013635937500 7.294350312500186E-002
 N -0.343861671875008 -3.26790335937500 -2.53926349687500 
 N -2.39185467187501 -2.41447035937500 -3.65678849687500 
 N -3.08122567187501 -2.58677835937500 0.159838503125002 
 S -0.840878671875008 -6.43287935937500 -4.15506249687500 
 S -3.76652667187501 -6.08669635937500 -1.33528949687500 
 S -1.41647767187501 -7.05076735937500 -0.103541496874998 
 S -0.827255671875008 -2.83966935937500 -4.09336049687500 
 S -3.73631967187501 -1.95421835937500 -1.26253249687500 
 S -1.56678867187501 -3.25936135937500 -1.522749687499814E-002
