16

 C -2.33850230625001 -6.25194200624999 -2.58704942187500 
 C -1.17005630625001 -6.80263700624999 -1.91586542187500 
 C -2.25908630625001 -2.90650300624999 -2.36001142187500 
 C -1.04678330625001 -3.55585300624999 -1.81615742187500 
 N -0.124157306250006 -7.09840800624999 -2.68463542187500 
 N -2.06942530625001 -5.98067000624999 -3.86957642187500 
 N -2.98000830625001 -6.67549800624999 -8.473642187500152E-002
 N -0.129146306250006 -3.60558000624999 -2.75006342187500 
 N -2.18724330625001 -2.50285600624999 -3.62035842187500 
 N -2.61538130625001 -3.26115400624999 0.148884578124999 
 S -0.539492306250006 -6.58148400624999 -4.21516842187500 
 S -3.67675530625001 -6.03602900624999 -1.47492742187500 
 S -1.36401630625001 -7.13725800624999 -0.165844421875001 
 S -0.665732306250006 -2.92345300624999 -4.14466242187500 
 S -3.45887730625001 -2.80893200624999 -1.15021942187500 
 S -1.06202030625001 -3.78641000624999 -0.124042421875001 
