16

 C -2.48483301562499 -6.53572611562500 -2.41045715312500 
 C -1.24285501562499 -7.03090011562500 -1.96697115312500 
 C -2.56038801562499 -2.56772011562500 -2.39564715312500 
 C -1.53310701562499 -3.22622711562500 -1.65534215312500 
 N -0.250426015624993 -7.11810511562500 -2.81528915312500 
 N -2.41420601562499 -6.22666711562500 -3.69157615312500 
 N -2.78031001562499 -7.01697911562500 0.157929846874999 
 N -0.639249015624993 -3.75084811562500 -2.47089115312500 
 N -2.36374201562499 -2.49288611562500 -3.70598815312500 
 N -3.38271101562499 -2.63650111562500 3.926846874998446E-003
 S -0.910356015624993 -6.61241511562500 -4.25844715312500 
 S -3.66238801562499 -6.47844411562500 -1.12496415312500 
 S -1.27326501562499 -7.44496711562500 -0.303914153125001 
 S -0.950062015624993 -3.37518711562500 -4.02442715312500 
 S -3.92270401562499 -2.02245911562500 -1.45038015312500 
 S -1.88431301562499 -3.21773211562500 1.959284687499840E-002
