16

 C -2.32698655937500 -6.30153773437500 -2.46222583437500 
 C -1.16142955937500 -6.89189373437500 -1.83681783437500 
 C -2.28001955937500 -2.69136573437500 -2.38841283437500 
 C -1.03524755937500 -3.27129773437500 -1.76789083437500 
 N -0.173306559374996 -7.12430473437500 -2.68136183437500 
 N -2.14486555937500 -6.00259473437500 -3.72378183437500 
 N -3.01211655937500 -6.83682173437500 -3.439783437500132E-002
 N -4.749355937499633E-002 -3.55616473437500 -2.63333583437500 
 N -2.26085655937500 -2.67091073437500 -3.73558683437500 
 N -2.65755055937500 -2.99257173437500 0.170375165624999 
 S -0.631001559374996 -6.59664273437500 -4.21335283437500 
 S -3.66597555937500 -6.11044973437500 -1.38337983437500 
 S -1.40316355937500 -7.20791673437500 -9.388183437500119E-002
 S -0.701161559374997 -3.15205773437500 -4.14437683437500 
 S -3.50430655937500 -2.66860273437500 -1.19975183437500 
 S -1.18592255937500 -3.63389473437500 -7.769183437500127E-002
