16

 C -2.35962109375000 -6.21431808437500 -2.38572880625000 
 C -1.33193409375000 -6.96006908437500 -1.76821080625000 
 C -2.56477009375000 -2.40342308437500 -2.46286380625000 
 C -1.44896509375000 -3.03426208437500 -1.76119280625000 
 N -0.349952093749999 -7.22872908437500 -2.60717980625000 
 N -2.19486709375000 -5.92212408437500 -3.66053480625000 
 N -3.20494209375000 -6.64248208437500 4.157193749999788E-003
 N -0.359779093749999 -3.29278608437500 -2.54163680625000 
 N -2.33633309375000 -2.26151308437500 -3.76358880625000 
 N -3.25424009375000 -2.61084908437500 3.828019374999991E-002
 S -0.669975093749999 -6.50679208437500 -4.09000280625000 
 S -3.77852409375000 -5.95531908437500 -1.41984180625000 
 S -1.63274109375000 -7.21186308437500 -0.102929806250000 
 S -0.767603093749999 -2.88135208437500 -4.03497280625000 
 S -3.95944009375000 -2.08035908437500 -1.41340480625000 
 S -1.68431909375000 -3.17097308437500 -4.837980625000027E-002
