16

 C -2.36523858125000 -6.45723857187500 -2.18637142500000 
 C -1.06951358125000 -6.88191057187500 -1.73027042500000 
 C -2.45648458125000 -2.78525257187500 -2.48485042500000 
 C -1.34876958125000 -3.34929757187501 -1.82461142500000 
 N -0.101253581249996 -6.95699557187501 -2.63192342500000 
 N -2.39746158125000 -6.19865357187500 -3.50138042500000 
 N -2.62383958125000 -6.62492757187500 0.324453574999999 
 N -0.249286581249996 -3.44259457187500 -2.54456242500000 
 N -2.27610258125000 -2.54451057187500 -3.79299342500000 
 N -3.03422158125000 -2.76598757187501 4.869957499999877E-002
 S -0.835798581249997 -6.46279457187500 -4.06643442500000 
 S -3.46771558125000 -6.07355257187501 -0.992236425000001 
 S -1.02266658125000 -7.11245257187501 6.276057499999887E-002
 S -0.747795581249997 -3.05666157187501 -4.09502642500000 
 S -3.77089058125000 -2.34997157187501 -1.38765142500000 
 S -1.47349558125000 -3.38886157187500 -0.142119425000001 
