16

 C -2.64522184687500 -6.63898733125000 -2.35120960937500 
 C -1.34101284687500 -6.85655033125000 -1.71777860937500 
 C -2.22992184687500 -2.97912533125000 -2.47175960937500 
 C -1.01713184687500 -3.45761933125000 -1.79004860937500 
 N -0.270111846874999 -6.90723533125000 -2.50332360937500 
 N -2.53886184687500 -6.45676433125000 -3.66419760937500 
 N -3.09722184687500 -7.14498133125000 0.121335390624999 
 N -4.441384687499905E-002 -3.59308133125000 -2.67237360937500 
 N -2.13880584687500 -2.79672733125000 -3.80138760937500 
 N -2.78679484687500 -2.98703633125000 3.920239062499942E-002
 S -0.871469846874999 -6.55801133125000 -4.01172060937500 
 S -3.91060284687500 -6.92289833125000 -1.28264360937500 
 S -1.37832884687500 -7.13706933125000 -1.816860937500064E-002
 S -0.585352846874999 -3.25268033125000 -4.19873060937500 
 S -3.60796684687500 -2.81515333125000 -1.40523360937500 
 S -1.17530284687500 -3.38350733125000 -2.569060937500067E-002
