16

 C -2.64648735625000 -6.22627198750000 -2.64667030937500 
 C -1.37893735625000 -6.58401298750000 -2.04469630937500 
 C -2.46146635625000 -2.75639198750000 -2.48576930937500 
 C -1.27207635625000 -3.08633798750000 -1.86764230937500 
 N -0.344247356249998 -6.68992198750000 -2.86433030937500 
 N -2.53474035625000 -6.07558198750000 -3.96694430937500 
 N -3.25964435625000 -6.87770798750000 -0.323908309375000 
 N -0.221597356249998 -3.21073498750000 -2.66428930937500 
 N -2.37850735625000 -2.66088298750000 -3.80510230937500 
 N -2.90398635625000 -2.92650598750000 9.685969062499988E-002
 S -0.979259356249997 -6.32747398750000 -4.38425630937500 
 S -4.00842835625000 -6.21783398750000 -1.65129230937500 
 S -1.61933335625000 -6.93386898750000 -0.375137309375000 
 S -0.782853356249997 -3.00173498750000 -4.23250230937500 
 S -3.76373835625000 -2.69104498750000 -1.33985630937500 
 S -1.26146435625000 -3.14935098750000 -0.140459309375000 
