16

 C -2.43673594375000 -6.46652948125000 -2.59732826250000 
 C -1.16426694375000 -6.95823848125000 -1.99656126250000 
 C -2.32391994375000 -2.58355948125000 -2.50280226250000 
 C -1.14790794375000 -3.25252948125000 -2.03688326250000 
 N -0.223137943750000 -7.26767748125000 -2.87487526250000 
 N -2.33688794375000 -6.35633948125000 -3.93025526250000 
 N -2.90844194375000 -6.50390548125000 -4.153626250000175E-002
 N -0.133638943750000 -3.19693948125000 -2.92453626250000 
 N -2.25181594375000 -2.06610248125000 -3.74481926250000 
 N -2.65310494375000 -3.16559248125000 -2.034262500001605E-003
 S -0.773955943750001 -6.83402148125000 -4.41819626250000 
 S -3.76468494375000 -6.27523348125000 -1.46040126250000 
 S -1.36044994375000 -7.23544248125000 -0.286113262500002 
 S -0.755771943750000 -2.43370548125000 -4.24188526250000 
 S -3.53719994375000 -2.52155748125000 -1.27056626250000 
 S -1.08719494375000 -3.63209748125000 -0.356785262500002 
