16

 C -2.31873181875000 -6.53874189687500 -2.34107913125000 
 C -1.14544181875000 -7.10257289687500 -1.77412313125000 
 C -2.47309581875000 -2.78774789687500 -2.28811913125000 
 C -1.15211781875000 -3.17007489687500 -1.69001113125000 
 N -0.145457818750001 -7.35608989687500 -2.60478413125000 
 N -2.20675481875000 -6.36403289687500 -3.63397013125000 
 N -2.78812781875000 -6.64865089687500 0.180275868750000 
 N -0.218917818750000 -3.39244189687500 -2.59101213125000 
 N -2.42813381875000 -2.70255289687500 -3.59655013125000 
 N -2.85142281875000 -2.87712989687500 0.261928868750000 
 S -0.668508818750000 -6.76273189687500 -4.12016313125000 
 S -3.59902281875000 -6.35351889687500 -1.26292613125000 
 S -1.35535881875000 -7.29478289687500 -1.972613125000033E-002
 S -0.973416818750001 -3.31134089687500 -4.12292513125000 
 S -3.84101181875000 -2.76757089687500 -1.11390913125000 
 S -1.20102381875000 -3.15363389687500 8.554386874999986E-002
