16

 C -2.37167538750000 -6.55553929687500 -2.26678862187500 
 C -1.11492938750000 -7.01866529687500 -1.81295862187500 
 C -2.45755138750000 -2.70951229687500 -2.49888162187500 
 C -1.29410838750000 -3.28621729687500 -1.87598362187500 
 N -0.129447387500001 -7.05836129687500 -2.69173162187500 
 N -2.33911438750000 -6.31294329687500 -3.58768962187500 
 N -2.55633238750000 -6.57916129687500 0.237471378125001 
 N -0.333480387500001 -3.61133629687500 -2.74161262187500 
 N -2.32405638750000 -2.41086029687500 -3.79923462187500 
 N -3.02320238750000 -2.89641529687500 2.405237812500083E-002
 S -0.855563387500001 -6.65737729687500 -4.09843862187500 
 S -3.49352538750000 -6.08648429687500 -1.08553262187500 
 S -0.983255387500001 -6.97797529687500 -7.769862187499932E-002
 S -0.790538387500001 -3.00947129687500 -4.24277862187500 
 S -3.77467538750000 -2.37339529687500 -1.38072862187500 
 S -1.45697238750000 -3.37356629687500 -6.125562187499933E-002
