16

 C -2.58623832187500 -6.50317209375000 -2.14783190625000 
 C -1.42761832187500 -7.19674909375000 -1.68112390625000 
 C -2.33090832187500 -2.74534709375000 -2.42785690625000 
 C -1.17459232187500 -3.36267409375000 -1.81874890625000 
 N -0.510123321875002 -7.48333109375000 -2.57789390625000 
 N -2.61660532187500 -6.31378409375000 -3.48002990625000 
 N -2.86405832187500 -6.90431709375000 0.490279093749999 
 N -0.145414321875003 -3.60930109375000 -2.65499590625000 
 N -2.22713532187500 -2.47046209375000 -3.72520590625000 
 N -2.89063632187500 -2.90447709375000 0.128290093749999 
 S -1.10314532187500 -6.88872809375000 -4.00674990625000 
 S -3.78655432187500 -6.50602509375000 -0.818358906250001 
 S -1.41695032187500 -7.57054609375000 5.458909374999932E-002
 S -0.755228321875002 -3.17323609375000 -4.14566290625000 
 S -3.68781632187500 -2.45492009375000 -1.25585290625000 
 S -1.32375232187500 -3.49324209375000 -6.758190625000071E-002
