16

 C -2.55500187187499 -6.24108388125000 -2.43639128437500 
 C -1.45121687187499 -6.81502288125000 -1.71201328437500 
 C -2.48527987187499 -3.10282388125000 -2.34287028437500 
 C -1.19796687187499 -3.22296188125000 -1.74897628437500 
 N -0.494157871874993 -7.27140488125000 -2.51353428437500 
 N -2.48152487187499 -6.20940988125000 -3.76393728437500 
 N -3.20914387187499 -6.35505488125000 7.170571562500139E-002
 N -0.172459871874993 -3.43044788125000 -2.58760328437500 
 N -2.41497687187499 -2.95966688125000 -3.64463128437500 
 N -2.98298887187499 -3.09025788125000 0.165514715625001 
 S -1.08377187187499 -7.07606888125000 -4.05584128437500 
 S -3.92793287187499 -5.90847588125000 -1.36887128437500 
 S -1.63226687187499 -6.79009088125000 6.884715625001370E-003
 S -0.841317871874994 -3.19391588125000 -4.09443628437500 
 S -3.85437587187499 -3.19809588125000 -1.23249228437500 
 S -1.26477387187499 -3.25811888125000 1.602571562500144E-002
