16

 C -2.40057860937499 -6.42873373437500 -2.35338744375000 
 C -1.13799160937499 -6.77210373437500 -1.67575044375000 
 C -2.29600560937499 -2.95181873437500 -2.12088944375000 
 C -1.02470060937499 -3.25690273437500 -1.54770844375000 
 N -0.116135609374992 -6.92235473437500 -2.51327544375000 
 N -2.32013060937499 -6.30495873437500 -3.67580444375000 
 N -3.00314960937499 -6.83072473437500 7.394655625000124E-002
 N -6.039360937499261E-002 -3.48836673437500 -2.41872644375000 
 N -2.21708160937499 -2.86692773437500 -3.43786644375000 
 N -2.70841160937499 -3.28945973437500 0.380477556250001 
 S -0.715568609374992 -6.53959473437500 -4.00124044375000 
 S -3.84070260937499 -6.50278973437500 -1.29594044375000 
 S -1.32214860937499 -6.91462973437500 -2.719544374999883E-002
 S -0.650594609374992 -3.12119073437500 -3.88521044375000 
 S -3.59389760937499 -2.94497873437500 -1.00194244375000 
 S -1.09941860937499 -3.57978073437500 0.229530556250001 
