16

 C -2.47273302500000 -6.57483396875001 -2.41284719062500 
 C -1.17042502500000 -6.91344996875001 -1.80957219062500 
 C -2.19528902500000 -3.28000296875001 -2.22831219062500 
 C -0.968359025000001 -3.58472096875001 -1.54955119062500 
 N -0.183995025000001 -7.23093896875001 -2.62505519062500 
 N -2.41642802500000 -6.54576296875001 -3.75292319062500 
 N -2.84333102500000 -6.64392396875001 0.184056809375002 
 N 7.416097499999985E-002 -3.88897996875001 -2.30116719062500 
 N -2.04276802500000 -3.19419296875001 -3.57320619062500 
 N -2.72997802500000 -3.22718496875001 0.213953809375002 
 S -0.869696025000001 -6.98383496875001 -4.14219719062500 
 S -3.67489002500000 -6.39467096875001 -1.18722119062500 
 S -1.18571702500000 -6.95372296875001 -3.186419062499857E-002
 S -0.511892025000001 -3.59996796875001 -3.96548319062500 
 S -3.56784502500000 -3.11706196875001 -1.21470619062500 
 S -1.12899402500000 -3.64998896875001 0.174533809375002 
