16

 C -2.40586555000000 -6.69523295000000 -2.28838652500000 
 C -1.19795455000000 -6.89296095000000 -1.60859752500000 
 C -2.35402655000000 -2.63299495000000 -2.50066152500000 
 C -1.10746755000000 -3.18480495000000 -2.03428352500000 
 N -0.131153550000001 -6.83146895000000 -2.38020152500000 
 N -2.32560855000000 -6.50157495000000 -3.60861952500000 
 N -2.94567855000000 -6.84232295000000 0.256941475000000 
 N -0.177092550000001 -3.28404995000000 -2.94409452500000 
 N -2.41467555000000 -2.48398995000000 -3.80619152500000 
 N -2.62399855000000 -2.89817995000000 5.766847500000050E-002
 S -0.721963550000001 -6.57211995000000 -3.90132052500000 
 S -3.74151155000000 -6.62308895000000 -1.17246652500000 
 S -1.29974055000000 -7.07438095000000 7.414847500000032E-002
 S -0.879169550000001 -2.99669695000000 -4.38989752500000 
 S -3.51397755000000 -2.42670795000000 -1.29725952500000 
 S -1.10129855000000 -3.48787895000000 -0.327866525000000 
