16

 C -2.32481975000000 -6.27653520625001 -2.25499776875000 
 C -1.13534675000000 -6.75968320625001 -1.53744576875000 
 C -2.36813875000000 -2.51030420625001 -2.12296276875000 
 C -1.14470375000000 -3.12949420625001 -1.66780276875000 
 N -0.115459750000005 -6.98918220625001 -2.33227876875000 
 N -2.21461075000000 -6.16186820625001 -3.54437176875000 
 N -3.01141375000000 -6.59626620625001 0.158019231250003 
 N -0.116046750000004 -3.15782120625001 -2.49643776875000 
 N -2.16690475000000 -1.95777720625001 -3.31187376875000 
 N -2.89249475000000 -3.41915920625001 0.253878231250003 
 S -0.664469750000005 -6.65103420625001 -3.89998476875000 
 S -3.73230375000000 -6.07808520625001 -1.33056376875000 
 S -1.43289775000000 -7.06545820625001 0.119427231250003 
 S -0.661980750000004 -2.44830420625001 -3.86711276875000 
 S -3.62886275000000 -2.48847320625001 -0.930121768749997 
 S -1.31459775000000 -3.77930620625001 -7.951276874999680E-002
