16

 C -2.39073997187500 -6.62062921562500 -2.18296522187500 
 C -1.20432597187500 -7.08118821562500 -1.57566122187500 
 C -2.20065097187500 -2.43833621562500 -2.58186622187500 
 C -1.07520897187500 -2.97012421562500 -1.86198022187500 
 N -0.290353971875001 -7.29134321562500 -2.52608022187500 
 N -2.39192097187500 -6.41224421562500 -3.49822622187500 
 N -2.94547697187500 -6.84677421562500 0.305238778124999 
 N 1.771028124998963E-003 -3.18900121562500 -2.60200522187500 
 N -1.98025697187500 -2.19651721562500 -3.86876622187500 
 N -2.99182797187500 -2.90273821562500 -0.145771221875001 
 S -0.864567971875001 -6.71241021562500 -3.99253522187500 
 S -3.71995697187500 -6.28362021562500 -1.11227822187500 
 S -1.31400897187500 -7.29267521562500 0.123014778124999 
 S -0.457545971875001 -2.82610521562500 -4.17182822187500 
 S -3.65964697187500 -2.40488321562500 -1.60434822187500 
 S -1.35420497187500 -3.10994321562500 -8.559722187500096E-002
