16

 C -2.61112184687500 -6.65724568750001 -2.31511361250000 
 C -1.31938484687500 -6.84010668750000 -1.67072361250000 
 C -2.45833984687500 -3.08347268750000 -2.48276961250000 
 C -1.11080984687500 -3.33318068750000 -1.94076461250000 
 N -0.351294846875001 -6.77820368750000 -2.56433761250000 
 N -2.63895684687500 -6.50940168750000 -3.66498561250000 
 N -3.19115584687500 -6.83798268750001 0.250253387500001 
 N -8.507784687500131E-002 -3.32223568750001 -2.78825861250000 
 N -2.36165684687500 -3.03701668750000 -3.80353461250000 
 N -2.72406984687500 -3.06798868750001 5.106638750000103E-002
 S -1.02098584687500 -6.67126368750001 -4.10708961250000 
 S -3.99500584687500 -6.71973868750000 -1.18769661250000 
 S -1.53928384687500 -7.16240168750001 5.668338750000124E-002
 S -0.810415846875001 -3.30706468750000 -4.29928661250000 
 S -3.69128584687500 -2.90138768750001 -1.24633561250000 
 S -1.06279284687500 -3.33580568750001 -0.196085612499999 
