16

 C -2.40801504375000 -6.54356210312500 -2.36584401562500 
 C -1.14894004375000 -6.93120810312500 -1.72239901562500 
 C -2.17865004375000 -2.53827610312500 -2.20894101562500 
 C -1.09072804375000 -3.34975110312500 -1.65256901562500 
 N -0.159303043750000 -7.12561010312500 -2.56469201562500 
 N -2.33906604375000 -6.38366210312500 -3.68923101562500 
 N -2.91227204375000 -6.70045210312500 8.893898437499637E-002
 N -5.963104374999961E-002 -3.45768010312500 -2.48927701562500 
 N -1.92595804375000 -2.07006610312500 -3.44121801562500 
 N -2.81010104375000 -3.20863410312500 0.222924984374997 
 S -0.756424043749999 -6.65953510312500 -4.07340901562500 
 S -3.75337604375000 -6.47467210312500 -1.39236201562500 
 S -1.32819504375000 -7.14546910312500 -7.857015625003516E-003
 S -0.398219043749999 -2.68879110312500 -3.85837001562500 
 S -3.60612704375000 -2.54936910312500 -1.14422601562500 
 S -1.23988504375000 -3.73482010312500 2.288098437499642E-002
