16

 C -2.30607122500001 -6.31376615625000 -2.41745035000000 
 C -1.07006822500001 -6.87328515625000 -1.81426435000000 
 C -2.27203722500001 -2.58668815625000 -2.43744835000000 
 C -1.10509522500001 -3.10107215625000 -1.72234435000000 
 N -9.112322500000580E-002 -7.14236315625000 -2.67865935000000 
 N -2.18991322500001 -6.08090615625000 -3.72221835000000 
 N -2.94996622500001 -6.70267815625000 -5.073435000000104E-002
 N -5.639022500000568E-002 -3.45562615625000 -2.48567935000000 
 N -2.07403122500001 -2.49006515625000 -3.76081935000000 
 N -3.06352922500001 -2.92132015625000 -2.577335000000103E-002
 S -0.682222225000006 -6.67509415625000 -4.17397635000000 
 S -3.71156122500001 -6.24993115625000 -1.40219135000000 
 S -1.31018322500001 -7.11311515625000 -8.619535000000123E-002
 S -0.568256225000006 -2.98984215625000 -4.01780735000000 
 S -3.75175522500001 -2.38910815625000 -1.44170035000000 
 S -1.33696422500001 -3.15820015625000 2.262364999999900E-002
