16

 C -2.26922138125001 -6.45224219062500 -2.33590900312500 
 C -1.00809238125001 -6.87596319062500 -1.79903600312500 
 C -2.58806838125001 -2.67011219062500 -2.46882900312500 
 C -1.44599038125001 -3.18841519062500 -1.77014600312500 
 N -4.655638125001094E-002 -6.95735019062500 -2.72614200312500 
 N -2.34382738125001 -6.14920219062500 -3.63596000312500 
 N -2.61364838125001 -6.72946019062500 0.230148996874999 
 N -0.397136381250012 -3.51365119062500 -2.58053900312500 
 N -2.39288738125001 -2.38067619062500 -3.76205600312500 
 N -3.32927638125001 -2.98063419062500 -3.815003125001493E-003
 S -0.784435381250011 -6.39896319062500 -4.14560600312500 
 S -3.52806438125001 -6.32917119062500 -1.09897800312500 
 S -1.02943938125001 -7.18530219062500 -5.592500312500137E-002
 S -0.849228381250011 -2.93004619062500 -4.08171600312500 
 S -3.97222538125001 -2.40887419062500 -1.37906100312500 
 S -1.73160938125001 -3.34529319062500 -7.285000312500145E-002
