16

 C -2.20484339062499 -6.55466820625000 -2.45992840312500 
 C -1.04548739062499 -7.13223020625000 -1.85486540312500 
 C -2.55223639062499 -2.35122420625000 -2.39887940312500 
 C -1.41214839062499 -2.89939920625000 -1.79095840312500 
 N 3.248560937500944E-002 -7.31316420625000 -2.62321040312500 
 N -2.00884039062499 -6.40561120625000 -3.75928540312500 
 N -2.70461439062499 -6.57450120625000 8.591759687499989E-002
 N -0.441499390624990 -3.26930420625000 -2.63770540312500 
 N -2.53190239062499 -2.31301120625000 -3.73933640312500 
 N -3.24890839062499 -2.66627620625000 5.377259687500002E-002
 S -0.457297390624991 -6.86014820625000 -4.14028140312500 
 S -3.47518039062499 -6.12487920625000 -1.31710740312500 
 S -1.18066139062499 -7.28097720625000 -0.111354403125000 
 S -1.04990639062499 -2.83163220625000 -4.14454240312500 
 S -3.90609539062499 -1.96747320625000 -1.27572740312500 
 S -1.64527239062499 -3.14988720625000 -7.065440312500004E-002
