16

 C -2.56120864062500 -6.33950489375001 -2.47769791875000 
 C -1.31910564062500 -6.64098389375000 -1.82862791875000 
 C -2.77028664062500 -2.66748489375000 -2.57349791875000 
 C -1.53393864062500 -3.06949189375000 -1.94538591875000 
 N -0.308068640624996 -6.72783489375001 -2.68644891875000 
 N -2.47434164062500 -6.06118989375001 -3.75292691875000 
 N -3.21085764062500 -6.63081589375001 -4.504991874999886E-002
 N -0.508844640624996 -3.17846189375001 -2.81002191875000 
 N -2.70412364062500 -2.45668189375001 -3.92878691875000 
 N -3.24212464062500 -3.10307689375001 -3.014591874999883E-002
 S -0.897757640624996 -6.45658289375000 -4.21333491875000 
 S -3.93808064062500 -6.37828289375001 -1.48800791875000 
 S -1.53989964062500 -6.88821389375001 -8.813391874999876E-002
 S -1.06558964062500 -2.73346989375001 -4.30188391875000 
 S -4.03677864062500 -2.43939389375001 -1.34500491875000 
 S -1.63069064062500 -3.37021789375000 -0.253877918749999 
