16

 C -2.44102955937501 -6.47232870625000 -2.31889237187500 
 C -1.14857855937501 -6.83839770625000 -1.75908637187500 
 C -2.45252355937501 -3.18188170625000 -2.06812637187500 
 C -1.24349755937501 -3.42669670625000 -1.35458837187500 
 N -0.106738559375006 -6.96545670625000 -2.59051737187500 
 N -2.38313155937501 -6.30375470625000 -3.63552837187500 
 N -2.95317655937501 -6.93050470625000 0.171716628124999 
 N -0.249969559375006 -3.55711970625000 -2.19294437187500 
 N -2.38418355937501 -3.01654970625000 -3.37982337187500 
 N -3.04842055937501 -3.37152070625000 0.416801628124999 
 S -0.794600559375006 -6.65976270625000 -4.09223537187500 
 S -3.77325655937501 -6.51110770625000 -1.18562837187500 
 S -1.28096455937501 -7.14712170625000 6.895462812499886E-002
 S -0.779631559375006 -3.23226770625000 -3.73521037187500 
 S -3.89302455937501 -3.08892870625000 -1.01811237187500 
 S -1.38658855937501 -3.56384170625000 0.416671628124999 
