16

 C -2.42890171250000 -6.64241053750000 -2.40363446875000 
 C -1.17817871250000 -6.96515153750000 -1.76899246875000 
 C -2.52474171250000 -2.85013253750000 -2.25285146875000 
 C -1.31971071250000 -3.31923253750000 -1.67760546875000 
 N -0.173559712499999 -7.16671853750000 -2.58252046875000 
 N -2.28343671250000 -6.57525553750000 -3.69996746875000 
 N -2.80455471250000 -6.70722953750000 0.154027531249999 
 N -0.373571712499999 -3.56707253750000 -2.60306946875000 
 N -2.57340371250000 -2.75390253750000 -3.60816546875000 
 N -2.90760871250000 -3.12956853750000 0.274309531249999 
 S -0.730856712499999 -7.01666353750000 -4.14411046875000 
 S -3.72443371250000 -6.39810553750000 -1.30189746875000 
 S -1.29061671250000 -7.30122553750000 -8.211246875000100E-002
 S -0.995426712499999 -3.03546853750000 -4.04910246875000 
 S -3.72536571250000 -2.55705153750000 -1.06549246875000 
 S -1.28542371250000 -3.26275553750000 8.097353124999906E-002
