16

 C -2.74325632812500 -6.23678281875001 -2.47185821562500 
 C -1.59927832812500 -6.80439481875000 -1.79368321562500 
 C -2.22770932812500 -3.00010381875001 -2.29508021562500 
 C -0.994243328124996 -3.42107581875001 -1.66947721562500 
 N -0.537242328124997 -7.03552381875001 -2.57464721562500 
 N -2.55594232812500 -6.04983581875001 -3.77677121562500 
 N -3.40285132812500 -6.46290681875000 -4.733221562500023E-002
 N 2.335367187500292E-002 -3.35093781875001 -2.50478121562500 
 N -2.13487232812500 -2.63648781875001 -3.57989221562500 
 N -2.70217232812500 -3.30600481875001 0.271397784375000 
 S -1.00126632812500 -6.55473881875001 -4.08487321562500 
 S -4.11215432812500 -6.02207881875001 -1.47711621562500 
 S -1.82004532812500 -7.04425781875001 -5.165421562500039E-002
 S -0.560498328124996 -2.94173381875001 -3.99264421562500 
 S -3.50733632812500 -2.97925781875001 -1.11537721562500 
 S -1.06552632812500 -3.59864881875001 5.635678437499969E-002
