16

 C -2.56650334687500 -6.66508761562500 -2.50279774687500 
 C -1.23583834687500 -7.08684561562500 -1.97407674687500 
 C -2.54402234687500 -2.66305761562500 -2.24452774687500 
 C -1.33823634687500 -3.12793661562500 -1.59595274687500 
 N -0.234764346875001 -7.15156361562500 -2.87128374687500 
 N -2.55572834687500 -6.50345961562500 -3.82742774687500 
 N -2.90324034687500 -6.75463061562500 -1.521274687500207E-002
 N -0.377552346875001 -3.40054961562500 -2.43630774687500 
 N -2.58050934687500 -2.64761761562500 -3.56054774687500 
 N -3.11366034687500 -2.98759461562500 0.257892253124998 
 S -1.03993634687500 -6.82868761562500 -4.30327874687500 
 S -3.78659534687500 -6.40533661562500 -1.32803174687500 
 S -1.20139534687500 -7.05808461562500 -0.161599746875002 
 S -1.01078034687500 -3.04957361562500 -3.95429474687500 
 S -3.85862034687500 -2.54018161562500 -1.12167074687500 
 S -1.57446234687500 -3.63880461562500 6.198625312499795E-002
