16

 C -2.32559476562501 -6.03319830625001 -2.29181996875000 
 C -1.17909976562501 -6.73754230625001 -1.82940996875000 
 C -2.71339776562501 -2.39825430625001 -2.68440296875000 
 C -1.50774176562501 -2.88661630625001 -2.06097896875000 
 N -0.285325765625006 -7.11964730625001 -2.71244396875000 
 N -2.29843176562501 -5.89394330625001 -3.60676696875000 
 N -2.72302776562501 -6.35942930625001 0.219962031250003 
 N -0.491546765625007 -3.10693930625001 -2.87213196875000 
 N -2.63199176562501 -2.38320530625001 -4.02071496875000 
 N -3.12800176562501 -2.39230030625001 -0.224738968749997 
 S -0.879334765625007 -6.56191230625001 -4.15025696875000 
 S -3.52586876562501 -5.75898530625001 -1.06428496875000 
 S -1.22127876562501 -7.08715230625001 -0.119389968749997 
 S -1.07155976562501 -2.76138830625001 -4.44365296875000 
 S -4.01085876562501 -2.14144730625001 -1.58578296875000 
 S -1.53936776562501 -2.87234730625001 -0.364903968749997 
