16

 C -2.36567800937500 -6.03525466250000 -2.12053457812500 
 C -1.18976400937500 -6.63631866250000 -1.62187357812500 
 C -2.55881900937500 -2.45679166250000 -2.52151157812500 
 C -1.37799400937500 -2.92832566250000 -1.85958057812500 
 N -0.265911009374999 -6.93607266250000 -2.53267557812500 
 N -2.32925400937500 -5.88756366250000 -3.43013857812500 
 N -2.77562200937500 -6.25653666250000 0.324372421874999 
 N -0.401165009374998 -3.16844766250000 -2.70907657812500 
 N -2.49470000937500 -2.39381466250000 -3.83206657812500 
 N -3.05906600937500 -2.40296366250000 -1.906557812500043E-002
 S -0.881989009374998 -6.42850766250000 -3.97751057812500 
 S -3.67031600937500 -5.88673366250000 -1.06449857812500 
 S -1.28102500937500 -6.84880766250000 8.406342187499960E-002
 S -0.943576009374998 -2.81048966250000 -4.24152557812500 
 S -3.85306700937500 -2.13740466250000 -1.44907157812500 
 S -1.54842500937500 -2.93762966250000 -0.153646578125000 
