16

 C -2.54540824374999 -6.47644305625000 -2.48273507187500 
 C -1.31738324374999 -6.71131205625000 -1.76901107187500 
 C -2.56617224374999 -2.55802405625000 -2.44486607187500 
 C -1.39646824374999 -3.08715805625000 -1.82263807187500 
 N -0.243939243749995 -6.76100705625000 -2.55046107187500 
 N -2.41225524374999 -6.28013605625000 -3.79057407187500 
 N -3.22139424374999 -6.67439105625000 -4.341907187499694E-002
 N -0.368201243749994 -3.20072705625000 -2.64644407187500 
 N -2.50510424374999 -2.34044505625000 -3.74750707187500 
 N -3.01042124374999 -2.61699205625000 0.133023928125003 
 S -0.781505243749995 -6.45994305625000 -4.11267607187500 
 S -3.92860524374999 -6.46893905625000 -1.53011107187500 
 S -1.63126124374999 -6.92220605625000 -2.179307187499679E-002
 S -0.955359243749994 -2.79819805625000 -4.17261807187500 
 S -3.79564624374999 -2.24823205625000 -1.30972107187500 
 S -1.48490824374999 -3.18796605625000 -0.115753071874997 
