16

 C -2.43445595000001 -6.65885787187500 -2.18404300000000 
 C -1.18225595000001 -7.09694287187500 -1.59321700000000 
 C -2.23067995000001 -2.43132987187500 -2.54718300000000 
 C -1.08953395000001 -2.97426587187500 -1.83980900000000 
 N -0.302142950000008 -7.32691187187500 -2.53983300000000 
 N -2.39764295000001 -6.44789587187500 -3.49836600000000 
 N -2.99342595000001 -6.84662987187500 0.295344000000001 
 N -1.483995000000782E-002 -3.16860687187500 -2.60116800000000 
 N -1.97443995000001 -2.17874187187500 -3.80447200000000 
 N -2.98961095000001 -2.87556787187500 -0.126970999999999 
 S -0.849504950000009 -6.73628087187500 -4.00956700000000 
 S -3.70967095000001 -6.26605887187500 -1.11003000000000 
 S -1.31848695000001 -7.27207387187500 0.133535000000001 
 S -0.467353950000009 -2.80052787187500 -4.17331600000000 
 S -3.66231695000001 -2.41433987187500 -1.60798900000000 
 S -1.36769095000001 -3.12158487187500 -0.121228999999999 
