16

 C -2.46697730625000 -6.40951334687500 -2.60446839062500 
 C -1.31375230625000 -6.86467834687500 -1.79844139062500 
 C -2.52790730625000 -2.50909134687500 -2.41806839062500 
 C -1.34683330625000 -2.87409634687500 -1.71157439062500 
 N -0.186946306250003 -7.07351634687500 -2.47079239062500 
 N -2.16157730625000 -6.22139234687500 -3.89815939062500 
 N -3.23044130625000 -6.62048734687500 -8.221439062499991E-002
 N -0.237116306250003 -3.00209434687500 -2.46855039062500 
 N -2.35413330625000 -2.40848334687500 -3.75891739062500 
 N -3.15877830625000 -2.55259634687500 0.112376609375000 
 S -0.595824306250003 -6.71902434687500 -4.05700539062500 
 S -3.88201330625000 -6.06524434687500 -1.55348939062500 
 S -1.62497730625000 -6.94688334687500 -0.126046390625000 
 S -0.790873306250003 -2.72912534687500 -4.11879239062500 
 S -3.86689230625000 -2.29264834687500 -1.35274539062500 
 S -1.54300630625000 -3.05420534687500 -1.226639062499979E-002
