16

 C -2.51476628750000 -6.60306928437500 -2.45247971250000 
 C -1.18646428750000 -6.79149728437500 -1.79837171250000 
 C -2.45690328750000 -2.19618328437500 -2.81630671250000 
 C -1.46494028750000 -2.89660128437500 -2.08804071250000 
 N -0.113932287500004 -6.65468828437500 -2.60310271250000 
 N -2.40626328750000 -6.42571728437500 -3.78841471250000 
 N -2.98079628750000 -6.48600928437500 6.450428750000037E-002
 N -0.356441287500004 -3.13873128437500 -2.77740571250000 
 N -2.18842628750000 -1.85499028437500 -4.08854771250000 
 N -3.44674828750000 -2.72960228437500 -0.495978712500000 
 S -0.803780287500004 -6.37902528437500 -4.09247871250000 
 S -3.86378828750000 -6.42416928437500 -1.39683371250000 
 S -1.38147028750000 -6.81824828437500 2.690128750000031E-002
 S -0.628780287500004 -2.48664928437500 -4.31757471250000 
 S -3.83331028750000 -1.98312628437500 -1.89307371250000 
 S -1.86171428750000 -3.23187328437500 -0.427457712500000 
