16

 C -2.19898920312499 -6.42104234687500 -2.38462622500000 
 C -0.919955203124994 -6.73593534687500 -1.79305622500000 
 C -2.54288420312499 -2.63772634687500 -2.43536622500000 
 C -1.30724420312499 -3.02610734687500 -1.73239922500000 
 N 9.812879687500597E-002 -6.73263534687500 -2.65554922500000 
 N -2.11508620312499 -6.28508534687500 -3.69887422500000 
 N -2.64771920312499 -6.79921534687500 0.151505774999999 
 N -0.246200203124994 -3.21717834687500 -2.51869622500000 
 N -2.44322620312499 -2.63379834687500 -3.77369622500000 
 N -3.15242420312499 -2.95318434687500 7.809577499999931E-002
 S -0.542566203124994 -6.50053034687500 -4.16152422500000 
 S -3.51073720312499 -6.34450134687500 -1.22820522500000 
 S -1.02378520312499 -7.08931234687500 -6.529322500000090E-002
 S -0.856125203124995 -3.01301334687500 -4.05970822500000 
 S -3.92102420312499 -2.52082534687500 -1.32742322500000 
 S -1.58269420312499 -3.38737734687500 7.384774999999344E-003
