16

 C -2.49053120937499 -6.64265751875000 -2.31755425000000 
 C -1.21992520937499 -6.99074751875000 -1.68267225000000 
 C -2.53335920937499 -2.86824851875000 -2.36391525000000 
 C -1.28669020937499 -3.24680551875000 -1.71633825000000 
 N -0.245265209374993 -7.04797651875000 -2.59621225000000 
 N -2.43509520937499 -6.41889651875000 -3.62039225000000 
 N -3.03099120937499 -6.95141051875000 0.156018750000000 
 N -0.290388209374993 -3.42555551875000 -2.63041225000000 
 N -2.46647220937499 -2.69527551875000 -3.70283225000000 
 N -2.97818120937499 -2.98030051875000 0.147364750000000 
 S -0.856639209374992 -6.69336551875000 -4.08309325000000 
 S -3.81596120937499 -6.49427951875000 -1.24395425000000 
 S -1.41491220937499 -7.21369951875000 1.648874999999972E-002
 S -0.878642209374993 -3.12411051875000 -4.06225525000000 
 S -3.84570820937499 -2.53166751875000 -1.23654725000000 
 S -1.43226220937499 -3.53311851875000 4.607749999999466E-003
