16

 C -2.40916808750000 -6.56242132187500 -2.24933972812500 
 C -1.11639108750000 -6.95704132187500 -1.63178472812500 
 C -2.37614308750000 -2.61625332187500 -2.46563372812500 
 C -1.13324808750000 -3.15852932187500 -2.00402472812500 
 N -0.111866087499999 -7.09435432187500 -2.51233872812500 
 N -2.26162708750000 -6.32888032187500 -3.53300372812500 
 N -2.86337208750000 -6.66557932187500 0.230865271874998 
 N -0.261499087499999 -3.38917832187500 -3.00120372812500 
 N -2.38624408750000 -2.37967932187500 -3.77168872812500 
 N -2.66546908750000 -3.06609332187500 6.875527187499775E-002
 S -0.700884087500000 -6.63011932187500 -4.01844272812500 
 S -3.76850408750000 -6.56650732187500 -1.11507272812500 
 S -1.25174908750000 -7.12990632187500 0.119749271874998 
 S -0.850588087499999 -2.85459732187500 -4.43389972812500 
 S -3.58050908750000 -2.39855332187500 -1.21779472812500 
 S -1.06460508750000 -3.50364732187500 -0.325898728125002 
