16

 C -2.59579784062500 -6.65259508750000 -2.28327855625000 
 C -1.35292384062500 -7.05804008750000 -1.63797355625000 
 C -2.68609884062500 -2.42029408750000 -2.37319055625000 
 C -1.59472484062500 -3.03491808750000 -1.69986555625000 
 N -0.310992840625002 -7.12289708750000 -2.45781255625000 
 N -2.53631084062500 -6.47217908750000 -3.60754855625000 
 N -3.15269784062500 -6.83810008750000 0.232884443750001 
 N -0.512491840625001 -3.26692408750000 -2.43297555625000 
 N -2.55162184062500 -2.28470308750000 -3.68978755625000 
 N -3.45383584062500 -2.74298208750000 9.458944375000078E-002
 S -0.944577840625001 -6.74189408750000 -3.96771455625000 
 S -3.90021484062500 -6.50142508750000 -1.21206855625000 
 S -1.59731784062500 -7.28811908750000 6.608644375000083E-002
 S -0.998627840625002 -2.78285008750000 -3.95203555625000 
 S -4.00110884062500 -2.04215708750000 -1.32515055625000 
 S -1.94621884062500 -3.36920608750000 8.724437500007287E-004
