16

 C -2.25054063750001 -6.68823125625000 -2.22473350312500 
 C -0.995114637500006 -7.10565825625000 -1.63876150312500 
 C -2.47584663750001 -2.64262825625000 -2.47984350312500 
 C -1.19894963750001 -2.84072825625000 -1.84392450312500 
 N 5.918436249999370E-002 -7.01250625625000 -2.45396550312500 
 N -2.11443163750001 -6.41591025625000 -3.50169350312500 
 N -2.73840163750001 -6.75957725625000 0.270953496874997 
 N -0.167334637500006 -3.06042925625000 -2.69311350312500 
 N -2.41216863750001 -2.61569925625000 -3.82567950312500 
 N -2.94310263750001 -2.83554025625000 6.970849687499725E-002
 S -0.559211637500006 -6.51541725625000 -3.90270650312500 
 S -3.58988563750001 -6.52665625625000 -1.14361450312500 
 S -1.18039963750001 -7.32526425625000 0.121107496874997 
 S -0.857554637500006 -2.85011925625000 -4.19681850312500 
 S -3.80349863750001 -2.46894125625000 -1.33226850312500 
 S -1.35401363750001 -3.14017425625000 -0.169896503125003 
