16

 C -2.54690224687499 -6.51339710312500 -2.14081994687500 
 C -1.40591824687499 -7.21107510312500 -1.63689794687500 
 C -2.37595324687499 -2.73567310312500 -2.45033694687500 
 C -1.17676724687499 -3.34542010312500 -1.81196694687500 
 N -0.497873246874993 -7.45320110312500 -2.57071094687500 
 N -2.62316124687499 -6.30741010312500 -3.47663594687500 
 N -2.84022824687499 -6.88864810312500 0.453808053125000 
 N -0.144608246874993 -3.59596310312500 -2.65563894687500 
 N -2.23421524687499 -2.47703610312500 -3.75947294687500 
 N -2.91651224687499 -2.89327410312500 0.122959053125000 
 S -1.10218224687499 -6.86200910312500 -3.99692094687500 
 S -3.78139224687499 -6.49762010312500 -0.816270946875000 
 S -1.39251324687499 -7.58247410312500 4.904505312500040E-002
 S -0.764930246874993 -3.18053210312500 -4.14777394687500 
 S -3.70230524687499 -2.44280310312500 -1.26601494687500 
 S -1.33873924687499 -3.51787810312500 -6.579594687499979E-002
