16

 C -2.46020860000000 -6.54324410625000 -2.64481810625000 
 C -1.29009160000000 -7.06238510625000 -2.00685110625000 
 C -2.28406660000000 -2.51728810625000 -2.35541110625000 
 C -1.03970960000000 -3.12924510625000 -1.93642410625000 
 N -0.285762600000004 -7.23431610625000 -2.85365610625000 
 N -2.37597460000000 -6.36419310625000 -3.99661610625000 
 N -2.87367060000000 -6.57450010625000 -2.022210624999965E-002
 N -0.170923600000003 -3.34107710625000 -2.93357610625000 
 N -2.28592660000000 -2.11748210625000 -3.61276310625000 
 N -2.72476560000000 -3.16387310625000 5.998189375000029E-002
 S -0.819229600000003 -6.79994710625000 -4.35668410625000 
 S -3.69715460000000 -6.33452710625000 -1.41185310625000 
 S -1.44121560000000 -7.25271610625000 -0.263472106250000 
 S -0.773630600000003 -2.54058110625000 -4.25938410625000 
 S -3.49282460000000 -2.51193310625000 -1.22283010625000 
 S -1.18731660000000 -3.61023210625000 -0.262015106250000 
