16

 C -2.60342024062500 -6.41970157187500 -2.26937011250000 
 C -1.33826024062500 -6.89083357187500 -1.66385411250000 
 C -2.40819124062500 -2.91405157187500 -2.21114311250000 
 C -1.20672224062500 -3.36466857187500 -1.58253111250000 
 N -0.332783240624998 -7.10726957187500 -2.47764011250000 
 N -2.48077324062500 -6.28025057187500 -3.56608911250000 
 N -3.12656924062500 -6.74275957187500 0.201186887500004 
 N -0.201165240624998 -3.42074057187500 -2.42583211250000 
 N -2.36811524062500 -2.68589657187500 -3.53455311250000 
 N -2.84510824062500 -2.89071657187500 0.335352887500004 
 S -0.918510240624998 -6.68900457187500 -3.97263411250000 
 S -3.92193724062500 -6.37004157187500 -1.21315511250000 
 S -1.47784824062500 -7.14501157187500 1.178388750000359E-002
 S -0.859884240624997 -3.09667457187500 -3.91756911250000 
 S -3.64661424062500 -2.60789757187500 -1.06559111250000 
 S -1.26771924062500 -3.42473357187500 0.155699887500004 
