16

 C -2.60659930625000 -6.69493675625000 -2.33251397500000 
 C -1.36520530625000 -7.11825575625000 -1.72677297500000 
 C -2.36648730625000 -3.08306275625000 -2.38279897500000 
 C -1.09944530625000 -3.54041175625000 -1.82760997500000 
 N -0.396527306250001 -7.33427275625000 -2.61557697500000 
 N -2.53598330625000 -6.63489575625000 -3.65822797500000 
 N -2.98375030625000 -6.80996975625000 0.199885025000000 
 N -0.186502306250001 -3.66074475625000 -2.78606097500000 
 N -2.38431630625000 -2.84365175625000 -3.66817997500000 
 N -2.72671030625000 -3.31113175625000 0.184682025000000 
 S -0.952694306250002 -7.01575075625000 -4.10614697500000 
 S -3.86410630625000 -6.49045275625000 -1.14869797500000 
 S -1.38583130625000 -7.20242675625000 -3.769497499999996E-002
 S -0.825732306250001 -3.26056475625000 -4.18118797500000 
 S -3.60049130625000 -2.76472375625000 -1.13215997500000 
 S -1.22492730625000 -3.90993175625000 -9.386197500000026E-002
