16

 C -2.32136228750000 -6.37399325625000 -2.63736838437500 
 C -1.06978628750000 -6.71758525625000 -1.97504538437500 
 C -2.81899728750000 -2.70928725625000 -2.35863738437500 
 C -1.59868328750000 -3.08334225625000 -1.63100038437500 
 N -8.721328750000268E-002 -7.03084625625000 -2.80115638437500 
 N -2.21456928750000 -6.34609925625000 -3.95857738437500 
 N -2.77315328750000 -6.43032225625000 -7.714838437499894E-002
 N -0.509362287500003 -3.17252225625000 -2.41538838437500 
 N -2.67993428750000 -2.66657225625000 -3.69306538437500 
 N -3.41075128750000 -2.85956925625000 0.160660615625001 
 S -0.666627287500003 -6.81448525625000 -4.34024938437500 
 S -3.57917028750000 -6.06437925625000 -1.48043238437500 
 S -1.17512028750000 -6.85744225625000 -0.218261384374999 
 S -1.10722728750000 -3.02226025625000 -3.95646838437500 
 S -4.06352828750000 -2.31814925625000 -1.25755538437500 
 S -1.80358128750000 -3.11601325625000 6.803061562500101E-002
