16

 C -2.45071406250000 -6.53455015937500 -2.31985146250000 
 C -1.15677206250000 -6.72826815937500 -1.73042746250000 
 C -2.59188906250000 -2.85839815937500 -2.57716346250000 
 C -1.31728506250000 -3.24981615937500 -2.05780846250000 
 N -0.130143062499997 -6.76541615937500 -2.57367046250000 
 N -2.42947906250000 -6.34859915937500 -3.63098546250000 
 N -2.96711906250000 -6.79619915937500 0.152051537499997 
 N -0.328060062499996 -3.21545315937500 -2.95047346250000 
 N -2.52068606250000 -2.46379015937500 -3.89302546250000 
 N -2.92123306250000 -3.18559715937500 -5.105046250000278E-002
 S -0.846839062499996 -6.35681315937500 -4.06677646250000 
 S -3.79368806250000 -6.49070815937500 -1.27668746250000 
 S -1.33709806250000 -7.03503015937500 2.427853749999742E-002
 S -0.940883062499997 -2.71970815937500 -4.32437946250000 
 S -3.86333806250000 -2.86579715937500 -1.39721346250000 
 S -1.31744806250000 -3.41122015937500 -0.378455462500003 
