16

 C -2.34660617812499 -6.44061817187500 -2.47301680312500 
 C -1.11350217812499 -6.71518317187500 -1.77610780312500 
 C -2.49763417812499 -3.34570717187500 -2.12874080312500 
 C -1.08649517812499 -3.35895717187500 -1.62419180312500 
 N -5.902817812499261E-002 -6.91206017187500 -2.59566380312500 
 N -2.26582417812499 -6.31337917187500 -3.80957280312500 
 N -2.91342217812499 -6.54820217187500 1.612419687499766E-002
 N -0.145453178124992 -3.25121117187500 -2.57206980312500 
 N -2.59286817812499 -3.34233517187500 -3.46921380312500 
 N -2.62638917812499 -3.49450817187500 0.441426196874998 
 S -0.664031178124993 -6.63864817187500 -4.11269580312500 
 S -3.65441917812499 -6.22608117187500 -1.43363980312500 
 S -1.24949117812499 -6.95646917187500 -8.142980312500248E-002
 S -1.01533217812499 -3.29427417187500 -3.97047380312500 
 S -3.66968717812499 -3.30325517187500 -0.817281803125002 
 S -0.997910178124992 -3.56274817187500 8.202619687499757E-002
