16

 C -2.46477335625000 -6.39665655312500 -2.20803773125000 
 C -1.17275235625000 -6.95499555312500 -1.72587473125000 
 C -2.52479935625000 -2.74951655312500 -2.51925273125000 
 C -1.41491835625000 -3.36880255312500 -1.75740473125000 
 N -0.187193356250001 -6.96722055312500 -2.58978273125000 
 N -2.39692735625000 -6.15726855312500 -3.51229673125000 
 N -2.84010735625000 -7.00112755312500 0.249243268750000 
 N -0.361742356250001 -3.69191155312500 -2.52529673125000 
 N -2.33271335625000 -2.58968555312500 -3.82946673125000 
 N -3.26881335625000 -3.05648055312500 -1.309773124999980E-002
 S -0.867393356250000 -6.55618155312500 -4.04363973125000 
 S -3.75778835625000 -6.38126155312500 -1.02297573125000 
 S -1.18077535625000 -7.34465455312500 -6.656373125000004E-002
 S -0.787685356250000 -3.13750655312500 -4.02747873125000 
 S -3.86666435625000 -2.43099055312500 -1.44329573125000 
 S -1.70385535625000 -3.60875055312500 -4.574073124999978E-002
