16

 C -2.40837759375001 -6.52333845312499 -2.43763923437500 
 C -1.30588459375001 -7.03508145312499 -1.66619623437500 
 C -2.35575759375001 -2.75445445312499 -2.55767223437500 
 C -1.16937659375001 -3.30599645312499 -1.86793723437500 
 N -0.261416593750006 -7.36031045312499 -2.42538823437500 
 N -2.18175959375001 -6.46201445312499 -3.73956023437500 
 N -3.30203459375001 -6.70675645312499 -2.357023437499950E-002
 N -0.135677593750006 -3.54033045312499 -2.64805923437500 
 N -2.12659459375001 -2.56128645312499 -3.84669723437500 
 N -3.00389359375001 -3.01562345312499 -3.844323437499964E-002
 S -0.634542593750005 -6.96732945312499 -3.99851423437500 
 S -3.84790459375001 -6.10623745312499 -1.49088223437500 
 S -1.70350059375001 -7.17435045312499 5.138776562500036E-002
 S -0.576406593750006 -3.00900245312499 -4.25312723437500 
 S -3.70964059375001 -2.71798145312499 -1.47115623437500 
 S -1.37867359375001 -3.49132045312499 -0.147249234375000 
