16

 C -2.44257376562500 -6.66384438750000 -2.27788471562500 
 C -1.18993776562500 -7.03530638750000 -1.74552071562500 
 C -2.58499276562500 -3.19888438750000 -2.04090371562500 
 C -1.41174576562500 -3.50031238750000 -1.36114771562500 
 N -0.163589765624996 -7.10660038750000 -2.57946271562500 
 N -2.36798176562500 -6.51264138750000 -3.59803371562500 
 N -2.92515076562500 -6.87400938750000 0.179698284374997 
 N -0.352340765624996 -3.58651338750000 -2.14896871562500 
 N -2.51235476562500 -3.08615938750000 -3.35188471562500 
 N -3.26269776562500 -3.31422338750000 0.461272284374997 
 S -0.808831765624996 -6.66276038750000 -4.03868271562500 
 S -3.69528976562500 -6.45567438750000 -1.19949271562500 
 S -1.25961676562500 -7.19207538750000 -2.841071562500352E-002
 S -0.910076765624996 -3.25365538750000 -3.66510671562500 
 S -4.00250176562500 -3.18412938750000 -1.03896171562500 
 S -1.64080876562500 -3.59073838750000 0.319246284374997 
