16

 C -2.27378102500000 -6.64671444062499 -2.37235272500000 
 C -1.15659002500000 -7.21299944062500 -1.67849472500000 
 C -2.46450702500000 -2.53143944062499 -2.31969672500000 
 C -1.47741402500000 -3.43114544062500 -1.80312372500000 
 N -0.124965024999998 -7.43462944062499 -2.49778572500000 
 N -2.18035302500000 -6.44642044062499 -3.66571972500000 
 N -3.08087002500000 -7.15389544062499 -4.614724999999265E-003
 N -0.500012024999998 -3.82507244062499 -2.59910672500000 
 N -2.30509802500000 -2.24508444062499 -3.58738172500000 
 N -2.96025002500000 -2.71593744062499 0.273243275000001 
 S -0.634296024999998 -6.98194644062499 -3.99216772500000 
 S -3.69125202500000 -6.48003044062499 -1.35670472500000 
 S -1.36413902500000 -7.35863044062499 4.616275000000725E-003
 S -0.943893024999998 -3.09681144062499 -4.08846272500000 
 S -3.58124402500000 -2.01992344062499 -1.14267872500000 
 S -1.69588602500000 -3.76523344062499 -5.412872499999932E-002
