16

 C -2.29911221562500 -6.52252974375000 -2.23222912812500 
 C -1.15676521562500 -7.04398674375000 -1.51109712812500 
 C -2.43719221562500 -2.70827074375000 -2.35637512812500 
 C -1.19856221562500 -3.15765074375000 -1.70398512812500 
 N -8.176221562499997E-002 -7.21357574375000 -2.25912912812500 
 N -2.13626421562500 -6.32503574375000 -3.51639112812500 
 N -3.06601721562500 -6.74514774375000 0.222702871875001 
 N -0.188138215625000 -3.19398774375000 -2.56738612812500 
 N -2.29911921562500 -2.43211474375000 -3.64865712812500 
 N -2.99353621562500 -3.20159474374999 0.123530871875001 
 S -0.528192215625000 -6.76112974375000 -3.84397312812500 
 S -3.72238121562500 -6.22568574375000 -1.21491812812500 
 S -1.44208221562500 -7.22762674375000 0.263242871875001 
 S -0.637336215625000 -2.67241174375000 -4.05110912812500 
 S -3.77359721562500 -2.68549674375000 -1.27583012812500 
 S -1.38447521562500 -3.67636874375000 -7.385412812499914E-002
