16

 C -2.45971112187500 -6.68072529375000 -2.29729859062500 
 C -1.26897812187500 -7.24497629375000 -1.64470559062500 
 C -2.28525412187500 -2.43208829375000 -2.53109059062500 
 C -1.08974112187500 -2.94593429375000 -1.84722359062500 
 N -0.244242121875002 -7.32071529375000 -2.46507759062500 
 N -2.37448912187500 -6.49830429375000 -3.63333259062500 
 N -2.95077512187500 -6.82342129375000 0.283383409375001 
 N -1.356212187500283E-002 -3.19421829375000 -2.62582759062500 
 N -2.09591712187500 -2.19057729375000 -3.82685359062500 
 N -3.00194612187500 -2.70872429375000 -7.896559062499886E-002
 S -0.835303121875002 -6.95736129375000 -3.99276159062500 
 S -3.70589312187500 -6.22559429375000 -1.08833259062500 
 S -1.42175512187500 -7.20512229375000 9.579340937500125E-002
 S -0.528206121875002 -2.62892229375000 -4.09722159062500 
 S -3.73367412187500 -2.42137329375000 -1.53269359062500 
 S -1.41092312187500 -3.23986029375000 -0.157591590624999 
