16

 C -2.55247061875000 -6.31154273437500 -2.26599357187500 
 C -1.37919761875000 -6.83297573437500 -1.62801757187500 
 C -2.52011561875000 -3.09100073437500 -2.31337157187500 
 C -1.23003561875000 -3.30307173437500 -1.69512257187500 
 N -0.381552618750003 -7.04917173437500 -2.48133057187500 
 N -2.47578961875000 -6.17009973437500 -3.60480057187500 
 N -3.04587861875000 -6.58960873437500 0.313170428125001 
 N -0.220691618750004 -3.44661773437500 -2.54142157187500 
 N -2.46340361875000 -3.07294173437500 -3.63530557187500 
 N -3.02366561875000 -3.16525273437500 0.138210428125001 
 S -0.915473618750004 -6.62960173437500 -4.00934757187500 
 S -3.84768161875000 -6.14864273437500 -1.09474957187500 
 S -1.52839861875000 -7.10208073437500 0.115083428125001 
 S -0.886441618750004 -3.17436673437500 -4.04754657187500 
 S -3.88863961875000 -2.90084773437500 -1.28975257187500 
 S -1.36714161875000 -3.39375773437500 3.803742812500088E-002
