16

 C -2.45585049687500 -6.46331018750000 -2.13310993437500 
 C -1.26421249687500 -6.93213618750000 -1.46067093437500 
 C -2.32453249687500 -2.52662318750000 -2.44536493437500 
 C -1.08783449687500 -3.16417618750000 -1.89220293437500 
 N -0.250855496874997 -7.02975018750000 -2.30963193437500 
 N -2.29088549687500 -6.07605918750000 -3.39331593437500 
 N -3.14963949687500 -7.15460418750000 0.267636065624999 
 N -0.105220496874996 -3.41851318750000 -2.78583993437500 
 N -2.25321549687500 -2.38024918750000 -3.77236993437500 
 N -2.83736249687500 -3.04093818750000 3.771806562499869E-002
 S -0.752932496874997 -6.53344618750000 -3.78551193437500 
 S -3.88558449687500 -6.71241818750000 -1.15908693437500 
 S -1.51736049687500 -7.41390218750000 0.150686065624999 
 S -0.757893496874996 -2.81114418750000 -4.21179793437500 
 S -3.59380349687500 -2.36696518750000 -1.29762193437500 
 S -1.24785449687500 -3.36305118750000 -0.167665934375001 
