16

 C -2.38023965625000 -6.36224810625000 -2.34906207500000 
 C -1.14017165625000 -6.80023910625000 -1.75306607500000 
 C -2.42645865625000 -2.93466010625000 -2.48676607500000 
 C -1.17028665625000 -3.30741810625000 -1.89699607500000 
 N -0.146024656250000 -7.00501510625000 -2.60783007500000 
 N -2.31081365625000 -6.12766210625000 -3.67089807500000 
 N -2.85318965625000 -6.85049710625000 0.151647924999996 
 N -0.129049656250000 -3.31327210625000 -2.74250207500000 
 N -2.35396265625000 -2.70445510625000 -3.80126707500000 
 N -2.96276765625000 -3.33072610625000 9.258924999996587E-003
 S -0.751062656250000 -6.47599810625000 -4.04696507500000 
 S -3.72519365625000 -6.44559510625000 -1.17325407500000 
 S -1.22244965625000 -7.20585910625000 -9.682907500000337E-002
 S -0.807286656250001 -2.90299810625000 -4.30586307500000 
 S -3.76103965625000 -2.94066010625000 -1.41771407500000 
 S -1.35044665625000 -3.61373810625000 -0.142781075000004 
