16

 C -2.51473623750000 -6.61414222187501 -2.42678499375000 
 C -1.22190623750000 -6.96741422187501 -1.95611099375000 
 C -2.58542523750000 -2.74360222187501 -2.56217599375000 
 C -1.41704623750000 -3.28075722187501 -1.76973699375000 
 N -0.231841237499999 -6.98766422187501 -2.87695699375000 
 N -2.58796623750000 -6.33981122187501 -3.73025499375000 
 N -2.92138623750000 -6.92745622187501 7.153300624999903E-002
 N -0.316400237500000 -3.49374222187501 -2.51088699375000 
 N -2.40944623750000 -2.75447922187501 -3.90047099375000 
 N -3.29296523750000 -2.70092122187501 -4.389799375000103E-002
 S -1.02862423750000 -6.57661122187501 -4.29603399375000 
 S -3.74245623750000 -6.47616722187501 -1.26846099375000 
 S -1.37103623750000 -7.32465522187501 -0.250735993750001 
 S -0.860720237500000 -3.19901622187501 -4.09798999375000 
 S -3.91472723750000 -2.23614822187501 -1.50260999375000 
 S -1.70723523750000 -3.23766722187501 -9.875999375000077E-002
