16

 C -2.35137938125001 -6.55071805000000 -2.45984820937500 
 C -1.09018338125001 -6.79426205000000 -1.78649320937500 
 C -2.42593038125001 -3.37588405000000 -2.28066520937500 
 C -1.14697538125001 -3.46642205000000 -1.59311720937500 
 N -1.266738125000710E-002 -7.03679305000000 -2.53112420937500 
 N -2.20398338125001 -6.57576405000000 -3.78355120937500 
 N -2.96410938125001 -6.64468405000000 3.427279062500022E-002
 N -0.100054381250008 -3.61482505000000 -2.35660320937500 
 N -2.33350838125001 -3.32501305000000 -3.63052020937500 
 N -2.96439138125001 -3.39749405000000 0.243276790625000 
 S -0.612234381250008 -6.86782105000000 -4.08612220937500 
 S -3.73186638125001 -6.30355805000000 -1.42201120937500 
 S -1.34169838125001 -6.93765505000000 -3.636120937499987E-002
 S -0.744731381250007 -3.54757105000000 -3.97969420937500 
 S -3.74376738125001 -3.30895405000000 -1.15744420937500 
 S -1.31193838125001 -3.52569505000000 0.131927790625000 
