16

 C -2.41868235000000 -6.42147505625000 -2.13746619062500 
 C -1.21558435000000 -6.92800505625000 -1.54638119062500 
 C -2.34856935000000 -2.69883805625000 -2.43499619062500 
 C -1.11955535000000 -3.10353305625000 -1.86923219062500 
 N -0.126898349999996 -7.04999205625000 -2.32602719062500 
 N -2.24990135000000 -6.15432305625000 -3.43404819062500 
 N -3.05726335000000 -7.18373205625000 0.247894809375000 
 N -0.160439349999995 -3.23322405625000 -2.75980319062500 
 N -2.33195635000000 -2.45250405625000 -3.72178819062500 
 N -2.88545735000000 -3.04969005625000 8.024809375000164E-003
 S -0.658070349999996 -6.52841305625000 -3.81521519062500 
 S -3.83569435000000 -6.68991005625000 -1.12709319062500 
 S -1.39160035000000 -7.37571405625000 0.133904809375000 
 S -0.768109349999996 -2.83680305625000 -4.25229719062500 
 S -3.61611835000000 -2.36200605625000 -1.31253919062500 
 S -1.22729435000000 -3.28229505625000 -0.152948190625000 
