16

 C -2.36445293125000 -6.54261449062500 -2.38677597500000 
 C -1.19375693125000 -7.14213049062500 -1.80501297500000 
 C -2.69262193125000 -2.76742249062500 -2.61213997500000 
 C -1.55661493125000 -3.35178049062500 -1.87461197500000 
 N -0.255290931249998 -7.36981249062500 -2.67723097500000 
 N -2.31617393125000 -6.30219149062500 -3.70695497500000 
 N -2.91174493125000 -6.97747849062500 0.154257025000000 
 N -0.431688931249999 -3.53614949062500 -2.58627997500000 
 N -2.39454693125000 -2.61003949062500 -3.89869597500000 
 N -3.42491193125000 -2.84611449062500 -6.523897500000020E-002
 S -0.787652931249998 -6.85111949062500 -4.18213397500000 
 S -3.67799893125000 -6.44852049062500 -1.20132897500000 
 S -1.39303893125000 -7.66961649062500 -0.182144975000000 
 S -0.891549931249998 -3.16362549062500 -4.18861197500000 
 S -4.12938093125000 -2.56143749062500 -1.58190397500000 
 S -1.85468493125000 -3.42484049062500 -8.201697500000016E-002
