16

 C -2.32641923125000 -6.56557084999999 -2.24146133437500 
 C -1.19110423125000 -7.04555984999999 -1.49142333437500 
 C -2.41303823125000 -2.70706684999999 -2.35068933437500 
 C -1.24693723125000 -3.16387184999999 -1.76650733437500 
 N -0.123490231249998 -7.20085184999999 -2.25321533437500 
 N -2.11031823125000 -6.35477284999999 -3.54274633437500 
 N -3.07285923125000 -6.73850984999999 0.213904665624997 
 N -0.179848231249998 -3.15858384999999 -2.56313233437500 
 N -2.30500023125000 -2.45847884999999 -3.64511233437500 
 N -3.01780523125000 -3.22630684999999 9.641466562499734E-002
 S -0.526823231249998 -6.75728284999999 -3.82817533437500 
 S -3.74079923125000 -6.20624884999999 -1.21222933437500 
 S -1.45962723125000 -7.22202984999999 0.223630665624997 
 S -0.639546231249998 -2.66973384999999 -4.04079233437500 
 S -3.76295023125000 -2.69833784999999 -1.29389033437500 
 S -1.39350223125000 -3.65707884999999 -7.917333437500251E-002
