16

 C -2.59248924062500 -6.64185841250000 -2.28435857187500 
 C -1.35460524062500 -7.06043041250000 -1.63014857187500 
 C -2.69747624062500 -2.43543941250000 -2.38164757187500 
 C -1.60429624062500 -3.03199941250000 -1.70486357187500 
 N -0.315648240624997 -7.12928341250000 -2.45614657187500 
 N -2.54616024062500 -6.47035941250000 -3.61765657187500 
 N -3.14755824062500 -6.83989841250000 0.239763428125001 
 N -0.503050240624997 -3.28294441250000 -2.41721057187500 
 N -2.54408724062500 -2.28369641250000 -3.69847057187500 
 N -3.44980224062500 -2.72534441250000 8.998842812500119E-002
 S -0.937127240624997 -6.75091941250000 -3.96653457187500 
 S -3.89856724062500 -6.49744941250000 -1.21011557187500 
 S -1.58232624062500 -7.30420541250000 6.152142812500117E-002
 S -1.00561924062500 -2.78571841250000 -3.94087657187500 
 S -3.99581524062500 -2.04081041250000 -1.32758157187500 
 S -1.95190024062500 -3.37713641250000 4.110428125001286E-003
