16

 C -2.21136202187500 -6.48047336562500 -2.52071447187500 
 C -1.03600802187500 -7.00722436562500 -1.85512147187500 
 C -2.63860902187500 -2.33821336562500 -2.42996047187500 
 C -1.56398102187500 -3.05070836562500 -1.75795747187500 
 N -6.270218750001888E-004 -7.29549436562500 -2.65524847187500 
 N -2.01798702187500 -6.33178336562500 -3.84878147187500 
 N -2.74783502187500 -6.53143536562500 -1.823747187500135E-002
 N -0.561544021875000 -3.23480136562500 -2.57764947187500 
 N -2.46666802187500 -2.17790336562500 -3.72285447187500 
 N -3.24506802187500 -2.58088236562500 6.060152812499853E-002
 S -0.513873021875000 -6.84433336562500 -4.15615347187500 
 S -3.45899402187500 -6.11729536562500 -1.44027147187500 
 S -1.29751602187500 -7.35170536562500 -0.127587471875001 
 S -0.997338021875001 -2.85671936562500 -4.09244447187500 
 S -3.86448302187500 -1.86473736562500 -1.31495747187500 
 S -1.71610402187500 -3.18118536562500 -5.211947187500132E-002
