16

 C -2.51377077812500 -6.58235165937501 -2.48634130312500 
 C -1.30378577812500 -7.12479065937501 -1.87623530312500 
 C -2.66822177812500 -2.76106365937501 -2.51575630312500 
 C -1.55685277812500 -3.42121665937501 -1.82763130312500 
 N -0.268521778124996 -7.26580965937501 -2.64655430312500 
 N -2.32494077812500 -6.29624565937501 -3.76905630312500 
 N -3.00541477812500 -6.85781565937501 -5.097130312500098E-002
 N -0.520747778124997 -3.71091165937501 -2.62007130312500 
 N -2.51836477812500 -2.68913065937501 -3.82693330312500 
 N -3.46195377812500 -3.25726765937501 -0.101681303125001 
 S -0.735787778124997 -6.59795465937501 -4.11226130312500 
 S -3.82266977812500 -6.33137165937501 -1.49128830312500 
 S -1.39552077812500 -7.40359965937501 -0.128619303125001 
 S -1.00349377812500 -3.14496465937501 -4.16178530312500 
 S -4.09684477812500 -2.44141665937501 -1.45886230312500 
 S -1.84752677812500 -3.63012065937501 -0.146059303125001 
