16

 C -2.37804553125000 -6.27010883437500 -2.11164978125000 
 C -1.20129353125000 -6.92796583437500 -1.52162078125000 
 C -2.33134653125000 -2.65765583437500 -2.24083278125000 
 C -1.20107153125000 -3.26449183437500 -1.57508678125000 
 N -0.112007531249997 -6.97158083437500 -2.27972278125000 
 N -2.14456953125000 -5.80161083437500 -3.31172478125000 
 N -2.89164853125000 -6.64822583437500 0.323661218750000 
 N -0.111290531249997 -3.34164083437500 -2.33979378125000 
 N -2.06207053125000 -2.18694683437500 -3.45029278125000 
 N -3.03459153125000 -3.00044883437500 0.214347218750000 
 S -0.589166531249997 -6.23296783437500 -3.71897378125000 
 S -3.70132953125000 -6.12867283437500 -1.10736478125000 
 S -1.34287753125000 -7.16969383437500 0.164630218750000 
 S -0.544986531249998 -2.69400083437500 -3.85672278125000 
 S -3.73092353125000 -2.49025183437500 -1.17771178125000 
 S -1.46445453125000 -3.39020583437500 0.109090218750000 
