16

 C -2.24068139375000 -6.78130049062500 -2.45320903437500 
 C -1.08128239375000 -7.40247949062500 -1.83799503437500 
 C -2.52192239375000 -2.67012949062500 -2.56505203437500 
 C -1.35158839375000 -2.99137549062500 -1.82204203437500 
 N -3.729339375000418E-002 -7.76762349062500 -2.59759803437500 
 N -2.06218239375000 -6.64447049062500 -3.76682403437500 
 N -2.71111439375000 -6.74854349062500 0.106346965624999 
 N -0.364883393750004 -3.34294649062500 -2.63973303437500 
 N -2.43512339375000 -2.61007049062500 -3.88449303437500 
 N -3.20912639375000 -2.86290749062500 -0.154826034375001 
 S -0.606674393750004 -7.39535649062500 -4.15024703437500 
 S -3.48738839375000 -6.41238449062500 -1.35407203437500 
 S -1.26397639375000 -7.51154449062500 -0.113572034375001 
 S -0.918168393750004 -3.20072649062500 -4.19440303437500 
 S -3.93380339375000 -2.40726249062500 -1.61312103437500 
 S -1.56731239375000 -3.07627949062500 -0.109199034375001 
