16

 C -2.54950499687499 -6.48445882187500 -2.55087350312500 
 C -1.30715499687499 -6.76368082187500 -1.82281850312500 
 C -2.52084699687499 -2.60925882187500 -2.45636850312500 
 C -1.29933299687499 -2.99039382187500 -1.81309550312500 
 N -0.195930996874991 -6.73684982187500 -2.55508350312500 
 N -2.35114699687499 -6.32938482187500 -3.85821750312500 
 N -3.23423499687499 -6.63026282187500 -5.540750312500098E-002
 N -0.299325996874991 -3.24909282187500 -2.65603550312500 
 N -2.46976299687499 -2.47221782187500 -3.78077650312500 
 N -2.97845999687499 -2.64488882187500 4.358649687499905E-002
 S -0.722828996874991 -6.44206882187500 -4.07967050312500 
 S -3.90439099687499 -6.39164882187500 -1.51967450312500 
 S -1.54293999687499 -6.94183482187500 -0.150345503125001 
 S -0.885172996874991 -2.86109782187500 -4.11939850312500 
 S -3.77492099687499 -2.22913482187500 -1.30166550312500 
 S -1.41172799687499 -3.20277482187500 -9.315250312500112E-002
