16

 C -2.33756284687500 -6.28720195937500 -2.21076666875000 
 C -1.13948484687500 -6.74454895937500 -1.57742666875000 
 C -2.31918984687500 -2.48754595937500 -2.12181766875000 
 C -1.13989284687500 -3.15949795937500 -1.63692566875000 
 N -5.634484687500052E-002 -6.93571495937500 -2.35821366875000 
 N -2.15757584687500 -6.09620895937500 -3.51703566875000 
 N -3.07266084687500 -6.53265795937500 0.177124331250000 
 N -9.796184687500009E-002 -3.08951595937500 -2.48103066875000 
 N -2.22503984687500 -1.99371495937500 -3.36240966875000 
 N -2.94008484687500 -3.36272295937500 0.270831331250000 
 S -0.656790846875000 -6.62510395937500 -3.88628766875000 
 S -3.71298184687500 -6.08382895937500 -1.28689966875000 
 S -1.45712184687500 -7.09338595937500 0.140004331250000 
 S -0.643631846875000 -2.46792395937500 -3.85429066875000 
 S -3.64285884687500 -2.48868495937500 -0.929231668750000 
 S -1.34253984687500 -3.75731495937500 -8.626766874999969E-002
