16

 C -2.24026961875000 -6.46306573125000 -2.27291923125000 
 C -1.05884861875000 -7.05598673125000 -1.69630723125000 
 C -2.33423561875000 -2.62899273125000 -2.46131223125000 
 C -1.12765261875000 -3.12525673125000 -1.85316823125000 
 N -0.131511618750003 -7.30827373125000 -2.61279123125000 
 N -2.21180661875000 -6.32049173125000 -3.60527823125000 
 N -2.61419161875000 -6.67382273125000 0.308218768749999 
 N -0.113854618750003 -3.29385373125000 -2.69153823125000 
 N -2.16006961875000 -2.27174873125000 -3.70950523125000 
 N -2.86327561875000 -3.08184573125000 5.546576874999887E-002
 S -0.735229618750003 -6.85217773125000 -4.09615623125000 
 S -3.37539961875000 -6.06745773125000 -1.01473523125000 
 S -1.16617961875000 -7.32218273125000 7.275768749998912E-003
 S -0.569815618750003 -2.80516473125000 -4.19766423125000 
 S -3.57971261875000 -2.41758973125000 -1.30078523125000 
 S -1.35338861875000 -3.58759173125000 -0.190206231250001 
