16

 C -2.19071257499999 -6.34524732187500 -2.37362125937500 
 C -0.967975574999993 -6.83239032187500 -1.75598825937500 
 C -2.61229457499999 -2.71453232187500 -2.29308425937500 
 C -1.33989357499999 -3.16312532187500 -1.71694725937500 
 N 1.987442500000647E-002 -6.94485232187500 -2.63928425937500 
 N -2.13191657499999 -6.17994932187500 -3.68582425937500 
 N -2.78932857499999 -6.76793532187500 0.115053740624999 
 N -0.309931574999993 -3.25294232187500 -2.56208625937500 
 N -2.45645557499999 -2.38326732187500 -3.57205025937500 
 N -3.04956457499999 -3.01202732187500 0.205715740624999 
 S -0.592942574999993 -6.52288932187500 -4.16270325937500 
 S -3.60226557499999 -6.29734732187500 -1.25482025937500 
 S -1.12876957499999 -6.96927532187500 -3.848825937500067E-002
 S -0.918942574999993 -2.74270132187500 -4.01388925937500 
 S -3.88721657499999 -2.54686532187500 -1.12302025937500 
 S -1.40681357499999 -3.22165532187500 3.590974062499930E-002
