16

 C -2.27804903749999 -6.29743943750000 -2.32667740000000 
 C -1.24568603749999 -6.92552643750000 -1.64061040000000 
 C -2.52449603749999 -2.57864443750000 -2.49159140000000 
 C -1.29089803749999 -3.04436743750000 -1.97252040000000 
 N -0.160670037499994 -7.17736243750000 -2.37990240000000 
 N -2.05402503749999 -6.17916043750000 -3.65509740000000 
 N -2.91826403749999 -6.23045543750000 0.132807600000000 
 N -0.282757037499994 -3.03130143750000 -2.83994540000000 
 N -2.43600103749999 -2.25623143750000 -3.75014440000000 
 N -2.92339803749999 -2.83469743750000 -2.563539999999964E-002
 S -0.535052037499994 -6.69851143750000 -3.94670440000000 
 S -3.66009103749999 -5.91503643750000 -1.37027540000000 
 S -1.43460603749999 -6.93103543750000 3.443760000000040E-002
 S -0.854950037499994 -2.48694043750000 -4.29267840000000 
 S -3.77659303749999 -2.36733443750000 -1.33263540000000 
 S -1.36628903749999 -3.39347843750000 -0.299987400000000 
