16

 C -2.43721315000001 -6.51275519375000 -2.64611411875000 
 C -1.25717315000001 -6.98876919375000 -2.05306411875000 
 C -2.28433715000001 -2.54799019375000 -2.43140611875000 
 C -1.07967515000001 -3.17494119375000 -1.98665811875000 
 N -0.245755150000007 -7.26816219375000 -2.87229211875000 
 N -2.36302715000001 -6.36749519375000 -3.95726911875000 
 N -2.91450415000001 -6.52824119375000 -3.391811875000017E-002
 N -0.184703150000007 -3.27423519375000 -2.94659711875000 
 N -2.27344415000001 -2.08837519375000 -3.66987911875000 
 N -2.69841515000001 -3.15701219375000 3.642988124999968E-002
 S -0.795788150000007 -6.81203419375000 -4.38920311875000 
 S -3.71071915000001 -6.31786619375000 -1.41014311875000 
 S -1.41434815000001 -7.25067319375000 -0.266678118750000 
 S -0.771194150000007 -2.49702019375000 -4.22825511875000 
 S -3.48797015000001 -2.52300919375000 -1.24873411875000 
 S -1.15078715000001 -3.61795219375000 -0.303234118750000 
