16

 C -2.56019310000000 -6.25520550000000 -2.47505413437500 
 C -1.45146510000000 -7.06186850000000 -2.05743813437500 
 C -2.57339610000000 -2.57517150000000 -2.33720313437500 
 C -1.43528410000000 -3.19601350000000 -1.73289113437500 
 N -0.515431099999999 -7.25513750000000 -2.97013213437500 
 N -2.47341810000000 -5.86019050000000 -3.74467913437500 
 N -3.11287810000000 -7.05334450000000 -9.098913437500111E-002
 N -0.451758099999999 -3.46150450000000 -2.56262213437500 
 N -2.43092110000000 -2.21881550000000 -3.61235013437500 
 N -3.17125510000000 -3.02584150000000 0.119677865624999 
 S -1.10823810000000 -6.53773650000000 -4.33426613437500 
 S -3.73331310000000 -5.97151450000000 -1.26795213437500 
 S -1.56523010000000 -7.61997950000000 -0.374433134375001 
 S -0.931981099999999 -2.80704450000000 -4.07548813437500 
 S -3.87679910000000 -2.39661050000000 -1.19041013437500 
 S -1.56599610000000 -3.42592350000000 -4.562213437500096E-002
