16

 C -2.37929371562500 -6.52621875312501 -2.53374641875000 
 C -1.15082271562500 -6.62353775312501 -1.81114841875000 
 C -2.46688871562500 -2.06221475312501 -2.70367341875000 
 C -1.43840271562500 -2.89416775312501 -2.01696941875000 
 N -4.004471562500100E-002 -6.59818775312501 -2.58651741875000 
 N -2.30965371562500 -6.45400675312501 -3.87944141875000 
 N -2.96680071562500 -6.59624675312501 3.099758124999963E-002
 N -0.375007715625000 -3.23461075312501 -2.69941641875000 
 N -2.10686471562500 -1.85069975312501 -3.93972141875000 
 N -3.46107471562500 -2.62085275312501 -0.436481418750000 
 S -0.683890715625001 -6.54861375312501 -4.12060841875000 
 S -3.81069771562500 -6.37102375312501 -1.43392941875000 
 S -1.37097571562500 -6.77445675312501 -0.100588418750000 
 S -0.554452715625001 -2.50975475312501 -4.23874541875000 
 S -3.98777471562500 -1.84973975312501 -1.81156041875000 
 S -1.98815571562500 -3.42438475312501 -0.441557418750000 
