16

 C -2.62219237187500 -6.32753239375000 -2.25154908125000 
 C -1.38907637187500 -6.92590039375000 -1.74281108125000 
 C -2.36906337187500 -2.61071439375000 -2.45252408125000 
 C -1.21204437187500 -3.21387339375000 -1.87122908125000 
 N -0.453300371875000 -7.17980539375000 -2.64521508125000 
 N -2.56168337187500 -6.04234839375000 -3.52555808125000 
 N -3.09166137187500 -6.72072339375000 0.245413918750000 
 N -0.163878371875000 -3.39747639375000 -2.68883208125000 
 N -2.17820437187500 -2.30947839375000 -3.72295108125000 
 N -2.92659937187500 -2.99963739375000 4.558918750000363E-003
 S -1.07213437187500 -6.49444739375000 -4.08566808125000 
 S -3.90621237187500 -6.11286739375000 -1.11264308125000 
 S -1.54167937187500 -7.25256739375000 -2.649408124999963E-002
 S -0.650494371874999 -2.79748139375000 -4.18229808125000 
 S -3.68494037187500 -2.41457639375000 -1.34091908125000 
 S -1.29387837187500 -3.36586239375000 -0.151299081250000 
