16

 C -2.51935184687500 -6.29324543437500 -2.48949438125000 
 C -1.32805684687500 -6.81735943437500 -1.84228638125000 
 C -2.41567684687500 -2.50936843437500 -2.47609138125000 
 C -1.25805784687500 -2.98165043437500 -1.75007838125000 
 N -0.333131846874999 -7.10205043437500 -2.68800438125000 
 N -2.35703584687500 -6.16981443437500 -3.77962338125000 
 N -3.19976984687500 -6.42375843437500 -2.553838125000096E-002
 N -0.284996846874999 -3.33643743437500 -2.58165238125000 
 N -2.25212384687500 -2.35193143437500 -3.77050338125000 
 N -3.07046984687500 -2.60071443437500 2.172661874999893E-002
 S -0.842938846874999 -6.72764643437500 -4.21198438125000 
 S -3.84142684687500 -5.96044243437500 -1.47172238125000 
 S -1.63325384687500 -7.01850143437500 -0.126316381250001 
 S -0.710247846874999 -2.89078043437500 -4.15006938125000 
 S -3.76212484687500 -2.11737343437500 -1.44848438125000 
 S -1.43438184687500 -2.98141443437500 -4.446738125000094E-002
