16

 C -2.27337097812500 -6.36192102500000 -2.47061259062500 
 C -1.13792597812500 -6.85083902500000 -1.70955259062500 
 C -2.72151697812500 -2.48924202500000 -2.49530259062500 
 C -1.47798497812500 -2.86034502500000 -1.87129159062500 
 N -3.195997812499929E-002 -6.97829802500000 -2.45218259062500 
 N -2.07089897812500 -6.14882002500000 -3.77615359062500 
 N -3.04837897812500 -6.45578402500000 -4.524359062500105E-002
 N -0.413891978125000 -2.84065102500000 -2.67852259062500 
 N -2.66549897812500 -2.31535902500000 -3.80174159062500 
 N -3.29134997812500 -2.89073702500000 2.803340937499921E-002
 S -0.490530978124999 -6.62530602500000 -4.01408459062500 
 S -3.71552697812500 -6.17718202500000 -1.51637359062500 
 S -1.46315997812500 -7.07493102500000 -4.465959062500069E-002
 S -1.03284497812500 -2.55065802500000 -4.14724559062500 
 S -4.07062597812500 -2.45339402500000 -1.40241259062500 
 S -1.65106297812500 -2.93495802500000 -8.267859062500094E-002
