16

 C -2.72451119062500 -6.38823360312500 -2.66578883437500 
 C -1.52049119062500 -6.86985160312500 -2.01961483437500 
 C -2.37361119062500 -2.88393860312500 -2.38890683437500 
 C -1.06005619062500 -3.19372860312500 -1.83382783437500 
 N -0.430068190624998 -6.80950860312500 -2.77646183437500 
 N -2.57509719062500 -6.11848760312500 -3.94073383437500 
 N -3.30598219062500 -6.71120160312500 -0.231087834374998 
 N -8.572319062499822E-002 -3.30962060312500 -2.73705983437500 
 N -2.38279119062500 -2.79188960312500 -3.72400783437500 
 N -2.72772219062500 -2.98920260312500 0.144881165625002 
 S -0.963385190624998 -6.34981360312500 -4.23595483437500 
 S -4.11839919062500 -6.32626860312500 -1.61179983437500 
 S -1.71488519062500 -7.15852060312500 -0.373625834374999 
 S -0.813422190624999 -3.01446460312500 -4.18911483437500 
 S -3.59993519062500 -2.67363760312500 -1.22403083437500 
 S -1.13287619062500 -3.41604660312500 -5.052683437499850E-002
