16

 C -2.45561953749999 -6.83008814687500 -2.38933335937500 
 C -1.22069653749999 -7.16571814687500 -1.72836735937500 
 C -2.79583053749999 -3.27012814687500 -2.14131235937500 
 C -1.57820053749999 -3.52847614687500 -1.43374935937500 
 N -0.182928537499992 -7.18633614687500 -2.55067835937500 
 N -2.37099253749999 -6.54512614687500 -3.72019235937500 
 N -2.83780753749999 -6.90118714687500 0.193280640625003 
 N -0.434508537499993 -3.55063414687500 -2.13482935937500 
 N -2.61704453749999 -2.99587914687500 -3.42616135937500 
 N -3.38342053749999 -3.25345514687500 0.366668640625003 
 S -0.729112537499993 -6.77105314687500 -4.06720735937500 
 S -3.69756053749999 -6.41949714687500 -1.19492535937500 
 S -1.26152953749999 -7.19682714687500 3.637664062500301E-002
 S -0.974073537499993 -3.33151914687500 -3.74558035937500 
 S -4.21183153749999 -3.21766514687500 -1.03842635937500 
 S -1.73960153749999 -3.67906314687500 0.337748640625003 
