16

 C -2.54294933750000 -6.70181506562501 -2.36540799062500 
 C -1.35905733750000 -7.26293706562501 -1.68814999062500 
 C -2.49113833750000 -2.44305106562501 -2.47417099062500 
 C -1.28928733750000 -3.00888306562501 -1.77124599062500 
 N -0.300039337500002 -7.57923706562501 -2.46342999062500 
 N -2.32691233750000 -6.61655306562501 -3.68936499062500 
 N -3.06300233750000 -6.52821006562501 0.125452009375000 
 N -0.311529337500002 -3.29756806562501 -2.62794899062500 
 N -2.38611633750000 -2.30837306562501 -3.80451699062500 
 N -3.18046333750000 -3.06399506562501 -3.060399062500019E-002
 S -0.810491337500002 -7.15180206562501 -4.00058599062500 
 S -3.78801633750000 -6.15735706562501 -1.31192999062500 
 S -1.56470433750000 -7.22970906562501 0.106591009375000 
 S -0.847186337500002 -2.86905306562501 -4.14497699062500 
 S -3.81500733750000 -2.20139406562501 -1.33602999062500 
 S -1.55086433750000 -3.37786206562501 -3.464699062500021E-002
