16

 C -2.43277209062500 -6.61911070000000 -2.23475434687500 
 C -1.15955409062500 -6.76652570000000 -1.56476634687500 
 C -2.32620509062500 -2.70716470000000 -2.50807734687500 
 C -1.10501009062500 -3.25263570000000 -1.95255634687500 
 N -0.114375090624996 -6.75022070000000 -2.39773434687500 
 N -2.35252209062500 -6.52018370000000 -3.56264134687500 
 N -3.03553909062500 -6.90642470000000 0.250202653124998 
 N -0.186894090624996 -3.43031270000000 -2.86902634687500 
 N -2.35611609062500 -2.64846570000000 -3.82380034687500 
 N -2.76006509062500 -2.90947370000000 2.400653124997820E-003
 S -0.754479090624996 -6.65559970000000 -3.94222634687500 
 S -3.75579409062500 -6.70721870000000 -1.19694134687500 
 S -1.33276409062500 -7.04711770000000 0.138344653124998 
 S -0.776947090624996 -3.06869970000000 -4.34238134687500 
 S -3.55069509062500 -2.42556470000000 -1.37302434687500 
 S -1.18221609062500 -3.42868870000000 -0.267060346875002 
