16

 C -2.45839674062501 -6.45622776562500 -2.32464921250000 
 C -1.14433674062501 -6.82671976562500 -1.77793021250000 
 C -2.55892374062501 -2.82325576562500 -2.40522221250000 
 C -1.35283374062501 -3.19957876562500 -1.71200221250000 
 N -0.123348740625008 -6.91668776562500 -2.63750421250000 
 N -2.37156674062501 -6.20675976562500 -3.62119521250000 
 N -2.77363274062501 -6.86660976562500 0.217845787499999 
 N -0.280266740625009 -3.43109876562500 -2.53451521250000 
 N -2.42525074062501 -2.67293976562500 -3.73450021250000 
 N -3.18380674062501 -2.93211476562500 7.447178749999872E-002
 S -0.811163740625009 -6.60928876562500 -4.10644721250000 
 S -3.72787174062501 -6.46499876562500 -1.12451621250000 
 S -1.19401474062501 -7.17477876562500 -8.997021250000126E-002
 S -0.809921740625009 -3.05380176562500 -4.01522421250000 
 S -3.86911374062501 -2.41809976562500 -1.33511121250000 
 S -1.60882074062501 -3.45930976562500 2.522278749999862E-002
