16

 C -2.31611702187500 -6.30677136874999 -2.56043842812500 
 C -1.05277602187500 -6.51200336874999 -1.80308042812500 
 C -2.54786002187500 -2.40190036874999 -2.73259242812500 
 C -1.55845202187500 -3.11663236874999 -1.99026242812500 
 N -3.679602187499675E-002 -6.80817336874999 -2.59870642812500 
 N -2.21439302187500 -6.29071636874999 -3.88788442812500 
 N -2.95293202187500 -6.67000036874999 -1.960842812500152E-002
 N -0.357494021874998 -3.20078036874999 -2.57733842812500 
 N -2.16137002187500 -1.95724236874999 -3.92809342812500 
 N -3.42408902187500 -2.61359636874999 -0.344549428125001 
 S -0.634797021874998 -6.65473436874999 -4.16048642812500 
 S -3.74341502187500 -6.39626236874999 -1.52097542812500 
 S -1.31837602187500 -6.74923436874999 -9.693342812500161E-002
 S -0.577755021874998 -2.56237736874999 -4.13323742812500 
 S -3.93822802187500 -2.00999536874999 -1.77008942812500 
 S -1.98421602187500 -3.43053736874999 -0.359565428125002 
