16

 C -2.41329053437500 -6.46395685000001 -2.30539884375000 
 C -1.17216153437500 -6.82059585000001 -1.71438784375000 
 C -2.53076353437500 -2.78795885000001 -2.38413784375000 
 C -1.34444453437500 -3.25237885000001 -1.71988684375000 
 N -0.232512534375002 -6.94871885000001 -2.61841484375000 
 N -2.39109053437500 -6.29495585000001 -3.62021084375000 
 N -2.89141053437500 -6.89218185000001 0.195299156250001 
 N -0.296608534375002 -3.37214185000001 -2.50412784375000 
 N -2.40815953437500 -2.75145285000001 -3.70518484375000 
 N -3.12884053437500 -2.92141085000001 0.189599156250001 
 S -0.825032534375002 -6.63991085000001 -4.11072484375000 
 S -3.74798053437500 -6.48775985000001 -1.16746584375000 
 S -1.24454153437500 -7.19309585000001 -4.392584374999853E-002
 S -0.808622534375003 -3.07779285000001 -4.04677484375000 
 S -3.83604353437500 -2.45476185000001 -1.27753084375000 
 S -1.59547353437500 -3.47644085000001 -2.402984374999884E-002
