16

 C -2.24518710000000 -6.32289912500000 -2.33880255625000 
 C -0.982366100000001 -6.79678412500000 -1.78531255625000 
 C -2.75580910000000 -2.56481112500000 -2.51499855625000 
 C -1.53215010000000 -3.05254112500000 -1.86067055625000 
 N 1.740789999999848E-002 -6.93841012500000 -2.67003755625000 
 N -2.21947710000000 -6.05993912500000 -3.66318955625000 
 N -2.55453310000000 -6.65559212500000 0.233535443750001 
 N -0.482927100000001 -3.24038012500000 -2.65742555625000 
 N -2.58575910000000 -2.28131712500000 -3.77952255625000 
 N -3.37143210000000 -2.95653912500000 -6.925555624999946E-002
 S -0.664648100000002 -6.45573512500000 -4.11602455625000 
 S -3.46523210000000 -6.25109712500000 -1.07312755625000 
 S -0.999768100000002 -7.22770912500000 -9.729255624999933E-002
 S -1.04792510000000 -2.75750712500000 -4.14510555625000 
 S -4.07128610000000 -2.33945412500000 -1.43367255625000 
 S -1.75392210000000 -3.35601512500000 -0.157514556249999 
