16

 C -2.64109329687500 -6.47865451249999 -2.43202845312500 
 C -1.47123329687500 -6.99407651249999 -1.79811845312500 
 C -2.16667329687500 -2.86846551249999 -2.37838145312500 
 C -1.03235529687500 -3.47915151249999 -1.73136145312500 
 N -0.435648296874996 -7.26731751249999 -2.58723245312500 
 N -2.44742729687500 -6.29203051249999 -3.73918545312500 
 N -3.30173229687500 -6.82096151249999 -4.584845312499852E-002
 N 3.785703125004147E-003 -3.56262551249999 -2.57733645312500 
 N -1.98269129687500 -2.52261751249999 -3.65544645312500 
 N -2.87492429687500 -3.33912151249999 7.015354687500142E-002
 S -0.903995296874996 -6.76415351249999 -4.05890945312500 
 S -4.00416629687500 -6.22194051249999 -1.43640945312500 
 S -1.68943929687500 -7.24280351249999 -0.126198453124999 
 S -0.455300296874996 -3.03058151249999 -4.07355945312500 
 S -3.57431429687500 -2.77763251249999 -1.39250545312500 
 S -1.25551429687500 -3.67729351249999 -1.113245312499855E-002
