16

 C -2.50679353437500 -6.60510392500000 -2.41659224687500 
 C -1.40289653437500 -7.20217992500000 -1.73523724687500 
 C -2.57299553437500 -2.63380392500000 -2.42123824687500 
 C -1.43426553437500 -3.26414992500000 -1.76719024687500 
 N -0.396454534374997 -7.45426492500000 -2.54917824687500 
 N -2.36788653437500 -6.37179792500000 -3.73351324687500 
 N -3.08544953437500 -6.59165692500000 0.112552753125000 
 N -0.448916534374997 -3.69530392500000 -2.58654524687500 
 N -2.40836453437500 -2.44141592500000 -3.73112524687500 
 N -3.17199553437500 -2.75352992500000 7.291875312499996E-002
 S -0.881319534374997 -7.01223692500000 -4.07782824687500 
 S -3.78842453437500 -6.12308592500000 -1.26303524687500 
 S -1.56424853437500 -7.22911392500000 -5.816424687500010E-002
 S -0.888322534374997 -3.04748692500000 -4.05688524687500 
 S -3.94016453437500 -2.37094992500000 -1.37414024687500 
 S -1.61057153437500 -3.33640592500000 -2.364724687499997E-002
