16

 C -2.39361959062500 -6.60025910000000 -2.24919032812500 
 C -1.13797259062500 -6.96021910000000 -1.61280732812500 
 C -2.40334359062500 -2.62981510000000 -2.47314732812500 
 C -1.12741059062500 -3.11741810000000 -2.01188832812500 
 N -0.125562590625003 -7.05007010000000 -2.47360132812500 
 N -2.29963259062500 -6.34232110000000 -3.55160632812500 
 N -2.87417059062500 -6.67801910000000 0.215567671875001 
 N -0.256289590625002 -3.39653010000000 -2.97447432812500 
 N -2.37399859062500 -2.40403310000000 -3.77440532812500 
 N -2.65516859062500 -3.02976810000000 3.356867187500079E-002
 S -0.689249590625002 -6.61563510000000 -3.99933932812500 
 S -3.78195659062500 -6.57902110000000 -1.11788332812500 
 S -1.24686959062500 -7.12032710000000 0.106119671875001 
 S -0.866758590625002 -2.86954810000000 -4.41595332812500 
 S -3.57040159062500 -2.40356910000000 -1.21626032812500 
 S -1.05624359062500 -3.50597310000000 -0.345135328124999 
