16

 C -2.43849040312500 -6.60427411250000 -2.48371813750000 
 C -1.14406840312500 -6.98027511250000 -1.94792713750000 
 C -2.40002540312500 -2.90607611250000 -2.45724113750000 
 C -1.27216940312500 -3.55039211250000 -1.79104013750000 
 N -0.178161403124998 -7.06158211250000 -2.83884513750000 
 N -2.38543440312500 -6.32244311250000 -3.78262113750000 
 N -2.75673040312500 -7.20779611250000 3.864386249999918E-002
 N -0.301576403124997 -3.84058311250000 -2.64261013750000 
 N -2.15130640312500 -2.67651211250000 -3.75887913750000 
 N -3.13397940312500 -3.14033211250000 6.034862499999294E-003
 S -0.782608403124998 -6.60742111250000 -4.33083213750000 
 S -3.67832940312500 -6.71627111250000 -1.27882813750000 
 S -1.14082440312500 -7.35489211250000 -0.218922137500001 
 S -0.639271403124997 -3.28269611250000 -4.15274713750000 
 S -3.84147340312500 -2.69327911250000 -1.47234013750000 
 S -1.59562040312500 -3.69564311250000 -3.030113750000085E-002
