16

 C -2.68070949687501 -6.38035750000000 -2.51730932187500 
 C -1.41952849687501 -6.89988850000000 -2.03369232187500 
 C -2.62562649687501 -2.88937850000000 -2.40993032187500 
 C -1.45341849687501 -3.24551550000000 -1.61776932187500 
 N -0.412843496875009 -7.11269450000000 -2.92794232187500 
 N -2.58824749687501 -6.08657550000000 -3.82456632187500 
 N -3.01716049687501 -6.76006550000000 8.593667812499817E-002
 N -0.408439496875009 -3.56589950000000 -2.34549232187500 
 N -2.52591949687501 -3.05809850000000 -3.73218232187500 
 N -3.32778949687501 -2.77447150000000 0.114092678124998 
 S -1.07990649687501 -6.58550850000000 -4.34693532187500 
 S -3.78372749687501 -5.98476250000000 -1.17279632187500 
 S -1.36597249687501 -7.22271450000000 -0.266876321875002 
 S -0.930600496875009 -3.46816850000000 -3.94431932187500 
 S -4.04122049687501 -2.60587850000000 -1.40855132187500 
 S -1.79234449687501 -3.46169250000000 0.129629678124998 
