16

 C -2.39341004375000 -6.64627689062500 -2.30287934687500 
 C -1.11880404375000 -6.94313889062500 -1.66135234687500 
 C -2.49835604375000 -2.62838489062500 -2.45483334687500 
 C -1.30941804375000 -3.22810289062500 -1.83403634687500 
 N -0.132429043749997 -7.05348789062500 -2.55366834687500 
 N -2.36178904375000 -6.49597489062500 -3.61960434687500 
 N -2.91943404375000 -6.68348689062500 0.201546653125000 
 N -0.346513043749996 -3.49686889062500 -2.70223434687500 
 N -2.42832704375000 -2.42943489062500 -3.74474134687500 
 N -3.06815104375000 -2.91071289062500 -3.099034687500035E-002
 S -0.822788043749997 -6.77605389062500 -4.03876534687500 
 S -3.68717204375000 -6.48292689062500 -1.20577234687500 
 S -1.26362904375000 -6.94632689062500 6.058965312499964E-002
 S -0.898745043749996 -3.05651289062500 -4.18160534687500 
 S -3.77688804375000 -2.36926189062500 -1.38786334687500 
 S -1.50357104375000 -3.45976389062500 -0.125091346875001 
