16

 C -2.58337598750000 -6.47824635312500 -2.32473690000000 
 C -1.32541398750000 -6.90482935312500 -1.72654690000000 
 C -2.57891098750000 -3.08576835312500 -2.46305090000000 
 C -1.31713498750000 -3.39878335312500 -1.84251690000000 
 N -0.352694987500002 -7.02411935312500 -2.60823890000000 
 N -2.46767998750000 -6.19075935312500 -3.59241890000000 
 N -3.07523998750000 -6.77463335312500 0.175745100000001 
 N -0.259941987500002 -3.39350935312500 -2.69441990000000 
 N -2.49673698750000 -2.85805035312500 -3.77681190000000 
 N -2.96069498750000 -3.28275735312500 0.104441100000002 
 S -0.899509987500002 -6.58211535312500 -4.08933190000000 
 S -3.80797198750000 -6.25491835312500 -1.20393790000000 
 S -1.42472498750000 -7.07646335312500 1.026810000000156E-002
 S -0.845942987500002 -3.02163635312500 -4.12176490000000 
 S -3.88480798750000 -3.03078635312500 -1.27402290000000 
 S -1.40690898750000 -3.76661435312500 -0.122954899999999 
