16

 C -2.33003041562500 -6.26226612812500 -2.36024639687500 
 C -1.14186741562500 -6.79457512812500 -1.81501239687500 
 C -2.59572641562500 -2.60568712812500 -2.56562139687500 
 C -1.37020241562500 -3.06454812812500 -1.91039039687500 
 N -4.249941562499693E-002 -6.96072412812500 -2.62297739687500 
 N -2.24821941562500 -6.17417312812500 -3.70971239687500 
 N -2.78299941562500 -6.50834512812500 0.238346603125000 
 N -0.382706415624997 -3.42420612812500 -2.71205439687500 
 N -2.49067141562500 -2.62608712812500 -3.88968139687500 
 N -3.21527341562500 -2.73021612812500 -0.117792396875000 
 S -0.679057415624997 -6.67472112812500 -4.12591039687500 
 S -3.57593441562500 -5.97040512812500 -1.17027939687500 
 S -1.26293841562500 -7.06236412812500 -8.438039687499987E-002
 S -0.932084415624997 -3.08373512812500 -4.22503139687500 
 S -3.94021741562500 -2.18159312812500 -1.49751939687500 
 S -1.63057241562500 -3.16032612812500 -0.215883396875000 
