16

 C -2.41328814375000 -6.50986040312501 -2.41897925625000 
 C -1.24009114375000 -6.97161640312501 -1.71282325625000 
 C -2.20750514375000 -2.51937440312501 -2.10288825625000 
 C -1.06580314375000 -3.30161840312501 -1.67848225625000 
 N -0.150420143750003 -7.11257940312501 -2.45599925625000 
 N -2.22665814375000 -6.25643440312501 -3.69677725625000 
 N -2.97349014375000 -6.61658340312501 0.216850743749998 
 N -0.149368143750003 -3.45881740312501 -2.62707825625000 
 N -2.02689714375000 -1.91834840312501 -3.27023025625000 
 N -2.84067414375000 -3.34269140312501 0.274688743749998 
 S -0.608308143750002 -6.71885040312501 -4.05199325625000 
 S -3.77411214375000 -6.27016540312501 -1.24319225625000 
 S -1.42357414375000 -7.00530440312501 4.477743749997876E-003
 S -0.628828143750003 -2.44999240312501 -3.88164525625000 
 S -3.55878114375000 -2.55130340312501 -1.05448825625000 
 S -1.26836014375000 -3.74841140312501 7.771743749998006E-003
