16

 C -2.31795503750000 -6.52139339062500 -2.39669879062500 
 C -1.04714903750000 -6.93650639062500 -1.83148879062500 
 C -2.41602103750000 -2.52275339062500 -2.46901179062500 
 C -1.26346903750000 -3.22708539062500 -1.88737979062500 
 N -0.177719037499999 -7.25640039062500 -2.75073279062500 
 N -2.38766303750000 -6.42640339062500 -3.74531679062500 
 N -2.60864303750000 -6.48054439062500 0.224443209375000 
 N -0.364763037499999 -3.65294639062500 -2.79125779062500 
 N -2.33440403750000 -2.39638239062500 -3.78285479062500 
 N -3.07500603750000 -2.99933739062500 1.702020937499982E-002
 S -0.808163037500000 -6.86579039062500 -4.27472879062500 
 S -3.52796603750000 -6.17337339062500 -1.11671879062500 
 S -1.01610203750000 -6.90810539062500 -0.123683790625000 
 S -0.906607037500000 -2.99646039062500 -4.27177679062500 
 S -3.71809103750000 -2.37336339062500 -1.37057479062500 
 S -1.44067803750000 -3.37586639062500 -0.153361790625000 
