16

 C -2.73275757812500 -6.38576871562500 -2.63148728750000 
 C -1.51883657812500 -6.85077771562500 -2.03051128750000 
 C -2.38635757812500 -2.90000171562500 -2.41621428750000 
 C -1.03722157812500 -3.20657271562500 -1.80404128750000 
 N -0.397959578124998 -6.86107071562500 -2.75252928750000 
 N -2.57470457812500 -6.13206771562500 -3.92370228750000 
 N -3.30894457812500 -6.67840371562500 -0.204138287500001 
 N -5.459057812499779E-002 -3.30226071562500 -2.72441528750000 
 N -2.37512957812500 -2.76284971562500 -3.76246828750000 
 N -2.69484757812500 -2.99988171562500 0.145979712499999 
 S -0.959401578124998 -6.36574371562500 -4.23084328750000 
 S -4.11301357812500 -6.34187671562500 -1.61993828750000 
 S -1.73331257812500 -7.19127571562500 -0.360792287500001 
 S -0.801137578124998 -3.02978771562500 -4.17995628750000 
 S -3.60129757812500 -2.67488671562500 -1.21217728750000 
 S -1.13682257812500 -3.44806271562500 -4.227128750000109E-002
