16

 C -2.35049890937500 -6.25622544062499 -2.40745776250000 
 C -1.28133490937500 -6.93720444062499 -1.74039376250000 
 C -2.49022990937500 -2.33288344062499 -2.47896376250000 
 C -1.39775290937500 -2.92766244062499 -1.74665276250000 
 N -0.230083909374997 -7.20603644062499 -2.51506876250000 
 N -2.13680890937500 -5.91416744062499 -3.67174076250000 
 N -3.16081690937500 -6.55995244062499 1.335823750000031E-002
 N -0.415651909374997 -3.35104644062499 -2.54878076250000 
 N -2.26311490937500 -2.14223044062499 -3.77970176250000 
 N -3.10015390937500 -2.39919444062499 2.132823750000057E-002
 S -0.660826909374997 -6.54120544062499 -4.02139676250000 
 S -3.75667590937500 -5.98034944062499 -1.39449476250000 
 S -1.61820990937500 -7.23191144062499 -7.504762499999540E-003
 S -0.796571909374997 -2.82168944062499 -4.09702576250000 
 S -3.83234990937500 -2.06915444062499 -1.42295076250000 
 S -1.58699490937500 -3.06302944062499 -8.022476249999944E-002
