16

 C -2.54991726562500 -6.26055374062500 -2.48183807500000 
 C -1.45187626562500 -7.06383774062501 -2.05220007500000 
 C -2.56958826562500 -2.57189074062501 -2.33383607500000 
 C -1.43528526562500 -3.19697574062501 -1.74310007500000 
 N -0.514680265625000 -7.25083474062501 -2.97212907500000 
 N -2.46946326562500 -5.85513074062501 -3.75000107500000 
 N -3.11691326562500 -7.05039274062501 -9.084807499999692E-002
 N -0.447774265624999 -3.46364774062500 -2.56386107500000 
 N -2.43289726562500 -2.23319774062501 -3.61645507500000 
 N -3.17507326562500 -3.02509674062501 0.113618925000003 
 S -1.10977626562500 -6.53672174062500 -4.33241007500000 
 S -3.73366926562500 -5.97311574062500 -1.26393107500000 
 S -1.56814726562500 -7.62163374062500 -0.375374074999997 
 S -0.925041265625000 -2.80942274062501 -4.07525207500000 
 S -3.87933626562500 -2.39095074062501 -1.19033307500000 
 S -1.56383526562500 -3.42602274062501 -4.755407499999698E-002
