16

 C -2.48139881250000 -6.80057201562500 -2.21643288437500 
 C -1.17222781250000 -7.13160301562500 -1.63511788437500 
 C -2.57385881250000 -2.83604401562500 -2.39372988437500 
 C -1.29920681250000 -3.23983701562500 -1.80598188437500 
 N -0.192651812499998 -7.29713101562500 -2.52456988437500 
 N -2.45901181250000 -6.72904701562500 -3.55991488437500 
 N -2.81229781250000 -7.10884701562500 0.321678115624999 
 N -0.287062812499998 -3.40493901562500 -2.67921788437500 
 N -2.55737181250000 -2.60154901562500 -3.70498288437500 
 N -2.95262181250000 -2.94943401562500 0.136422115625000 
 S -0.921121812499998 -7.00622501562500 -3.97855688437500 
 S -3.68112981250000 -6.65589401562500 -1.02980888437500 
 S -1.21053681250000 -7.34175501562500 0.107338115625000 
 S -1.01775981250000 -2.91078901562500 -4.15723188437500 
 S -3.82202381250000 -2.51898101562500 -1.25155488437500 
 S -1.37720981250000 -3.43605801562500 -0.106520884375001 
