16

 C -2.57572863437500 -6.66789707500000 -2.07279357187500 
 C -1.30326063437500 -7.17264207500000 -1.66301757187500 
 C -2.40300663437500 -2.70104207500000 -2.43959857187500 
 C -1.28639663437500 -3.23964807500000 -1.78202457187500 
 N -0.389074634374997 -7.33538807500000 -2.60468457187500 
 N -2.52704463437500 -6.29510007500000 -3.32826757187500 
 N -2.78855963437500 -6.90991307500000 0.389541428125001 
 N -0.308822634374997 -3.55362007500000 -2.61344457187500 
 N -2.30008263437500 -2.64154807500000 -3.74785157187500 
 N -2.95244863437500 -2.94937107500000 6.350142812500104E-002
 S -1.10636263437500 -6.75172307500000 -3.97632757187500 
 S -3.77759063437500 -6.40671807500000 -0.902475571874999 
 S -1.28388363437500 -7.60279007500000 5.621742812500097E-002
 S -0.763181634374997 -3.17072507500000 -4.16442757187500 
 S -3.69660363437500 -2.39890207500000 -1.34939657187500 
 S -1.44798563437500 -3.57785507500000 -0.100782571874999 
