16

 C -2.42643212812500 -6.17209373437500 -2.34519967812500 
 C -1.27069312812500 -6.83367373437500 -1.86439867812500 
 C -2.64526612812500 -2.50201273437500 -2.68159867812500 
 C -1.41874512812500 -2.84540673437500 -2.03863067812500 
 N -0.376149128124998 -7.12584873437500 -2.79503767812500 
 N -2.37767312812500 -5.90306273437500 -3.62650267812500 
 N -2.77222812812500 -6.34059573437500 0.186810321874998 
 N -0.413159128124997 -3.08678773437500 -2.92835067812500 
 N -2.57895312812500 -2.38371573437500 -4.03347367812500 
 N -3.10938312812500 -2.44555673437500 -7.554067812500209E-002
 S -0.966457128124998 -6.56811973437500 -4.23340167812500 
 S -3.57558212812500 -5.76025873437500 -1.17512867812500 
 S -1.30988412812500 -7.10032473437500 -9.329367812500200E-002
 S -0.994355128124997 -2.84969673437500 -4.39808067812500 
 S -3.90724712812500 -2.06435073437500 -1.51406567812500 
 S -1.52796412812500 -2.92507773437500 -0.320546678125002 
