16

 C -2.23112932812500 -6.40911630000000 -2.55283179375000 
 C -1.05454132812500 -6.74056830000000 -1.82873079375000 
 C -2.38347232812500 -2.89883730000000 -2.45702079375000 
 C -1.09300132812500 -3.27059530000000 -1.86020479375000 
 N -1.552232812500343E-002 -6.99418130000000 -2.64699779375000 
 N -2.05105832812500 -6.26062730000000 -3.88363479375000 
 N -2.97704532812500 -6.58476030000000 -7.625979375000158E-002
 N -0.116848328125004 -3.41289030000000 -2.75784079375000 
 N -2.29241432812500 -2.76394530000000 -3.77666179375000 
 N -2.72679032812500 -2.88061230000000 0.109648206249998 
 S -0.459931328125004 -6.60798930000000 -4.18961479375000 
 S -3.65699232812500 -5.94591230000000 -1.47553779375000 
 S -1.32910832812500 -6.71100930000000 -7.345279375000136E-002
 S -0.724970328125004 -3.07559230000000 -4.26142279375000 
 S -3.61885632812500 -2.76691530000000 -1.30788579375000 
 S -1.13577332812500 -3.31049330000000 -0.128897793750002 
