16

 C -2.32778380937499 -6.40193244687500 -2.37495867812500 
 C -1.17911980937499 -7.10877244687500 -1.79505567812500 
 C -2.46954080937499 -2.97136744687500 -2.34377767812500 
 C -1.23911180937499 -3.11888644687500 -1.70090167812500 
 N -0.135637809374995 -7.27501444687500 -2.60316367812500 
 N -2.12590680937499 -6.12278344687500 -3.67251967812500 
 N -2.81273180937499 -6.94099844687500 8.278632187499912E-002
 N -0.184493809374994 -3.35264744687500 -2.49818067812500 
 N -2.48703980937499 -3.07625544687500 -3.68809667812500 
 N -2.90068380937499 -2.69501144687500 0.200601321874999 
 S -0.640751809374994 -6.68692044687500 -4.09482767812500 
 S -3.63254580937499 -6.16249844687500 -1.24895367812500 
 S -1.21500180937499 -7.24451444687500 -6.256967812500092E-002
 S -0.858865809374994 -3.21259344687500 -4.04102667812500 
 S -3.73574680937499 -2.77224544687500 -1.22373667812500 
 S -1.32677680937499 -3.08816844687500 7.157321874999178E-003
