16

 C -2.51515724375000 -6.72080194999999 -2.28727528437500 
 C -1.28233324375000 -7.08240894999999 -1.75408328437500 
 C -2.29623524375000 -3.13303794999999 -2.31807428437500 
 C -1.05345324375000 -3.62501394999999 -1.75337628437500 
 N -0.328876243749996 -7.27702394999999 -2.67755428437500 
 N -2.57048824375000 -6.72457594999999 -3.61518128437500 
 N -2.88520924375000 -6.77157694999999 0.214565715624998 
 N -8.681824374999625E-002 -3.83833194999999 -2.64123528437500 
 N -2.21539924375000 -2.94904294999999 -3.63187328437500 
 N -2.73265624375000 -3.38225294999999 0.202678715624999 
 S -1.00920424375000 -6.98192694999999 -4.14528528437500 
 S -3.72063924375000 -6.40956594999999 -1.17209628437500 
 S -1.30054324375000 -7.13761394999999 2.042571562499829E-002
 S -0.650332243749997 -3.41241594999999 -4.07280828437500 
 S -3.58319324375000 -2.86157594999999 -1.14484228437500 
 S -1.14190124375000 -3.84963494999999 -8.322284375001487E-003
