16

 C -2.56122347500000 -6.46362621249999 -2.36050826875000 
 C -1.38525847500000 -6.99665421249999 -1.72443926875000 
 C -2.39618947500000 -2.90716021249999 -2.41309726875000 
 C -1.14208347500000 -3.32606021249999 -1.80031126875000 
 N -0.347258475000003 -7.07265021249999 -2.55728426875000 
 N -2.44498747500000 -6.27214621249999 -3.69647826875000 
 N -3.09007447500000 -6.55342321249999 0.140576731249999 
 N -0.171633475000003 -3.55405921249999 -2.66348126875000 
 N -2.29204547500000 -2.84814821249999 -3.72863926875000 
 N -2.81909147500000 -2.91831621249999 0.144328731249999 
 S -0.908039475000002 -6.65370421249999 -4.05851426875000 
 S -3.86368047500000 -6.07119221249999 -1.25686726875000 
 S -1.54679947500000 -7.18722721249999 3.962731249998575E-003
 S -0.724679475000003 -3.10301621249999 -4.14144926875000 
 S -3.57496047500000 -2.57202821249999 -1.25961426875000 
 S -1.22845547500000 -3.40718221249999 -5.750426875000159E-002
