16

 C -2.28971783437500 -6.39924101875000 -2.42614592812500 
 C -1.06456183437500 -6.81127201875000 -1.78513192812500 
 C -2.58347183437500 -2.63983101875000 -2.26504392812500 
 C -1.32139883437500 -3.13735901875000 -1.65811392812500 
 N -6.553683437499913E-002 -7.01328101875000 -2.63526892812500 
 N -2.16455383437500 -6.07303901875000 -3.70739092812500 
 N -2.81251083437500 -6.60138501875000 0.126090071875000 
 N -0.346711834374998 -3.25922401875000 -2.55380192812500 
 N -2.53018983437500 -2.36621501875000 -3.57641992812500 
 N -2.97049583437500 -2.93774701875000 0.331950071875000 
 S -0.617516834374999 -6.56251201875000 -4.12506292812500 
 S -3.61350583437500 -6.30428301875000 -1.32125292812500 
 S -1.20540983437500 -6.99057601875000 -1.995192812499980E-002
 S -0.924756834374999 -2.68444201875000 -3.98783292812500 
 S -3.83964383437500 -2.54281001875000 -1.07427192812500 
 S -1.35608883437500 -3.24932801875000 6.752607187499993E-002
