16

 C -2.52096315312500 -6.58589564687501 -2.48128205625000 
 C -1.30605115312500 -7.13039264687501 -1.87305105625000 
 C -2.66421515312500 -2.75392764687501 -2.51884905625000 
 C -1.55935815312500 -3.41035564687501 -1.82924305625000 
 N -0.262190153124997 -7.27084864687501 -2.65738505625000 
 N -2.32378915312500 -6.29504464687501 -3.75111005625000 
 N -3.01488315312500 -6.86069864687501 -3.988305624999988E-002
 N -0.524020153124996 -3.71867264687501 -2.61083505625000 
 N -2.51572415312500 -2.69317464687501 -3.83336705625000 
 N -3.45576715312500 -3.25323864687501 -0.108094056250000 
 S -0.736961153124996 -6.60366864687501 -4.11991905625000 
 S -3.81835215312500 -6.33570864687501 -1.48260705625000 
 S -1.38844315312500 -7.41997764687501 -0.126029056250000 
 S -1.00496915312500 -3.14298364687501 -4.14825505625000 
 S -4.09746615312500 -2.44331764687501 -1.46741805625000 
 S -1.84488315312500 -3.61625664687501 -0.153635056250000 
