16

 C -2.42259593437500 -6.28665247500000 -2.30356720312500 
 C -1.17974893437500 -6.70967647500000 -1.66847920312500 
 C -2.47352693437500 -2.52902847500000 -2.87318620312500 
 C -1.18271193437500 -2.74043547500000 -2.20856720312500 
 N -0.170510934374996 -6.72430047500000 -2.54625920312500 
 N -2.44151093437500 -6.06540147500000 -3.63236520312500 
 N -3.02756793437500 -6.91141547500000 0.140588796875001 
 N -0.129922934374997 -2.86238047500000 -3.00876320312500 
 N -2.37540493437500 -2.49742347500000 -4.16417120312500 
 N -3.12305793437500 -2.90181147500000 -0.409830203124999 
 S -0.884329934374996 -6.37080247500000 -4.00288620312500 
 S -3.84948993437500 -6.34969547500000 -1.24527220312500 
 S -1.36644793437500 -6.95482147500000 3.557179687500089E-002
 S -0.746944934374996 -2.57310247500000 -4.59150620312500 
 S -3.88548493437500 -2.58282647500000 -1.88863620312500 
 S -1.38845093437500 -3.08797847500000 -0.453026203124999 
