16

 C -2.45205654687500 -6.38874589687501 -2.35731365000000 
 C -1.17140754687500 -6.77863689687501 -1.75131565000000 
 C -2.43960654687500 -2.95687289687501 -2.49785565000000 
 C -1.17503854687500 -3.28077989687501 -1.95321765000000 
 N -0.154879546874997 -6.93968389687501 -2.57105765000000 
 N -2.31673654687500 -6.10516089687501 -3.65500865000000 
 N -2.84898354687500 -6.86443089687501 0.180348350000000 
 N -0.182126546874997 -3.31305189687501 -2.84647165000000 
 N -2.37687254687500 -2.65731289687501 -3.82146965000000 
 N -2.94968154687500 -3.29490389687501 -2.683649999999815E-003
 S -0.738710546874997 -6.48962089687501 -4.06326065000000 
 S -3.74382554687500 -6.46990789687501 -1.17009365000000 
 S -1.23251254687500 -7.17566489687501 -8.952064999999965E-002
 S -0.810915546874997 -2.85834089687501 -4.29554965000000 
 S -3.78382254687500 -2.94215189687501 -1.43059665000000 
 S -1.33704754687500 -3.59280989687501 -0.155471650000000 
