16

 C -2.33899565000000 -6.51597900937500 -2.54403426250000 
 C -1.09467665000000 -6.72897100937500 -1.82864326250000 
 C -2.41071065000000 -3.25805100937500 -2.11777726250000 
 C -1.08228165000000 -3.45810900937500 -1.57501226250000 
 N -8.269764999999829E-002 -6.93261500937500 -2.67026726250000 
 N -2.29100065000000 -6.47068100937500 -3.88629226250000 
 N -2.96769465000000 -6.55311000937500 -1.414926249999837E-002
 N -7.777164999999897E-002 -3.54968400937500 -2.47139226250000 
 N -2.46733965000000 -3.14990900937500 -3.47201026250000 
 N -2.78533065000000 -3.60995400937500 0.422343737500002 
 S -0.662309649999998 -6.71156900937500 -4.22525526250000 
 S -3.74787465000000 -6.26714500937500 -1.44296026250000 
 S -1.29630365000000 -6.81580500937500 -9.047826249999824E-002
 S -0.881865649999999 -3.38778200937500 -3.92015926250000 
 S -3.70077765000000 -3.36234600937500 -0.942095262499998 
 S -1.16021765000000 -3.67155000937500 0.209596737500002 
