16

 C -2.52590645000000 -6.49883674687500 -2.55532606562500 
 C -1.33302645000000 -6.77049274687500 -1.87091806562500 
 C -2.48004545000000 -2.56532974687500 -2.39435306562500 
 C -1.25526945000000 -3.02874274687500 -1.77475606562500 
 N -0.191832450000000 -6.74452474687500 -2.56177006562500 
 N -2.27847845000000 -6.33684874687500 -3.85286906562500 
 N -3.17053145000000 -6.61239874687500 -4.096706562500074E-002
 N -0.295732450000000 -3.23470974687500 -2.64362106562500 
 N -2.42347145000000 -2.54463574687500 -3.71719106562500 
 N -2.97808445000000 -2.69429174687500 7.645093437499928E-002
 S -0.672789450000000 -6.44743174687500 -4.11305006562500 
 S -3.94281845000000 -6.35810674687500 -1.50976306562500 
 S -1.50056445000000 -6.97109874687500 -0.166685065625001 
 S -0.796045450000000 -2.91097074687500 -4.17215906562500 
 S -3.80159445000000 -2.22227774687500 -1.32019606562500 
 S -1.38739045000000 -3.19536674687500 -8.091606562500075E-002
