16

 C -2.13577426249999 -6.07946365000000 -2.61068239375000 
 C -1.02373126249999 -6.55510465000000 -1.83113539375000 
 C -2.37464426249999 -2.74808365000000 -2.54107539375000 
 C -1.09650526249999 -3.13713665000000 -1.86146239375000 
 N 4.872473750001216E-002 -6.90093765000000 -2.55628039375000 
 N -1.90241626249999 -5.96682265000000 -3.90695939375000 
 N -2.99254826249999 -6.31274665000000 -0.200416393749998 
 N -7.960426249998687E-002 -3.31312265000000 -2.71919339375000 
 N -2.31233526249999 -2.71261965000000 -3.87924839375000 
 N -2.99845426249999 -2.91356365000000 1.633160625000163E-002
 S -0.375290262499987 -6.60869765000000 -4.16233839375000 
 S -3.64111526249999 -5.85329665000000 -1.65228139375000 
 S -1.41228026249999 -6.85157165000000 -0.149584393749998 
 S -0.744003262499987 -3.04390565000000 -4.22016539375000 
 S -3.75761726249999 -2.77225065000000 -1.44545039375000 
 S -1.32109126249999 -3.30871265000000 -0.117823393749998 
