16

 C -2.38887966875000 -6.27158773125000 -2.19405778437500 
 C -1.20145566875000 -6.90208373125000 -1.67270078437500 
 C -2.42607266875000 -2.74069873125000 -2.59539478437500 
 C -1.17822266875000 -3.02607273125000 -1.96676278437500 
 N -0.186435668749998 -7.00732873125000 -2.49181678437500 
 N -2.21063666875000 -5.98149673125000 -3.46025778437500 
 N -2.86803966875000 -6.92827373125000 0.195021215625000 
 N -0.166083668749998 -3.00013973125000 -2.80429678437500 
 N -2.36454066875000 -2.52019473125000 -3.90354078437500 
 N -2.95675866875000 -3.10455473125000 -5.598578437500001E-002
 S -0.685206668749998 -6.36484873125000 -3.95534878437500 
 S -3.68635866875000 -6.11863173125000 -1.12135578437500 
 S -1.23863866875000 -7.05864473125000 2.578421562500011E-002
 S -0.762509668749997 -2.60980673125000 -4.24527378437500 
 S -3.78500066875000 -2.82184973125000 -1.45229378437500 
 S -1.32257766875000 -3.40072073125000 -0.330756784375000 
