16

 C -2.24759159374999 -6.31372745000000 -2.42399054687500 
 C -1.11920659374999 -6.92497045000000 -1.81424054687500 
 C -2.28852659374999 -2.66938745000000 -2.42716954687500 
 C -1.10939559374999 -3.11464645000000 -1.71141954687500 
 N -0.147207593749990 -7.20695645000000 -2.66104554687500 
 N -2.09739559374999 -6.08462945000000 -3.72770254687500 
 N -2.85208159374999 -6.72003945000000 8.269345312499876E-002
 N -7.730359374999018E-002 -3.43049045000000 -2.50197054687500 
 N -2.04723559374999 -2.43495645000000 -3.70884054687500 
 N -3.00664759374999 -2.93822445000000 -2.180546875001355E-003
 S -0.661513593749991 -6.72032645000000 -4.17021054687500 
 S -3.66978559374999 -6.22091345000000 -1.31235354687500 
 S -1.24133059374999 -7.15690745000000 -8.756354687500134E-002
 S -0.468038593749990 -2.98550345000000 -4.03500654687500 
 S -3.70195259374999 -2.40591545000000 -1.43017954687500 
 S -1.39422859374999 -3.19230045000000 7.222453124998696E-003
