16

 C -2.46695074375000 -6.81755969687500 -2.37411657812500 
 C -1.14265374375000 -7.00552569687500 -1.89084957812500 
 C -2.39207674375000 -2.70308869687500 -2.43981257812500 
 C -1.33206874375000 -3.28417669687500 -1.74626057812500 
 N -0.161282743750002 -6.96737569687500 -2.80829957812500 
 N -2.44315874375000 -6.66758669687500 -3.69542157812500 
 N -2.73710374375000 -7.01810069687500 0.178437421875000 
 N -0.255206743750002 -3.55831769687500 -2.48203657812500 
 N -2.20920374375000 -2.42623869687500 -3.74063057812500 
 N -3.26517574375000 -3.00522069687500 3.128742187500033E-002
 S -0.906572743750003 -6.69749469687500 -4.24412757812500 
 S -3.69548774375000 -6.78133469687500 -1.13108157812500 
 S -1.09002974375000 -7.01045169687499 -0.131761578125000 
 S -0.757819743750002 -3.07450369687500 -4.01493957812500 
 S -3.86232474375000 -2.51327969687500 -1.42627657812500 
 S -1.64986374375000 -3.44661969687500 -9.269578124999622E-003
