16

 C -2.38132171562500 -6.58606668750000 -2.50989054375000 
 C -1.11825471562500 -7.04899268750000 -1.92301854375000 
 C -2.38012171562500 -2.90787468750000 -2.50316554375000 
 C -1.27071171562500 -3.52014968750000 -1.81791054375000 
 N -8.761771562499732E-002 -7.12032268750000 -2.76009154375000 
 N -2.26431271562500 -6.28693568750000 -3.80969654375000 
 N -2.84389071562500 -7.08132568750000 1.293745624999976E-002
 N -0.225677715624998 -3.84141268750000 -2.53547454375000 
 N -2.19299971562500 -2.69020268750000 -3.81492454375000 
 N -3.11595871562500 -3.17599268750000 -4.519554375000046E-002
 S -0.697156715624998 -6.57907168750000 -4.20069254375000 
 S -3.74092771562500 -6.66484868750000 -1.32701454375000 
 S -1.19209471562500 -7.35695968750000 -0.240727543750000 
 S -0.671933715624998 -3.28005968750000 -4.10065554375000 
 S -3.76284471562500 -2.69428268750000 -1.48223854375000 
 S -1.50771271562500 -3.70791068750000 -0.108233543750000 
