16

 C -2.56993219375000 -6.66876364062500 -2.37057478125000 
 C -1.35980719375000 -7.08737964062500 -1.68756378125000 
 C -2.49565319375000 -2.86705264062500 -2.36460578125000 
 C -1.29312519375000 -3.47160164062500 -1.83745978125000 
 N -0.358777193750002 -7.31975864062500 -2.51757678125000 
 N -2.45547619375000 -6.50002864062500 -3.68873878125000 
 N -3.11177319375000 -6.79479464062500 0.157491218750002 
 N -0.332937193750002 -3.66418864062500 -2.69302078125000 
 N -2.41486519375000 -2.65113264062500 -3.65126778125000 
 N -2.90107919375000 -3.32405664062500 0.167915218750003 
 S -0.876245193750002 -6.86350364062500 -4.05412278125000 
 S -3.93054019375000 -6.58862964062500 -1.27513278125000 
 S -1.53517819375000 -7.30790564062500 -6.648781249997349E-003
 S -0.943135193750002 -3.15562864062500 -4.24243478125000 
 S -3.73911219375000 -2.69519964062500 -1.14001478125000 
 S -1.22692419375000 -3.58320464062500 -9.867078124999740E-002
