16

 C -2.64212280000000 -6.63495917812500 -2.30896175625000 
 C -1.35846280000000 -6.81185117812500 -1.68941075625000 
 C -2.38038180000000 -3.08114617812500 -2.46398675625000 
 C -1.08473980000000 -3.31776417812500 -1.92238875625000 
 N -0.295714800000003 -6.75205717812500 -2.55216775625000 
 N -2.63105480000000 -6.45797617812500 -3.62947575625000 
 N -3.19244480000000 -6.88846917812500 0.215547243750001 
 N -8.071980000000334E-002 -3.44126717812500 -2.79750875625000 
 N -2.36000480000000 -3.00490417812500 -3.80052675625000 
 N -2.70723180000000 -3.05405917812500 5.253424375000071E-002
 S -0.979072800000004 -6.67755617812500 -4.11033675625000 
 S -3.98338280000000 -6.78560117812500 -1.18932575625000 
 S -1.51100480000000 -7.16863017812500 4.309024375000070E-002
 S -0.776363800000003 -3.28256217812500 -4.26221175625000 
 S -3.68157480000000 -2.89222217812500 -1.28851575625000 
 S -1.08815380000000 -3.33327417812500 -0.195075756249999 
