16

 C -2.31735870625000 -6.83474112187500 -2.61359340625000 
 C -1.08278270625000 -7.16754312187500 -1.96471040625000 
 C -2.56535370625000 -2.77523812187500 -2.54084540625000 
 C -1.34321270625000 -3.24855112187500 -1.95199340625000 
 N -8.649270625000405E-002 -7.55220212187500 -2.74062640625000 
 N -2.24874670625000 -6.97836512187500 -3.94309640625000 
 N -2.78640970625000 -6.55373512187500 -2.476940624999857E-002
 N -0.352835706250004 -3.34935212187500 -2.84678140625000 
 N -2.52330670625000 -2.50840912187500 -3.82614840625000 
 N -2.92329070625000 -2.69638512187500 -9.564406249998658E-003
 S -0.611432706250004 -7.39718412187500 -4.36310240625000 
 S -3.52476070625000 -6.19796912187500 -1.44199540625000 
 S -1.12720170625000 -6.98117412187500 -0.182755406249999 
 S -1.02295370625000 -2.91760612187500 -4.32059340625000 
 S -3.73932570625000 -2.21197412187500 -1.38273440625000 
 S -1.39865670625000 -3.37589712187500 -0.229723406249999 
