16

 C -2.41263906250001 -6.38811145312500 -2.28558011250000 
 C -1.10995306250001 -6.76886545312500 -1.75028611250000 
 C -2.54855406250001 -2.71009245312500 -2.41052111250000 
 C -1.44751206250001 -3.37817745312500 -1.72663811250000 
 N -0.145356062500007 -6.93593745312500 -2.65085311250000 
 N -2.35992906250001 -6.08723145312500 -3.57160111250000 
 N -2.84357606250001 -6.79503745312500 0.172109887500000 
 N -0.430780062500006 -3.71254145312500 -2.51375811250000 
 N -2.26569306250001 -2.49160945312500 -3.66303111250000 
 N -3.29782306250001 -2.93414245312500 -1.369711250000005E-002
 S -0.853851062500007 -6.51966845312500 -4.08349411250000 
 S -3.68384806250001 -6.45696145312500 -1.21251211250000 
 S -1.26993906250001 -7.24133145312500 -3.103211250000015E-002
 S -0.756251062500007 -3.12700245312500 -4.01819311250000 
 S -3.98963906250001 -2.55917045312500 -1.46875211250000 
 S -1.73933606250001 -3.59009045312500 -9.097911249999990E-002
