16

 C -2.32001591874999 -6.25374890937499 -2.37963065312500 
 C -1.14085191874999 -6.70548390937499 -1.71084165312500 
 C -2.47848891874999 -2.41910790937499 -2.50408365312500 
 C -1.28412691874999 -3.00010890937499 -1.92845865312500 
 N -0.123869918749991 -7.14551190937499 -2.50075565312500 
 N -2.17547091874999 -6.14365290937499 -3.72302465312500 
 N -3.04190991874999 -6.19959190937499 5.460334687500357E-002
 N -0.251460918749991 -3.05075590937499 -2.78604265312500 
 N -2.39172691874999 -1.99638090937499 -3.76586165312500 
 N -2.89736691874999 -2.80000590937499 7.125134687500378E-002
 S -0.620349918749991 -6.74038090937499 -4.06181065312500 
 S -3.69590191874999 -5.96200390937499 -1.42341665312500 
 S -1.52898691874999 -6.92754290937499 0.107370346875004 
 S -0.873721918749991 -2.46886190937499 -4.20013065312500 
 S -3.75664691874999 -2.33814390937499 -1.32433265312500 
 S -1.34134891874999 -3.35346890937499 -0.182740653124996 
