16

 C -2.50280506249999 -6.48555874375000 -2.36212776562500 
 C -1.28429706249999 -6.92963974375000 -1.73582776562500 
 C -2.26731006249999 -2.94068874375000 -2.30864776562500 
 C -1.02151206249999 -3.41554374375000 -1.69695076562500 
 N -0.262681062499995 -6.99958274375000 -2.56488776562500 
 N -2.45326006249999 -6.35303074375000 -3.69489776562500 
 N -2.95688606249999 -6.65398774375000 0.225072234375000 
 N 7.686937500005264E-003 -3.55838374375000 -2.52528576562500 
 N -2.12731006249999 -2.71856674375000 -3.59801276562500 
 N -2.80945706249999 -3.40510574375000 0.184874234375000 
 S -0.878166062499995 -6.76372474375000 -4.13678776562500 
 S -3.80687806249999 -6.31769074375000 -1.10513376562500 
 S -1.37170906249999 -6.98877274375000 -9.433765625000534E-003
 S -0.553141062499995 -3.01603474375000 -4.00606476562500 
 S -3.58327906249999 -2.89055174375000 -1.19040076562500 
 S -1.18781306249999 -3.84505574375000 4.405234374999623E-003
