16

 C -2.44810405625000 -6.39772620625000 -2.58825614062500 
 C -1.25077705625000 -6.82007520625000 -1.87853214062500 
 C -2.72660605625000 -2.85384720625000 -2.47057214062500 
 C -1.58554305625000 -3.49225220625000 -1.86887114062500 
 N -0.171311056250004 -6.97180820625000 -2.64729714062500 
 N -2.24263905625000 -6.26435320625000 -3.90256114062500 
 N -3.14626305625000 -6.65414620625000 -7.488914062500052E-002
 N -0.561044056250004 -3.72063920625000 -2.66726714062500 
 N -2.61601905625000 -2.67863820625000 -3.76569714062500 
 N -3.37363005625000 -3.23127920625000 -4.247114062500046E-002
 S -0.655275056250003 -6.69116220625000 -4.22042114062500 
 S -3.89548605625000 -6.28062420625000 -1.53363814062500 
 S -1.56422305625000 -7.15541420625000 -0.124509140625001 
 S -1.02693805625000 -3.10683820625000 -4.13036514062500 
 S -4.03183205625000 -2.55652520625000 -1.40306014062500 
 S -1.81126005625000 -3.85019220625000 -0.225786140625000 
