16

 C -2.35624094062500 -6.53535485312501 -2.49486020625000 
 C -1.11370894062500 -6.81105985312501 -1.74694620625000 
 C -2.37267394062500 -3.41903485312501 -2.27813120625000 
 C -1.14183094062500 -3.48388885312501 -1.54945420625000 
 N -2.380994062499653E-002 -7.06230085312501 -2.51953920625000 
 N -2.21209894062500 -6.62852985312501 -3.83262120625000 
 N -2.95377394062500 -6.62407285312501 2.066279374999702E-002
 N -8.530994062499619E-002 -3.60782885312501 -2.33886120625000 
 N -2.29821494062500 -3.39700085312501 -3.57545120625000 
 N -2.93713894062500 -3.40964485312501 0.252768793749997 
 S -0.604448940624996 -6.86466985312501 -4.08664320625000 
 S -3.71160594062500 -6.29719385312501 -1.38761520625000 
 S -1.30844294062500 -6.92954185312501 -4.702620625000309E-002
 S -0.718707940624996 -3.56412085312501 -3.97278720625000 
 S -3.71631694062500 -3.27738685312501 -1.18815120625000 
 S -1.29448394062500 -3.52254385312501 0.159922793749997 
