16

 C -2.64094276562500 -6.36604907812500 -2.28821566875000 
 C -1.43450776562500 -6.94967807812500 -1.76473866875000 
 C -2.41536876562500 -2.94227607812500 -2.41089966875000 
 C -1.20603276562500 -3.47979407812500 -1.71741166875000 
 N -0.483787765625000 -7.02699907812500 -2.67364866875000 
 N -2.66196476562500 -6.12258807812500 -3.59078766875000 
 N -3.07072976562500 -6.75856707812500 0.258983331250000 
 N -0.143304765625000 -3.77226207812500 -2.48589666875000 
 N -2.16342176562500 -2.70412707812500 -3.70553166875000 
 N -2.98158576562500 -2.95873707812500 0.107343331250000 
 S -1.18296776562500 -6.61176907812500 -4.15886466875000 
 S -3.86248876562500 -6.22398907812500 -1.08735466875000 
 S -1.53663976562500 -7.23928107812500 -2.630766874999968E-002
 S -0.629237765625001 -3.21143507812500 -3.97952766875000 
 S -3.79143376562500 -2.78684207812500 -1.32221166875000 
 S -1.56041276562500 -3.79908507812500 -1.889668749999851E-003
