16

 C -2.31809791874999 -6.71401636562500 -2.60079081562500 
 C -1.06990191874999 -7.09364936562500 -1.96613881562500 
 C -2.55842891874999 -2.70698736562500 -2.52866481562500 
 C -1.28291491874999 -3.16859836562500 -1.96517881562500 
 N -9.431791874999362E-002 -7.52967236562500 -2.79023881562500 
 N -2.24900791874999 -6.94005036562500 -3.89816381562500 
 N -2.73520391874999 -6.50760436562500 -3.304581562499909E-002
 N -0.328890918749994 -3.39330136562500 -2.85986881562500 
 N -2.53440191874999 -2.52627936562500 -3.87285881562500 
 N -2.94329391874999 -2.74446236562500 1.374184375001031E-003
 S -0.663892918749994 -7.38379936562500 -4.37700281562500 
 S -3.55428291874999 -6.22557636562500 -1.44435981562500 
 S -1.11918691874999 -6.94744836562500 -0.188213815624999 
 S -1.03441091874999 -2.91565336562500 -4.33498881562500 
 S -3.70102691874999 -2.21367136562500 -1.32547181562500 
 S -1.44345091874999 -3.40095236562500 -0.260532815624999 
