16

 C -2.81349513437500 -6.73216896875000 -2.35568970312500 
 C -1.53943613437500 -7.06804296875000 -1.75660870312500 
 C -2.43493213437500 -3.11993296875000 -2.39759470312500 
 C -1.07475813437500 -3.20432396875000 -1.84607770312500 
 N -0.473365134375000 -7.08460996875000 -2.54627370312500 
 N -2.63979013437500 -6.53313396875000 -3.65752170312500 
 N -3.14890213437500 -6.66623796875000 0.248308296874999 
 N -0.131052134375000 -3.18314396875000 -2.78723970312500 
 N -2.49762313437500 -3.24568596875000 -3.70053070312500 
 N -2.75139813437500 -3.11334796875000 0.111650296874999 
 S -1.08002913437500 -6.77087896875000 -4.03849670312500 
 S -4.01516813437500 -6.26212596875000 -1.18316070312500 
 S -1.54327113437500 -6.96523596875000 2.028129687499880E-002
 S -0.995074134375000 -3.21330796875000 -4.29343070312500 
 S -3.72722213437500 -3.02993096875000 -1.24562270312500 
 S -1.12738213437500 -3.30500896875000 -0.132366703125001 
