16

 C -2.55864215625000 -6.59049701875000 -2.44551263437500 
 C -1.25118815625000 -6.98995201875000 -1.95179063437500 
 C -2.54732615625000 -2.75786201875000 -2.54724263437500 
 C -1.42445515625000 -3.22309901875000 -1.81235863437500 
 N -0.283807156250000 -7.01165401875000 -2.85528863437500 
 N -2.52353815625000 -6.34327001875000 -3.73105863437500 
 N -2.94993415625000 -6.95596401875000 7.213836562500031E-002
 N -0.332750156250000 -3.47463101875000 -2.52629163437500 
 N -2.40689015625000 -2.74054101875000 -3.89248863437500 
 N -3.26515315625000 -2.72658101875000 -2.213963437499955E-002
 S -0.999915156250000 -6.59419501875000 -4.27846863437500 
 S -3.77325615625000 -6.47783101875000 -1.26242063437500 
 S -1.38529715625000 -7.28003001875000 -0.228546634375000 
 S -0.830861156250000 -3.15426701875000 -4.12000663437500 
 S -3.90771315625000 -2.31186801875000 -1.50950463437500 
 S -1.70644515625000 -3.24275901875000 -0.101933634374999 
