16

 C -2.33742710312499 -6.58479043125000 -2.18236066562500 
 C -1.11378410312499 -7.07357643125000 -1.56903866562500 
 C -2.25501210312499 -2.72361343125000 -2.68731466562500 
 C -1.03221110312499 -3.15626643125000 -1.96652766562500 
 N -9.861910312499411E-002 -6.96402943125000 -2.42812466562500 
 N -2.24656010312499 -6.00611343125000 -3.37071266562500 
 N -2.90414510312499 -7.12246843125000 0.296004334375000 
 N 3.425089687500638E-002 -3.39611543125000 -2.73440666562500 
 N -2.14209910312499 -2.72893843125000 -4.01647166562500 
 N -2.86937210312499 -2.51483043125000 -0.159311665625000 
 S -0.712800103124994 -6.26506943125000 -3.81861666562500 
 S -3.65677810312499 -6.32358843125000 -1.05142566562500 
 S -1.26520610312499 -7.37076043125000 0.118503334374999 
 S -0.542676103124994 -3.06314043125000 -4.27487166562500 
 S -3.60517410312499 -2.35729843125000 -1.61209866562500 
 S -1.34374610312499 -3.23691243125000 -0.209002665625001 
