16

 C -2.58948000937500 -6.21174162187500 -2.50984730000000 
 C -1.39585300937500 -6.82278462187500 -1.88772830000000 
 C -2.41389500937500 -2.38361762187500 -2.55150430000000 
 C -1.26596500937500 -2.98339562187500 -1.85346830000000 
 N -0.357435009374997 -7.10707862187500 -2.66967330000000 
 N -2.42752600937500 -6.08149462187500 -3.83475130000000 
 N -2.98217000937500 -6.32319762187500 5.955470000000029E-002
 N -0.253760009374997 -3.27645362187500 -2.62267030000000 
 N -2.28763600937500 -2.36508562187500 -3.86489730000000 
 N -3.06947600937500 -2.60635762187500 -3.135429999999984E-002
 S -0.935957009374996 -6.68942662187500 -4.19251030000000 
 S -3.81620800937500 -5.87863762187500 -1.35327830000000 
 S -1.53146000937500 -7.10068162187500 -0.153597300000000 
 S -0.819699009374997 -2.96093462187500 -4.24477130000000 
 S -3.74325600937500 -2.09275062187500 -1.43621030000000 
 S -1.46326100937500 -2.95865362187500 -0.139266300000000 
