16

 C -2.62106150625000 -6.31703890312500 -2.53615562500000 
 C -1.42269150625000 -6.73929990312500 -1.89270662500000 
 C -2.69689050625000 -2.66622390312500 -2.48615662500000 
 C -1.50953950625000 -3.25378190312500 -1.88174762500000 
 N -0.403846506250001 -6.94629390312500 -2.69804962500000 
 N -2.48346250625000 -6.11465090312500 -3.86066262500000 
 N -3.22776250625000 -6.71178290312500 -7.099762500000084E-002
 N -0.516333506250001 -3.34110390312500 -2.72855962500000 
 N -2.57949750625000 -2.32247390312500 -3.75520462500000 
 N -3.35974050625000 -2.90224090312500 -5.216562500000110E-002
 S -0.836802506250001 -6.41280890312500 -4.21049262500000 
 S -3.97851750625000 -6.18626890312500 -1.43404362500000 
 S -1.57468250625000 -6.96129790312500 -0.230379625000001 
 S -1.01479450625000 -2.77226390312500 -4.14569662500000 
 S -4.11313750625000 -2.50971090312500 -1.51146062500000 
 S -1.77951050625000 -3.41866490312500 -0.129407625000001 
