16

 C -2.57021055625000 -6.24984989062500 -2.46860832812500 
 C -1.45073955625000 -7.06010689062500 -2.06148632812500 
 C -2.57783855625000 -2.57783189062500 -2.34034832812500 
 C -1.43521755625000 -3.19510589062500 -1.72322032812500 
 N -0.516280556250003 -7.25959589062500 -2.96816532812500 
 N -2.47772355625000 -5.86536089062500 -3.73924032812500 
 N -3.10883455625000 -7.05568989062500 -9.127532812499983E-002
 N -0.455220556250004 -3.45898189062500 -2.56254832812500 
 N -2.42870755625000 -2.20488589062500 -3.60811432812500 
 N -3.16683255625000 -3.02655389062500 0.126569671875000 
 S -1.10628455625000 -6.53866689062500 -4.33639332812500 
 S -3.73307255625000 -5.97019489062500 -1.27167832812500 
 S -1.56237855625000 -7.61807189062500 -0.373781328125000 
 S -0.938819556250004 -2.80475989062500 -4.07532932812500 
 S -3.87446855625000 -2.40203189062500 -1.19089832812500 
 S -1.56814355625000 -3.42602289062500 -4.337332812499994E-002
