16

 C -2.46108240937500 -6.27625406875001 -2.50830244062500 
 C -1.22452840937500 -6.61052006875001 -1.88002844062500 
 C -2.44471540937500 -2.86600606875001 -2.56595244062500 
 C -1.19817740937500 -3.07759106875001 -1.87970044062500 
 N -0.208638409374998 -6.73660506875001 -2.70348144062500 
 N -2.44404240937500 -6.22826906875001 -3.85343444062500 
 N -3.06280040937500 -6.59104306875001 4.325355937500097E-002
 N -0.119937409374998 -3.31645806875001 -2.62149644062500 
 N -2.26468640937500 -2.96168906875001 -3.86335344062500 
 N -3.00533640937500 -2.70756006875001 -4.121244062499896E-002
 S -0.835157409374998 -6.42409606875001 -4.23987944062500 
 S -3.87579340937500 -6.06907106875001 -1.36020544062500 
 S -1.44007640937500 -6.77487706875001 -0.132492440624999 
 S -0.703593409374998 -3.38480206875001 -4.15526644062500 
 S -3.84576240937500 -2.62284106875001 -1.49201444062500 
 S -1.38097140937500 -3.15780506875001 -0.116277440624999 
