16

 C -2.30174534375000 -6.34331364687500 -2.39818005937500 
 C -1.13153634375000 -6.76366964687500 -1.70838805937500 
 C -2.62285134375000 -2.66016764687500 -2.62707005937500 
 C -1.38537034375000 -3.01472964687500 -1.93301605937500 
 N -0.134193343749998 -7.08351964687500 -2.55719005937500 
 N -2.17793934375000 -6.19394964687500 -3.74495105937500 
 N -2.71853134375000 -6.26019664687500 0.179262940624999 
 N -0.345936343749997 -3.19608064687500 -2.72310105937500 
 N -2.52555134375000 -2.70023364687500 -3.96133605937500 
 N -3.21632334375000 -2.78216564687500 -6.256005937500153E-002
 S -0.647941343749998 -6.75403064687500 -4.11346405937500 
 S -3.63488434375000 -6.01890464687500 -1.18081205937500 
 S -1.25531134375000 -7.03267464687500 -3.846605937500147E-002
 S -0.928158343749998 -3.05451364687500 -4.30430305937500 
 S -3.91118034375000 -2.28164964687500 -1.49561905937500 
 S -1.58451034375000 -3.20580964687500 -0.187952059375001 
