16

 C -2.31182911250000 -6.39624505312500 -2.36220786875000 
 C -1.18248911250000 -7.08333405312500 -1.76703486875000 
 C -2.47709911250000 -2.99919805312500 -2.34768286875000 
 C -1.22767211250000 -3.14926105312500 -1.70699586875000 
 N -0.158483112499999 -7.25011405312500 -2.59757486875000 
 N -2.13344711250000 -6.11478605312500 -3.67027186875000 
 N -2.80214811250000 -6.96168205312500 6.503913124999916E-002
 N -0.178225112499999 -3.33309705312500 -2.50237986875000 
 N -2.46492211250000 -3.09393505312500 -3.67675986875000 
 N -2.91259311250000 -2.68898605312500 0.181397131249999 
 S -0.635753112499999 -6.68671305312500 -4.10021586875000 
 S -3.62494711250000 -6.15254905312500 -1.25126186875000 
 S -1.22012311250000 -7.24074905312500 -8.093986875000092E-002
 S -0.852738112499999 -3.20130005312500 -4.03811086875000 
 S -3.76101011250000 -2.75984505312500 -1.23442186875000 
 S -1.33022911250000 -3.08040905312500 3.995131249999062E-003
