16

 C -2.16873193125000 -6.51592676562500 -2.49902072187500 
 C -1.04322193125000 -7.08610276562500 -1.80051372187500 
 C -2.45070593125000 -2.91117176562500 -2.35541272187500 
 C -1.24985893125000 -3.35881376562500 -1.70533272187500 
 N -8.254693124999513E-002 -7.45510576562500 -2.67817972187500 
 N -2.06062793125000 -6.32746276562500 -3.82438372187500 
 N -3.01299693125000 -6.87204876562500 -7.980472187499976E-002
 N -0.238832931249995 -3.65199476562500 -2.43798572187500 
 N -2.29919093125000 -2.71850576562500 -3.67438872187500 
 N -2.95841893125000 -2.91932076562500 0.184278278125000 
 S -0.586999931249995 -6.87026976562500 -4.19506872187500 
 S -3.57098793125000 -6.18864576562500 -1.50092172187500 
 S -1.40326593125000 -7.31463476562500 -9.364772187499981E-002
 S -0.734674931249995 -3.20676876562500 -4.02662372187500 
 S -3.77007693124999 -2.70223976562500 -1.21386472187500 
 S -1.34440293124999 -3.43612776562500 2.985127812500021E-002
