16

 C -2.50132890625000 -6.25330163750000 -2.43608603125000 
 C -1.32204290625000 -6.78354163750000 -1.75947703125000 
 C -2.46240290625000 -2.39792763750000 -2.36683103125000 
 C -1.28630290625000 -2.97755563750000 -1.74651103125000 
 N -0.272235906250000 -6.92824763750000 -2.59588203125000 
 N -2.33348290625000 -6.18898463750000 -3.78986303125000 
 N -3.12669590625000 -6.49372463750000 6.320296874999887E-002
 N -0.261120906250000 -3.14881063750000 -2.56850003125000 
 N -2.35005290625000 -2.18040963750000 -3.65632203125000 
 N -3.04852490625000 -2.87569463750000 7.416996874999882E-002
 S -0.755392906250000 -6.52644263750000 -4.16042303125000 
 S -3.78598290625000 -5.95694063750000 -1.34459003125000 
 S -1.45702190625000 -6.92654063750000 -4.528203125000108E-002
 S -0.826185906250000 -2.69553763750000 -4.06761203125000 
 S -3.69245590625000 -2.02172363750000 -1.22238303125000 
 S -1.44877990625000 -3.21092163750000 -1.251903125000120E-002
