16

 C -2.42734645312499 -6.53906087187500 -2.33754305625000 
 C -1.22500945312499 -7.02133187187500 -1.59441305625000 
 C -2.45835845312499 -2.59674087187500 -2.53725505625000 
 C -1.24026645312499 -3.06460987187500 -1.85300805625000 
 N -0.264899453124994 -7.45776987187500 -2.42915405625000 
 N -2.37454145312499 -6.60713987187500 -3.67910805625000 
 N -2.94478645312499 -6.58784087187500 0.202583943750001 
 N -0.136118453124994 -3.04510787187500 -2.60374005625000 
 N -2.22760545312499 -2.25726487187500 -3.81884705625000 
 N -3.04830745312499 -2.75183187187500 3.563943750000576E-003
 S -0.843102453124994 -7.19088487187500 -3.95362305625000 
 S -3.82765445312499 -6.23264587187500 -1.23746005625000 
 S -1.45944745312499 -7.30027687187500 8.583594375000048E-002
 S -0.624579453124994 -2.60118087187500 -4.12231005625000 
 S -3.75091045312499 -2.29874387187500 -1.42136005625000 
 S -1.47530945312499 -3.36325587187499 -0.143417056249999 
