16

 C -2.53850985625000 -6.24543830000000 -2.49081584687500 
 C -1.25329885625000 -6.60941030000000 -1.87200884687500 
 C -2.41500485625000 -2.91567230000000 -2.54392284687500 
 C -1.16836085625000 -3.10628730000000 -1.83511484687500 
 N -0.194764856250002 -6.69065830000000 -2.72593784687500 
 N -2.47716785625000 -6.18335330000000 -3.80639684687500 
 N -3.03636585625000 -6.57244230000000 5.229515312500022E-002
 N -7.877085625000113E-002 -3.35078330000000 -2.57685584687500 
 N -2.27959085625000 -2.94562130000000 -3.87892684687500 
 N -3.02907385625000 -2.73285130000000 -8.895784687499964E-002
 S -0.872284856250001 -6.44800130000000 -4.24979684687500 
 S -3.81330685625000 -6.05045630000000 -1.34396084687500 
 S -1.45842685625000 -6.78348530000000 -0.136304846875000 
 S -0.734603856250001 -3.41311730000000 -4.13273384687500 
 S -3.82755585625000 -2.65364630000000 -1.49192384687500 
 S -1.40803985625000 -3.15226430000000 -0.151067846875000 
