16

 C -2.35135028437500 -6.83318122812500 -2.38203697187500 
 C -1.02221528437500 -6.98585022812499 -1.88295297187500 
 C -2.51420028437500 -2.72264722812499 -2.38506397187500 
 C -1.38523028437500 -3.29216322812499 -1.73876897187500 
 N -0.104014284375000 -7.00392122812499 -2.82847897187500 
 N -2.50633928437500 -6.59590922812500 -3.67343897187500 
 N -2.58036328437500 -7.04259922812499 0.190491028125002 
 N -0.361256284375000 -3.59603322812499 -2.51449697187500 
 N -2.32467628437500 -2.55275522812499 -3.67778897187500 
 N -3.19422028437500 -2.97902422812499 4.730402812500167E-002
 S -0.939445284375000 -6.68399222812499 -4.29591297187500 
 S -3.56230628437500 -6.78131022812499 -1.14677697187500 
 S -0.975738284375001 -7.03771222812500 -0.143338971874998 
 S -0.726564284375001 -3.07955722812499 -4.05505397187500 
 S -3.90828128437500 -2.51982222812499 -1.40774897187500 
 S -1.62903828437500 -3.40845422812500 -3.213397187499845E-002
