16

 C -2.37359034375000 -6.33075926249999 -2.38063137187500 
 C -1.12846434375000 -6.82953126249999 -1.78937537187500 
 C -2.58367534375000 -2.75690426249999 -2.45051337187500 
 C -1.47716534375000 -3.37964526249999 -1.71344237187500 
 N -0.119444343749999 -6.93321126249999 -2.66646637187500 
 N -2.27178334375000 -6.18374526249999 -3.67931437187500 
 N -2.93887934375000 -6.62938026249999 0.140275628124999 
 N -0.403118343749999 -3.60464226249999 -2.47278137187500 
 N -2.26198134375000 -2.40894426249999 -3.69360637187500 
 N -3.33110334375000 -2.93978826249999 3.826662812499926E-002
 S -0.727614343749999 -6.46732226249999 -4.18694037187500 
 S -3.72198834375000 -6.47311726249999 -1.32408637187500 
 S -1.32615334375000 -7.04890226249999 -1.007371875000773E-003
 S -0.776619343749999 -3.05169326249999 -4.03056337187500 
 S -3.99061134375000 -2.62749026249999 -1.46078737187500 
 S -1.79746734375000 -3.53830826249999 1.180362812499913E-002
