16

 C -2.45177445625000 -6.50612639687500 -2.36504040000000 
 C -1.22225345625000 -6.82200939687500 -1.74016140000000 
 C -2.21289345625000 -2.91796339687500 -2.16317040000000 
 C -0.946387456250004 -3.29482739687500 -1.52191740000000 
 N -0.126140456250003 -6.84657739687500 -2.51469540000000 
 N -2.24438845625000 -6.33515439687500 -3.68137040000000 
 N -2.99055045625000 -6.73955839687500 0.135920600000002 
 N -1.676645625000361E-002 -3.43380639687500 -2.47991040000000 
 N -2.24123945625000 -2.79055239687500 -3.50376340000000 
 N -2.68998545625000 -3.24837539687500 0.334946600000002 
 S -0.650286456250003 -6.50698039687500 -4.06860340000000 
 S -3.83666145625000 -6.45272339687500 -1.34911540000000 
 S -1.36669845625000 -6.87750839687500 3.499260000000204E-002
 S -0.664981456250004 -3.06470039687500 -3.98259540000000 
 S -3.55578245625000 -2.90117939687500 -1.04887840000000 
 S -0.996099456250004 -3.58922939687500 0.199129600000002 
