16

 C -2.59981990625000 -6.31272240312500 -2.47814074375000 
 C -1.33708990625000 -6.62607440312500 -1.82959074375000 
 C -2.64335590625000 -3.00575640312500 -2.35009074375000 
 C -1.34909890625000 -3.36015440312500 -1.69555274375000 
 N -0.362936906249999 -6.79232040312500 -2.71398474375000 
 N -2.57986490625000 -6.22009340312500 -3.80586374375000 
 N -3.07756190625000 -6.49320440312500 6.576225624999910E-002
 N -0.294034906249999 -3.45536240312500 -2.50649174375000 
 N -2.54666190625000 -2.79465240312500 -3.66256974375000 
 N -3.09570890625000 -3.03917240312500 0.201608256249999 
 S -0.970771906250000 -6.54866740312500 -4.25226374375000 
 S -3.92468490625000 -6.17751840312500 -1.35018774375000 
 S -1.42730590625000 -6.75926140312500 -0.107832743750001 
 S -0.963304906249999 -3.15472040312500 -4.03859874375000 
 S -3.87208090625000 -2.64158340312500 -1.20077374375000 
 S -1.50378290625000 -3.46236540312500 4.932125624999917E-002
