16

 C -2.55815385624999 -6.32265382500000 -2.51933474062500 
 C -1.34028985624999 -6.73109382500000 -1.84958174062500 
 C -2.78418985624999 -2.68781482500000 -2.56938574062500 
 C -1.54479285624999 -3.12913582500000 -1.95585974062500 
 N -0.315833856249995 -6.76660682500000 -2.70219774062500 
 N -2.45156585624999 -6.02301882500000 -3.84012374062500 
 N -3.21014985624999 -6.68771982500000 -3.007174062500217E-002
 N -0.476742856249994 -3.26823282500000 -2.70243974062500 
 N -2.62638785624999 -2.42423782500000 -3.83726274062500 
 N -3.30324785624999 -3.04552082500000 -3.688674062500219E-002
 S -0.912317856249994 -6.45566982500000 -4.21831174062500 
 S -3.96580485624999 -6.32132782500000 -1.48742174062500 
 S -1.55786985624999 -6.88839882500000 -9.768674062500216E-002
 S -1.08364185624999 -2.72614082500000 -4.28088574062500 
 S -4.03746485624999 -2.46179682500000 -1.39209174062500 
 S -1.69206385624999 -3.37906082500000 -0.229107740625002 
