16

 C -2.47480241250000 -6.80298712500000 -2.37915201875000 
 C -1.16375141250000 -7.00403012500000 -1.88464101875000 
 C -2.40269141250000 -2.70649912500000 -2.43661101875000 
 C -1.32294341250000 -3.26750112500000 -1.73411001875000 
 N -0.185895412500004 -6.95321312500000 -2.78125701875000 
 N -2.44430041250000 -6.67064112500000 -3.69697701875000 
 N -2.74636941250000 -7.00762712500000 0.178998981250002 
 N -0.253178412500004 -3.55039612500000 -2.48280501875000 
 N -2.19916741250000 -2.41092212500000 -3.73538801875000 
 N -3.25726741250000 -3.01341412500000 3.107398125000205E-002
 S -0.898242412500005 -6.70438512500000 -4.23467601875000 
 S -3.72113241250000 -6.78213912500000 -1.13872201875000 
 S -1.10370541250000 -7.01346012500000 -0.124089018749998 
 S -0.747018412500005 -3.07443912500000 -4.01842301875000 
 S -3.85575941250000 -2.50453512500000 -1.43850301875000 
 S -1.64699141250000 -3.45844312500000 -1.357018749998051E-003
