16

 C -2.21740012187500 -6.62015362812500 -2.21032228125000 
 C -0.945537121875000 -7.10227162812500 -1.64984628125000 
 C -2.48575112187500 -2.66864762812500 -2.27237028125000 
 C -1.28091012187500 -3.31538062812500 -1.74380028125000 
 N 2.693287812500067E-002 -7.19476862812500 -2.55662328125000 
 N -2.25160812187500 -6.34938062812500 -3.51417728125000 
 N -2.61287912187500 -6.98078962812500 0.345371718749998 
 N -0.303819121875000 -3.53832062812500 -2.61424028125000 
 N -2.36011512187500 -2.38670362812500 -3.55565628125000 
 N -2.97818712187500 -3.19522462812500 0.219697718749998 
 S -0.657347121875000 -6.64689062812500 -4.01686228125000 
 S -3.44856912187500 -6.42297862812500 -0.985601281250002 
 S -1.03583112187500 -7.22827662812500 5.581871874999811E-002
 S -0.855303121875000 -2.96631862812500 -4.08443428125000 
 S -3.73683212187500 -2.48808862812500 -1.12303628125000 
 S -1.37956512187500 -3.53012662812500 -3.736428125000191E-002
