16

 C -2.59729328125000 -6.52810777812500 -2.34844745937500 
 C -1.40841128125000 -6.97861677812500 -1.68644245937500 
 C -2.63805328125000 -2.80096677812500 -2.45006445937500 
 C -1.30105028125000 -3.19034877812500 -1.87236845937500 
 N -0.337253281250001 -7.21866877812500 -2.48233545937500 
 N -2.51132228125000 -6.49578977812500 -3.66731345937500 
 N -3.20530228125000 -6.48692677812500 0.148352540625000 
 N -0.341241281250000 -3.36892977812500 -2.75902645937500 
 N -2.56460428125000 -2.57958877812500 -3.74309645937500 
 N -2.98457928125000 -2.90026577812500 0.105031540625000 
 S -0.895341281250000 -6.86715177812500 -4.02149345937500 
 S -3.92327828125000 -6.19112977812500 -1.30597345937500 
 S -1.60248028125000 -6.82828777812500 4.777554062500000E-002
 S -1.05033228125000 -3.09910377812500 -4.24944045937500 
 S -3.90843028125000 -2.54019277812500 -1.30232845937500 
 S -1.39952728125000 -3.36818677812500 -0.181638459375000 
