16

 C -2.40381145312500 -6.37842633125000 -2.53630869687500 
 C -1.13366345312500 -6.72680633125000 -1.92116769687500 
 C -2.74452245312500 -2.76781533125000 -2.29981869687500 
 C -1.53681745312500 -3.19995133125000 -1.70860569687500 
 N -0.159914453125000 -6.83896833125000 -2.82981069687500 
 N -2.38725245312500 -6.32304433125000 -3.88307369687500 
 N -2.82541445312500 -6.33688233125000 3.883930312500028E-002
 N -0.590858453125001 -3.55783133125000 -2.57797869687500 
 N -2.61767445312500 -2.59792533125000 -3.61298069687500 
 N -3.23779845312500 -2.93748333125000 0.199525303125000 
 S -0.859918453125000 -6.61074733125000 -4.32648669687500 
 S -3.72845945312500 -6.10839333125000 -1.35657769687500 
 S -1.18721545312500 -6.63477233125000 -0.179144696874999 
 S -1.12978145312500 -3.16489833125000 -4.06460269687500 
 S -4.06443945312500 -2.61388033125000 -1.21942769687500 
 S -1.63046945312500 -3.34058133125000 3.730303125000445E-003
