16

 C -2.19485743749999 -6.50428360312500 -2.52775000312500 
 C -1.04049143749999 -7.01626460312500 -1.84184800312500 
 C -2.62896743749999 -2.35825260312500 -2.41097500312500 
 C -1.56595943749999 -3.00449160312500 -1.77842400312500 
 N -2.664437499992012E-003 -7.31222760312500 -2.63774500312500 
 N -2.04222943749999 -6.35038960312500 -3.84910900312500 
 N -2.72391543749999 -6.53635860312500 -1.967003125000977E-003
 N -0.548955437499992 -3.21747560312500 -2.58205900312500 
 N -2.49070943749999 -2.17859960312500 -3.70080300312500 
 N -3.22592243749999 -2.61732160312500 5.004899687499909E-002
 S -0.497858437499992 -6.83980760312500 -4.15088200312500 
 S -3.46097443749999 -6.11422260312500 -1.41827600312500 
 S -1.28445043749999 -7.34745260312500 -0.123360003125001 
 S -0.996870437499992 -2.87004860312500 -4.11648400312500 
 S -3.87033743749999 -1.85609860312500 -1.31812500312500 
 S -1.70197243749999 -3.18767160312500 -4.040200312500097E-002
