16

 C -2.37978360625000 -6.46326967500000 -2.52501199375000 
 C -1.13618760625000 -6.61787767500000 -1.81231899375000 
 C -2.46608560625000 -2.07288767500000 -2.70828099375000 
 C -1.46368260625000 -2.89116267500000 -1.98891899375000 
 N -4.524660625000188E-002 -6.58884667500000 -2.59663999375000 
 N -2.28475060625000 -6.42834067500000 -3.88687199375000 
 N -2.95239960625000 -6.61997167500000 2.085200624999861E-002
 N -0.396252606250002 -3.24849567500000 -2.69406799375000 
 N -2.10482160625000 -1.87379167500000 -3.99003799375000 
 N -3.44640160625000 -2.61631267500000 -0.392661993750001 
 S -0.657044606250002 -6.58784767500000 -4.13113299375000 
 S -3.81963260625000 -6.37441467500000 -1.43862199375000 
 S -1.36113860625000 -6.77080267500000 -0.101556993750001 
 S -0.556806606250002 -2.50557967500000 -4.20249899375000 
 S -3.97001960625000 -1.87063067500000 -1.80580899375000 
 S -2.00168360625000 -3.43704367500000 -0.443238993750001 
