16

 C -2.73456568750000 -6.38900362500000 -2.62029733750000 
 C -1.51610768750000 -6.84112962500000 -2.02656433750000 
 C -2.38076368750000 -2.90625162500000 -2.42513233750000 
 C -1.03538668750000 -3.21251462500000 -1.79679733750000 
 N -0.390722687499999 -6.88176362500000 -2.74400833750000 
 N -2.57079268750000 -6.13521662500000 -3.91980733750000 
 N -3.31083268750000 -6.66800362500000 -0.189894337500001 
 N -4.746768749999930E-002 -3.29860062500000 -2.71382633750000 
 N -2.37021768750000 -2.75191262500000 -3.76888133750000 
 N -2.68671668750000 -3.00407262500000 0.145621662499999 
 S -0.956860687500000 -6.37213062500000 -4.23288833750000 
 S -4.10967568750000 -6.34717762500000 -1.62216733750000 
 S -1.74122268750000 -7.20386862500000 -0.353172337500001 
 S -0.793891687499999 -3.03585862500000 -4.17879533750000 
 S -3.60247568750000 -2.67556962500000 -1.20754633750000 
 S -1.13720468750000 -3.46007662500000 -4.238633750000087E-002
