16

 C -2.39383443750000 -6.21429974375000 -2.38232354687500 
 C -1.18197643750000 -6.80440474375000 -1.87643554687500 
 C -2.50558243750000 -2.43854974375000 -2.46661154687500 
 C -1.40740443750000 -3.13100474375000 -1.80864854687500 
 N -0.137502437499999 -6.94192974375000 -2.68356454687500 
 N -2.25696243750000 -5.95304074375000 -3.65318254687500 
 N -2.91786243750000 -6.70525074375000 0.155789453124999 
 N -0.443345437500000 -3.64540174375000 -2.61901254687500 
 N -2.36762243750000 -2.34585174375000 -3.78005354687500 
 N -3.13206843750000 -2.42193374375000 5.702245312499898E-002
 S -0.748442437500000 -6.44812274375000 -4.17619354687500 
 S -3.63511543750000 -6.02875774375000 -1.17715554687500 
 S -1.30865643750000 -7.04905174375000 -0.114762546875001 
 S -0.908328437500000 -3.05574274375000 -4.12374254687500 
 S -3.90077643750000 -2.08771374375000 -1.39069654687500 
 S -1.66039743750000 -3.17192874375000 -8.247054687500111E-002
