16

 C -2.32588907812499 -6.74559758125000 -2.60942419062500 
 C -1.09299607812499 -7.10964758125000 -1.97373419062500 
 C -2.56266107812499 -2.73734458125000 -2.53419719062500 
 C -1.29091307812499 -3.19300758125000 -1.94772919062500 
 N -8.101707812498926E-002 -7.54444558125000 -2.78138419062500 
 N -2.25062807812499 -6.95684958125000 -3.90045319062500 
 N -2.76114007812499 -6.51946558125000 -3.235819062499878E-002
 N -0.333770078124989 -3.38160658125000 -2.85430019062500 
 N -2.52412807812499 -2.51990858125000 -3.87039319062500 
 N -2.94046207812499 -2.72554158125000 -6.486190624998667E-003
 S -0.641471078124989 -7.38809358125000 -4.38094219062500 
 S -3.54428607812499 -6.21663358125000 -1.44005319062500 
 S -1.11877007812499 -6.95653558125000 -0.182242190624999 
 S -1.03895107812499 -2.91290158125000 -4.33017519062500 
 S -3.71099707812499 -2.21224758125000 -1.33936519062500 
 S -1.43026607812499 -3.39436158125000 -0.255201190624999 
