16

 C -2.62333000312500 -6.77563759062499 -2.32464655312500 
 C -1.34328300312500 -7.14550259062499 -1.77455655312500 
 C -2.38261300312500 -3.10471359062499 -2.32226755312500 
 C -1.13397600312500 -3.53631159062499 -1.78899755312500 
 N -0.337242003124999 -7.29490259062499 -2.60398455312500 
 N -2.52581100312500 -6.63120959062499 -3.63296555312500 
 N -2.93001600312500 -6.79475859062499 0.233462446874998 
 N -0.155183003124999 -3.71419159062499 -2.67115955312500 
 N -2.33476400312500 -2.88622359062499 -3.65185455312500 
 N -2.73297400312500 -3.31736259062499 0.164891446874998 
 S -0.974815003124999 -7.02135059062499 -4.12575455312500 
 S -3.86247300312500 -6.45298859062499 -1.14178055312500 
 S -1.36192300312500 -7.18761859062499 -3.218655312500163E-002
 S -0.797045003124999 -3.28396559062499 -4.18135855312500 
 S -3.55772100312500 -2.79140959062499 -1.13177755312500 
 S -1.21183600312500 -3.90993959062499 -0.115772553125002 
