16

 C -2.60694703437500 -6.61966117812500 -2.38006068437500 
 C -1.34374203437500 -7.06095317812500 -1.73696768437500 
 C -2.40375203437500 -2.96758217812500 -2.35211068437500 
 C -1.17883303437500 -3.54987717812500 -1.84073568437500 
 N -0.352258034375003 -7.39370917812500 -2.57592868437500 
 N -2.52958303437500 -6.56153017812500 -3.70212468437500 
 N -3.03124603437500 -6.82513617812500 0.202784315625001 
 N -0.177944034375003 -3.67365517812500 -2.73121668437500 
 N -2.39967003437500 -2.81686717812500 -3.63708968437500 
 N -2.78624303437500 -3.29802417812500 0.191832315625001 
 S -0.982938034375003 -7.00216717812500 -4.09056568437500 
 S -3.87858103437500 -6.55329917812500 -1.22035368437500 
 S -1.45395403437500 -7.24530517812500 1.881931562500050E-002
 S -0.913681034375004 -3.19279017812500 -4.25826168437500 
 S -3.63418303437500 -2.74864517812500 -1.14889668437500 
 S -1.21177603437500 -3.85927117812500 -0.124093684375000 
