16

 C -2.20720500937500 -6.43139575937500 -2.13174850625000 
 C -1.04307800937500 -6.94500875937500 -1.48484750625000 
 C -2.41087900937500 -2.66627475937500 -2.28085650625000 
 C -1.17992000937500 -3.31889875937500 -1.72865950625000 
 N -5.355800937500010E-002 -7.23846475937500 -2.33122350625000 
 N -2.06181100937500 -6.21733675937500 -3.43809250625000 
 N -2.93428900937500 -6.74126075937500 0.291559493750001 
 N -0.184972009375000 -3.30355875937500 -2.59325550625000 
 N -2.26180000937500 -2.31852975937500 -3.55021150625000 
 N -2.95322800937500 -3.12312575937500 0.165992493750001 
 S -0.588922009375000 -6.78816975937500 -3.84408650625000 
 S -3.60198900937500 -6.37481675937500 -1.14742650625000 
 S -1.34911100937500 -7.24130375937500 0.172263493750001 
 S -0.724053009375000 -2.75248175937500 -4.02850450625000 
 S -3.72137700937500 -2.64173075937500 -1.19345550625000 
 S -1.38130400937500 -3.64302275937500 -6.976350624999861E-002
