16

 C -2.62903738437500 -6.22984496874999 -2.36932436875000 
 C -1.46047038437500 -6.79931296874999 -1.72536236875000 
 C -2.48509538437500 -3.07777996874999 -2.35379536875000 
 C -1.17502938437500 -3.21530396874999 -1.72969536875000 
 N -0.501194384375002 -7.29380696874999 -2.51268736875000 
 N -2.50356338437500 -6.19815596874999 -3.69165036875000 
 N -3.25226438437500 -6.35834696874999 5.766763125000240E-002
 N -0.214368384375001 -3.44686896874999 -2.63151136875000 
 N -2.46399438437500 -3.01972196874999 -3.69999336875000 
 N -2.94699638437500 -3.06558496874999 0.164414631250002 
 S -1.11221338437500 -7.07123696874999 -4.06383736875000 
 S -3.91995838437500 -5.97664896874999 -1.36373936875000 
 S -1.58935838437500 -6.82165896874999 1.600863125000229E-002
 S -0.828380384375002 -3.18033296874999 -4.09132036875000 
 S -3.83760738437500 -3.23471096874999 -1.19078136875000 
 S -1.24656038437500 -3.24238496874999 -3.790736874999756E-002
