16

 C -2.59982363125000 -6.66942701250000 -2.36224471562500 
 C -1.37404563125000 -7.07950401250000 -1.68043971562500 
 C -2.51489663125000 -2.87841401250000 -2.34677971562500 
 C -1.27650163125000 -3.44174501250000 -1.85479071562500 
 N -0.386675631249998 -7.30744301250000 -2.52832171562500 
 N -2.44986263125000 -6.51870101250000 -3.69068871562500 
 N -3.12101563125000 -6.80667201250000 0.145640284374997 
 N -0.337974631249999 -3.65735801250000 -2.71908471562500 
 N -2.41379063125000 -2.64085201250000 -3.65316271562500 
 N -2.90181063125000 -3.30957001250000 0.167972284374997 
 S -0.849383631249998 -6.84259901250000 -4.04680471562500 
 S -3.91963363125000 -6.57999401250000 -1.26803971562500 
 S -1.52333863125000 -7.30487901250000 -1.284271562500283E-002
 S -0.935036631249999 -3.15702501250000 -4.23012871562500 
 S -3.74844763125000 -2.68695201250000 -1.13979871562500 
 S -1.24801863125000 -3.56593501250000 -8.117271562500283E-002
