16

 C -2.44994879687501 -6.53028709687500 -2.32030881875000 
 C -1.15916179687501 -6.73314509687500 -1.73406381875000 
 C -2.59249979687501 -2.85673809687500 -2.57753581875000 
 C -1.31603879687501 -3.25856609687500 -2.05643081875000 
 N -0.125127796875007 -6.76465109687500 -2.57507781875000 
 N -2.42556279687501 -6.33873509687500 -3.63445181875000 
 N -2.96793479687501 -6.79934309687500 0.152753181249999 
 N -0.321666796875006 -3.22212509687500 -2.93706281875000 
 N -2.51362879687501 -2.46981209687500 -3.88810581875000 
 N -2.91642579687501 -3.18658209687500 -5.043381875000064E-002
 S -0.845211796875007 -6.36227409687500 -4.06616781875000 
 S -3.79288179687501 -6.49233109687500 -1.27052681875000 
 S -1.33337479687501 -7.03785809687500 2.514818124999918E-002
 S -0.939476796875007 -2.71984309687500 -4.32360581875000 
 S -3.85997579687501 -2.87071209687500 -1.39973281875000 
 S -1.31653279687501 -3.41433309687500 -0.379390818750001 
