16

 C -2.42022000625000 -6.57788239062500 -2.30240850937500 
 C -1.14851900625000 -6.87874339062500 -1.71423550937500 
 C -2.53217800625000 -2.59846739062500 -2.41600050937500 
 C -1.42688300625000 -3.23312739062500 -1.80561450937500 
 N -0.135056006249997 -7.03353739062500 -2.55524250937500 
 N -2.37860100625000 -6.54399039062500 -3.62940850937500 
 N -2.85030900625000 -6.65813239062500 0.198815490624999 
 N -0.414222006249997 -3.40941639062500 -2.63396350937500 
 N -2.41606200625000 -2.44746839062500 -3.71670250937500 
 N -3.07428800625000 -2.86074139062500 3.610349062499885E-002
 S -0.786995006249996 -6.82762839062500 -4.10227750937500 
 S -3.74871200625000 -6.38715739062500 -1.25770950937500 
 S -1.21521000625000 -7.02405039062500 4.871490624998920E-003
 S -0.931233006249997 -3.03396039062500 -4.15939950937500 
 S -3.88999100625000 -2.32000939062500 -1.36197050937500 
 S -1.54319300625000 -3.50312039062500 -0.108419509375001 
