16

 C -2.33076685625000 -6.28122415000001 -2.57258827500000 
 C -1.04454385625000 -6.64917015000001 -1.99844427500000 
 C -2.79242585625000 -2.78334715000001 -2.29642127500000 
 C -1.56805185624999 -3.12124215000001 -1.64970327500000 
 N -2.307885624999528E-002 -6.86462415000001 -2.81923027500000 
 N -2.27226385625000 -6.35381015000001 -3.87971027500000 
 N -2.78520585624999 -6.39338015000001 -5.549227499999820E-002
 N -0.577759856249995 -3.40615915000001 -2.51525427500000 
 N -2.71727585625000 -2.75367715000001 -3.62562727500000 
 N -3.36772385625000 -2.80455415000001 0.188278725000002 
 S -0.734339856249995 -6.82507715000001 -4.33198927500000 
 S -3.63681285625000 -6.04636615000001 -1.44579127500000 
 S -1.14739085625000 -6.78969715000001 -0.258574274999998 
 S -1.10165285624999 -2.99275915000001 -4.02978727500000 
 S -4.14745885625000 -2.40395415000001 -1.25569227500000 
 S -1.72916385625000 -3.17384715000001 5.673472500000165E-002
