16

 C -2.32455490937499 -6.70862819687500 -2.44351543750000 
 C -1.07746490937499 -6.98232419687500 -1.77644643750000 
 C -2.29200590937499 -3.47902419687500 -2.22614443750000 
 C -1.02316490937499 -3.54370119687500 -1.53052643750000 
 N -3.839490937499423E-002 -7.10115519687500 -2.58498843750000 
 N -2.27812690937499 -6.54288719687500 -3.77240843750000 
 N -2.88144690937499 -6.53639619687500 9.035056250000140E-002
 N 6.657109062500588E-002 -3.66694219687500 -2.25474043750000 
 N -2.13848290937499 -3.48762119687500 -3.56024343750000 
 N -2.84436990937499 -3.31084619687500 0.253889562500001 
 S -0.724137909374995 -6.90632919687500 -4.13503343750000 
 S -3.68156490937499 -6.31378219687500 -1.33261043750000 
 S -1.23659690937499 -6.89627319687500 -3.510643749999875E-002
 S -0.559125909374994 -3.61262519687500 -3.92273043750000 
 S -3.62611490937499 -3.18772619687500 -1.18151743750000 
 S -1.22251590937499 -3.56080319687500 0.192826562500001 
