16

 C -2.29527072812500 -6.45841523125000 -2.36571012187500 
 C -1.09971272812500 -6.92932323125000 -1.71468112187500 
 C -2.59169272812500 -2.71486523125000 -2.55192112187500 
 C -1.34930372812500 -3.01116123125000 -1.92502112187500 
 N -0.138096728124999 -7.26108123125000 -2.53039312187500 
 N -2.14742472812500 -6.26284723125000 -3.65463812187500 
 N -2.86109372812500 -6.20260023125000 9.547387812500108E-002
 N -0.309045728124999 -3.15402923125000 -2.73369912187500 
 N -2.50709872812500 -2.65004623125000 -3.87563012187500 
 N -3.13320972812500 -2.88708123125000 -0.111861121874999 
 S -0.681469728124999 -6.81423123125000 -4.07553212187500 
 S -3.57429872812500 -6.05049623125000 -1.36146512187500 
 S -1.31753372812500 -6.85006823125000 2.493787812500092E-002
 S -0.918729728124999 -2.88044823125000 -4.28200912187500 
 S -3.94736372812500 -2.50845423125000 -1.49322312187500 
 S -1.48893372812500 -3.12357323125000 -0.245871121874999 
