16

 C -2.35155557812499 -6.69105966562500 -2.38919079687500 
 C -1.14300757812499 -7.16297166562500 -1.72929279687500 
 C -2.37006557812499 -2.50760666562500 -2.26183579687500 
 C -1.31987457812499 -3.33155266562500 -1.76524279687500 
 N -0.105860578124994 -7.37679266562500 -2.56581879687500 
 N -2.22791957812499 -6.36024366562500 -3.69604779687500 
 N -3.01542157812499 -7.04300566562500 0.139459203125002 
 N -0.390827578124994 -3.73731366562500 -2.62867379687500 
 N -2.24422257812499 -2.27416666562500 -3.55346679687500 
 N -2.97217857812499 -2.79366866562500 0.159143203125002 
 S -0.634785578124994 -6.77571666562500 -4.05538679687500 
 S -3.72015757812499 -6.43262766562500 -1.25218779687500 
 S -1.37374057812499 -7.29568066562500 5.274220312500177E-002
 S -0.819501578124994 -2.97345066562500 -4.07149679687500 
 S -3.64425957812499 -2.06509266562500 -1.17915779687500 
 S -1.57959257812499 -3.68889566562500 -4.481879687499823E-002
