16

 C -2.23581842500000 -6.69603217812499 -2.22360695937500 
 C -1.00921942500000 -7.11975417812499 -1.62546795937500 
 C -2.45539742500000 -2.64202717812499 -2.46958595937500 
 C -1.21238842500000 -2.83510317812499 -1.87007695937500 
 N 5.201557499999687E-002 -7.00533317812499 -2.44295195937500 
 N -2.12694342500000 -6.39611017812499 -3.50841295937500 
 N -2.75611142500000 -6.77720417812499 0.280484040625000 
 N -0.179032425000003 -3.06748417812499 -2.69549995937500 
 N -2.41270042500000 -2.62712317812499 -3.80268395937500 
 N -2.93591642500000 -2.84884917812499 6.929604062500028E-002
 S -0.568642425000003 -6.50540317812499 -3.89770795937500 
 S -3.60153642500000 -6.53512017812499 -1.14209695937500 
 S -1.19616342500000 -7.32633217812499 0.124030040625000 
 S -0.840364425000003 -2.84964417812499 -4.20178995937500 
 S -3.78631042500000 -2.46505917812499 -1.32722095937500 
 S -1.35096742500000 -3.14912817812499 -0.177147959375000 
