16

 C -2.37389226250000 -6.52954696250000 -2.38598276875000 
 C -1.20433726250000 -7.13802296250000 -1.77655476875000 
 C -2.63896926250000 -2.79687996250000 -2.56351776875000 
 C -1.49202126250000 -3.28234096250000 -1.85033976875000 
 N -0.268602262499996 -7.41987196250000 -2.70088976875000 
 N -2.30439126250000 -6.35221196250000 -3.69272176875000 
 N -2.87896026250000 -7.00410696250000 0.130798231249999 
 N -0.435880262499996 -3.53900996250000 -2.62030676875000 
 N -2.44953626250000 -2.66238496250000 -3.87709976875000 
 N -3.42644826250000 -2.74625796250000 -0.106260768750001 
 S -0.806020262499996 -6.89585296250000 -4.13674676875000 
 S -3.68236126250000 -6.41975796250000 -1.22165776875000 
 S -1.30342926250000 -7.73359496250000 -0.163793768750001 
 S -0.852742262499996 -3.13504796250000 -4.19335876875000 
 S -4.12995326250000 -2.56523696250000 -1.59325676875000 
 S -1.86362426250000 -3.39485596250000 -9.795376875000117E-002
