16

 C -2.56944085625000 -6.58880937500000 -2.36416294687500 
 C -1.35255585625000 -7.02311137500000 -1.71901094687500 
 C -2.12681285625000 -2.87709537500000 -2.39549194687500 
 C -1.05511685625000 -3.50427637500000 -1.75386794687500 
 N -0.346343856250001 -7.20021737500000 -2.59069694687500 
 N -2.49747885625000 -6.38986937500000 -3.68617694687500 
 N -3.13249285625000 -6.60114137500000 0.163948053125000 
 N 6.812814374999832E-002 -3.68975637500000 -2.47954594687500 
 N -1.88858585625000 -2.60201837500000 -3.68704894687500 
 N -2.88345085625000 -3.31083537500000 6.721405312500028E-002
 S -0.951974856250001 -6.84606737500000 -4.09792094687500 
 S -3.89932085625000 -6.21900037500000 -1.28408294687500 
 S -1.58011385625000 -7.09650537500000 9.560053125000190E-003
 S -0.288735856250001 -3.02935037500000 -3.93604894687500 
 S -3.58244685625000 -2.81078637500000 -1.41527794687500 
 S -1.35151285625000 -3.92234037500000 -4.482294687499966E-002
