16

 C -2.40862885625000 -6.71175830000000 -2.32586697187500 
 C -1.26574085625000 -7.16631230000000 -1.62373997187500 
 C -2.45505085625000 -2.46451930000000 -2.41990697187500 
 C -1.29772085625000 -2.99018630000000 -1.79939497187500 
 N -0.283771856250000 -7.49641930000000 -2.45001797187500 
 N -2.34047185625000 -6.55819030000000 -3.66480497187500 
 N -3.07485785625000 -6.46861530000000 0.219887028125001 
 N -0.287014856250000 -3.21236830000000 -2.61927897187500 
 N -2.35519685625000 -2.40848530000000 -3.72240497187500 
 N -3.16935385625000 -3.02946230000000 -6.905197187499934E-002
 S -0.854789856249999 -7.23433630000000 -4.01771797187500 
 S -3.74312885625000 -6.21809830000000 -1.31162497187500 
 S -1.60766485625000 -7.25002530000000 9.510502812500077E-002
 S -0.783401856249999 -2.73941430000000 -4.13904397187500 
 S -3.76980485625000 -2.18548730000000 -1.35431997187500 
 S -1.52309385625000 -3.37099330000000 -0.111811971874999 
