16

 C -2.30559173437500 -6.48227354375000 -2.49121175625000 
 C -1.07343873437499 -6.70851054375000 -1.75807475625000 
 C -2.59812373437499 -2.72595754375000 -2.51386675625000 
 C -1.36632573437500 -2.99686854375000 -1.76320175625000 
 N -3.362173437499472E-002 -6.90394754375000 -2.54227175625000 
 N -2.17647673437499 -6.44084754375000 -3.80314275625000 
 N -3.07259273437499 -6.44462854375000 -1.657575625000041E-002
 N -0.263790734374995 -3.01812254375000 -2.52603075625000 
 N -2.44656073437500 -2.61522854375000 -3.86679475625000 
 N -3.25392973437499 -2.96914454375000 1.961124374999956E-002
 S -0.584923734374995 -6.79517454375000 -4.16328975625000 
 S -3.75784873437499 -6.18373054375000 -1.53940975625000 
 S -1.46166073437499 -6.82392454375000 1.465924374999950E-002
 S -0.821120734374995 -2.79467854375000 -4.08069575625000 
 S -3.96402073437500 -2.58110854375000 -1.42691475625000 
 S -1.64639273437500 -3.25986554375000 -3.138675625000031E-002
