16

 C -2.49765303750000 -6.68571639062501 -2.33160500312500 
 C -1.18450103750000 -7.02332339062501 -1.72845800312500 
 C -2.27159703750000 -3.18389539062501 -2.28787500312500 
 C -1.04891303750000 -3.62394339062501 -1.67229600312500 
 N -0.291298037500002 -7.28524739062501 -2.65125500312500 
 N -2.56031203750000 -6.70178339062501 -3.65996300312500 
 N -2.86933303750000 -6.77760139062501 0.226789996874997 
 N -5.880803750000307E-002 -3.89854639062501 -2.50452900312500 
 N -2.13948903750000 -2.95212539062501 -3.60623600312500 
 N -2.74311703750000 -3.37658739062501 0.194484996874997 
 S -1.01969303750000 -6.97983739062501 -4.14950200312500 
 S -3.72877403750000 -6.39228839062501 -1.16146900312500 
 S -1.27162303750000 -7.10076339062501 -1.500003125002536E-003
 S -0.622399037500003 -3.45237839062501 -4.11305800312500 
 S -3.54632003750000 -2.91791739062501 -1.15654000312500 
 S -1.14250103750000 -3.79758739062501 4.950899687499732E-002
