16

 C -2.35369801875000 -6.25091257812501 -2.39827549687500 
 C -1.27807901875000 -6.92353257812501 -1.75411049687500 
 C -2.49819701875000 -2.33228557812501 -2.50135449687500 
 C -1.41236701875000 -2.93813657812501 -1.73510049687500 
 N -0.225218018749997 -7.23214957812501 -2.54692149687500 
 N -2.13776201875000 -5.91773057812501 -3.67528849687500 
 N -3.16029601875000 -6.57160757812501 1.345450312499974E-002
 N -0.413366018749997 -3.35387557812501 -2.51108349687500 
 N -2.26332801875000 -2.15881457812501 -3.77886849687500 
 N -3.11914801875000 -2.41876957812501 1.751750312499967E-002
 S -0.670076018749997 -6.53071157812501 -4.02188249687500 
 S -3.75772501875000 -5.97873757812501 -1.40291449687500 
 S -1.62746101875000 -7.22856757812501 -9.961496875000364E-003
 S -0.799941018749997 -2.82567757812501 -4.09442349687500 
 S -3.85272901875000 -2.07456357812501 -1.41662549687500 
 S -1.59115401875000 -3.07944057812501 -8.086249687500047E-002
