16

 C -2.47064778750000 -6.60821249687501 -2.46365614375000 
 C -1.16750778750000 -6.79598449687500 -1.77266314375000 
 C -2.46491878750000 -2.18875149687500 -2.80722814375000 
 C -1.47934378750000 -2.89649249687500 -2.10343414375000 
 N -0.146615787500003 -6.65156849687500 -2.60127214375000 
 N -2.39349078750000 -6.47262249687500 -3.79813614375000 
 N -2.97216978750000 -6.49003049687500 6.820385625000180E-002
 N -0.333259787500003 -3.13152149687500 -2.77080514375000 
 N -2.14175778750000 -1.81145649687500 -4.05515014375000 
 N -3.46822078750000 -2.73287849687500 -0.476648143749998 
 S -0.791698787500003 -6.37637449687500 -4.10725314375000 
 S -3.85492278750000 -6.40797649687500 -1.41659114375000 
 S -1.38033778750000 -6.80703249687500 1.746285625000188E-002
 S -0.646077787500003 -2.49646149687500 -4.29682214375000 
 S -3.82575978750000 -1.95252349687500 -1.89126714375000 
 S -1.90170078750000 -3.24833549687500 -0.428950143749998 
