16

 C -2.26884955937500 -6.78224093437500 -2.42825759375000 
 C -1.15364255937500 -7.47843193437500 -1.80041659375000 
 C -2.64456655937500 -2.84160893437500 -2.61452959375000 
 C -1.41817155937500 -3.08425993437500 -1.85043259375000 
 N -0.179344559375003 -7.77809593437500 -2.68337859375000 
 N -2.20309055937500 -6.58642993437500 -3.71733459375000 
 N -2.80110655937500 -7.05723593437500 0.124901406250002 
 N -0.335550559375003 -3.30140193437500 -2.57240459375000 
 N -2.40472555937500 -2.82215593437500 -3.93219959375000 
 N -3.33562755937500 -2.80660493437500 -9.438859374999820E-002
 S -0.651023559375003 -7.10169693437500 -4.17892259375000 
 S -3.50716755937500 -6.36044293437500 -1.23532059375000 
 S -1.23509655937500 -7.61678193437500 -1.641559374999835E-002
 S -0.804867559375003 -3.16189593437500 -4.20022359375000 
 S -4.03189055937500 -2.36829293437500 -1.56847959375000 
 S -1.71989655937500 -3.12960993437500 -0.129226593749998 
