16

 C -2.32172260625000 -6.35812824375000 -2.51556959687500 
 C -1.14859360625000 -6.80904324375000 -1.74006059687500 
 C -2.70624060625000 -2.50594824375000 -2.44418359687500 
 C -1.45821260625000 -2.81119724375000 -1.78892259687500 
 N -3.746760625000434E-002 -7.02210924375000 -2.44241059687500 
 N -2.08581060625000 -6.18288124375001 -3.81420459687500 
 N -3.09299560625000 -6.46012724375001 -5.690059687500115E-002
 N -0.366684606250004 -2.85695324375000 -2.56393459687500 
 N -2.58085960625000 -2.32999824375000 -3.77656259687500 
 N -3.28130360625000 -2.83907224375000 3.008040312499882E-002
 S -0.530527606250004 -6.63190524375000 -4.01693159687500 
 S -3.73953860625000 -6.17269624375000 -1.57340259687500 
 S -1.51051060625000 -7.06815424375000 -1.061959687500114E-002
 S -1.01728360625000 -2.58499224375000 -4.13768859687500 
 S -4.02554360625000 -2.43246724375000 -1.39851659687500 
 S -1.61211560625000 -2.95321224375000 -0.114314596875001 
