16

 C -2.60796523437500 -6.33178396250000 -2.46199962500000 
 C -1.33179123437500 -6.60686596250000 -1.82157862500000 
 C -2.63337523437500 -2.98547796250000 -2.33592162500000 
 C -1.32196623437500 -3.37199196250000 -1.68489862500000 
 N -0.370716234375001 -6.77986096250000 -2.70573862500000 
 N -2.59273823437500 -6.20442796250000 -3.78393062500000 
 N -3.11497423437500 -6.51451596250000 6.124837499999947E-002
 N -0.270105234375001 -3.46341096250000 -2.50593862500000 
 N -2.53545223437500 -2.84615296250001 -3.65078962500000 
 N -3.08138523437500 -3.03801396250000 0.185684374999999 
 S -0.984960234375001 -6.55566996250000 -4.25231062500000 
 S -3.95392523437500 -6.17591196250000 -1.34569462500000 
 S -1.46873023437500 -6.78468396250000 -0.104373625000000 
 S -0.925541234375001 -3.13824096250000 -4.03472362500000 
 S -3.87538223437500 -2.64454996250000 -1.19600262500000 
 S -1.47502023437500 -3.47054696250000 5.097737499999933E-002
