16

 C -2.34548975937500 -6.44448576562500 -2.30364890312500 
 C -1.05755775937500 -6.84950676562500 -1.81278590312500 
 C -2.55216875937500 -2.68750576562500 -2.44180790312500 
 C -1.39200475937500 -3.26455376562500 -1.77030390312500 
 N -0.119024759375003 -6.95126076562500 -2.74161290312500 
 N -2.34476175937500 -6.18947576562500 -3.61586890312500 
 N -2.62371575937500 -6.76358376562500 0.247040096875003 
 N -0.389582759375004 -3.47297676562500 -2.59800290312500 
 N -2.39453275937500 -2.43499976562500 -3.73712090312500 
 N -3.31166075937500 -2.98374676562500 3.058509687500277E-002
 S -0.771290759375003 -6.41815676562500 -4.14899290312500 
 S -3.54251675937500 -6.35897276562500 -1.12093090312500 
 S -1.05428675937500 -7.17684376562500 -5.284990312499716E-002
 S -0.832175759375003 -2.97694176562500 -4.03705290312500 
 S -3.94595975937500 -2.40413676562500 -1.40723390312500 
 S -1.70212475937500 -3.35696576562500 -4.745990312499737E-002
