16

 C -2.69382495625000 -6.37358544375000 -2.35260862500000 
 C -1.46379195625000 -6.89426844375000 -1.73736262500000 
 C -2.51397295625000 -3.19145344375000 -2.42480962500000 
 C -1.18945495625000 -3.26784544375000 -1.79162962500000 
 N -0.499330956249996 -7.33353544375000 -2.57960962500000 
 N -2.62592495625000 -6.36430844375000 -3.65654962500000 
 N -3.19007495625000 -6.50327944375000 0.177667375000000 
 N -0.225995956249997 -3.27023844375000 -2.68431862500000 
 N -2.50453695625000 -3.07268344375000 -3.76313462500000 
 N -2.85808195625000 -3.05984844375000 0.171686375000000 
 S -1.09704695625000 -6.92798044375000 -4.08285662500000 
 S -3.98593595625000 -6.12651544375000 -1.24369262500000 
 S -1.59896195625000 -6.87451544375000 5.164137500000021E-002
 S -0.914152956249996 -3.19649844375000 -4.19466962500000 
 S -3.73102795625000 -3.17006944375000 -1.18544262500000 
 S -1.18586095625000 -3.24159344375000 -6.642462499999979E-002
