16

 C -2.78230674062500 -6.42048454687500 -2.75784931875000 
 C -1.53972274062500 -6.73441954687500 -2.07670431875000 
 C -2.40022674062500 -2.86206654687500 -2.39571831875000 
 C -1.07916174062500 -3.18958754687500 -1.82817031875000 
 N -0.438783740624998 -6.73282454687500 -2.83249931875000 
 N -2.58344774062500 -6.06576454687500 -4.01161131875000 
 N -3.35169174062500 -6.90353854687500 -0.205375318750000 
 N -0.107158740624997 -3.31040554687500 -2.72410331875000 
 N -2.40491074062500 -2.77250654687500 -3.72551731875000 
 N -2.77922674062500 -2.98978154687500 0.132492681250000 
 S -0.956164740624997 -6.27377954687500 -4.37902031875000 
 S -4.06716674062500 -6.25213454687500 -1.59824731875000 
 S -1.67135574062500 -7.03075454687500 -0.321275318750000 
 S -0.851968740624997 -2.98536354687500 -4.21632531875000 
 S -3.67795974062500 -2.65780654687500 -1.25123731875000 
 S -1.16499374062500 -3.26172954687500 -0.109390318750000 
