16

 C -2.56931183750000 -6.81931056562500 -2.34932620625000 
 C -1.29276583750000 -7.16500356562500 -1.74409820625000 
 C -2.34650883750000 -3.06370856562500 -2.35288720625000 
 C -1.12709383750000 -3.60279356562500 -1.78824620625000 
 N -0.272075837499996 -7.27300156562500 -2.62231820625000 
 N -2.55691183750000 -6.63558456562500 -3.67961720625000 
 N -2.93013783750000 -6.77120356562500 0.235762793750000 
 N -0.101061837499996 -3.76631256562500 -2.59277620625000 
 N -2.28887783750000 -2.94115156562500 -3.63776220625000 
 N -2.72642183750000 -3.34743056562500 0.206691793750000 
 S -1.01223983750000 -7.01283556562500 -4.12587820625000 
 S -3.83026683750000 -6.42319056562500 -1.13573220625000 
 S -1.32687383750000 -7.17576456562500 -1.105820624999998E-002
 S -0.764090837499996 -3.31905756562500 -4.13951720625000 
 S -3.55814683750000 -2.81468756562500 -1.14297220625000 
 S -1.18334183750000 -3.89563256562500 -0.114796206250000 
