16

 C -2.32011815625000 -6.46979697187500 -2.50524685937500 
 C -1.05382315625000 -6.79346397187500 -1.84084485937500 
 C -2.41569015625000 -3.27241497187500 -2.11026085937500 
 C -1.11795115625000 -3.37586597187500 -1.55561085937500 
 N -3.942815625000406E-002 -6.89226197187500 -2.70976985937500 
 N -2.23533215625000 -6.43971097187500 -3.81822485937500 
 N -2.95539915625000 -6.55266697187500 -1.288485937500150E-002
 N -0.185945156250004 -3.47975697187500 -2.48740085937500 
 N -2.50159815625000 -3.25994197187500 -3.42874885937500 
 N -2.77584815625000 -3.60558297187500 0.426965140624999 
 S -0.647941156250004 -6.69747697187500 -4.24850185937500 
 S -3.72412315625000 -6.24502297187500 -1.41443085937500 
 S -1.33936315625000 -6.82912297187500 -7.044585937500125E-002
 S -0.904456156250005 -3.36724297187500 -3.96347485937500 
 S -3.67761915625000 -3.35425897187500 -0.911925859375001 
 S -1.10281815625000 -3.65243397187500 0.194357140624999 
