16

 C -2.52168658750000 -6.58818471875000 -2.63127917812500 
 C -1.32331858750000 -7.12861571875000 -1.97092417812500 
 C -2.21613158750000 -2.47988371875000 -2.31904917812500 
 C -1.02000758750000 -3.12408671875000 -1.88457717812500 
 N -0.309388587500004 -7.20015271875000 -2.81028417812500 
 N -2.40598758750000 -6.36259471875000 -3.94199917812500 
 N -2.88479158750000 -6.61890371875000 -1.636017812500068E-002
 N -0.144366587500004 -3.38557071875000 -2.87262217812500 
 N -2.27235158750000 -2.15012871875000 -3.59676317812500 
 N -2.75638658750000 -3.18381571875000 9.670382187499937E-002
 S -0.839518587500004 -6.78865371875000 -4.31624517812500 
 S -3.72194958750000 -6.33588771875000 -1.43933417812500 
 S -1.41699158750000 -7.27350971875000 -0.261365178125001 
 S -0.797172587500004 -2.60523871875000 -4.28950117812500 
 S -3.55780758750000 -2.48188271875000 -1.17303117812500 
 S -1.20158058750000 -3.60831271875000 -0.203394178125001 
