16

 C -2.54091918125000 -6.37098881562500 -2.31266703125000 
 C -1.33035718125000 -6.89783481562500 -1.73346103125000 
 C -2.65077118125000 -3.06459181562500 -2.52129003125000 
 C -1.44113718125000 -3.37953381562500 -1.83242903125000 
 N -0.305392181250003 -7.12220681562500 -2.57003803125000 
 N -2.43642918125000 -6.22129881562500 -3.61650503125000 
 N -3.03921618125000 -6.63446781562500 9.927296874999825E-002
 N -0.382679181250003 -3.39952181562500 -2.61944903125000 
 N -2.52120318125000 -2.78052281562500 -3.83112703125000 
 N -3.11170418125000 -3.05544281562500 9.995796874999829E-002
 S -0.933169181250003 -6.64101381562500 -4.01968603125000 
 S -3.79019218125000 -6.14304481562500 -1.29428903125000 
 S -1.47545218125000 -7.01293781562500 -4.222003125000162E-002
 S -0.907459181250004 -3.17319881562500 -4.16254103125000 
 S -3.94094118125000 -3.02460281562500 -1.34397403125000 
 S -1.57617018125000 -3.59412481562500 -0.110317031250002 
