16

 C -2.37041880312501 -6.21372526875000 -2.21156548125000 
 C -1.21002180312500 -6.75934926875000 -1.57863848125000 
 C -2.29307180312501 -2.56664926875000 -2.14173548125000 
 C -1.11006680312501 -3.06458626875000 -1.53288048125000 
 N -0.103682803125006 -6.97925526875000 -2.29012848125000 
 N -2.14660780312501 -5.99904026875000 -3.49788048125000 
 N -2.98188780312501 -6.44521926875000 0.329542518749998 
 N -0.151776803125006 -3.16423226875000 -2.42990848125000 
 N -2.22368280312501 -2.19160826875000 -3.41302948125000 
 N -2.95992780312501 -3.11630426875000 0.225534518749998 
 S -0.515129803125006 -6.41863226875000 -3.85990248125000 
 S -3.73496780312501 -6.12710926875000 -1.12332348125000 
 S -1.48266780312501 -7.14548526875000 0.149762518749998 
 S -0.631805803125006 -2.48371426875000 -3.83743348125000 
 S -3.70652880312501 -2.44516926875000 -1.12961448125000 
 S -1.36616480312501 -3.70305426875000 9.387051874999797E-002
