16

 C -2.29338115624999 -6.93633455625001 -2.41296483437500 
 C -1.13311815624999 -7.31657355625001 -1.64887783437500 
 C -2.68997615624999 -2.69943555625001 -2.30569883437500 
 C -1.63316315624999 -3.54187955625001 -1.79082483437500 
 N -5.969915624999267E-002 -7.49666155625001 -2.41605183437500 
 N -2.14251515624999 -6.76514755625001 -3.73202383437500 
 N -2.94494615624999 -6.84530355625001 8.569516562500024E-002
 N -0.745388156249993 -3.98657555625001 -2.72004783437500 
 N -2.56434715624999 -2.53994055625001 -3.63906783437500 
 N -3.19442815624999 -2.93193655625001 0.184745165625000 
 S -0.556595156249993 -7.09968255625001 -3.98099283437500 
 S -3.69045415624999 -6.49444655625001 -1.41581783437500 
 S -1.47636615624999 -7.49824655625001 -1.691834374999646E-003
 S -1.20491815624999 -3.32606555625001 -4.13967383437500 
 S -3.83722515624999 -2.28377755625001 -1.16920083437500 
 S -1.79833815624999 -3.79239655625001 -4.938383437499971E-002
