16

 C -2.72647681875000 -6.68546427499999 -2.28315443125000 
 C -1.47061281875000 -7.14708127499999 -1.74312643125000 
 C -2.27042481875000 -2.94972327499999 -2.30403543125000 
 C -1.02285681875000 -3.41403327499999 -1.64241143125000 
 N -0.521545818750003 -7.47848427499999 -2.61294343125000 
 N -2.65568281875000 -6.54327527499999 -3.59235043125000 
 N -3.14775581875000 -6.98777927499999 0.273321568750000 
 N 2.266918124999862E-002 -3.53043527499999 -2.47606243125000 
 N -2.12489781875000 -2.78646927499999 -3.61349143125000 
 N -2.87006581875000 -3.20192527499999 0.197760568750000 
 S -1.12341381875000 -7.00424127499999 -4.10957943125000 
 S -3.90446681875000 -6.45260127499999 -1.07411843125000 
 S -1.55034381875000 -7.37493627499999 3.691256875000026E-002
 S -0.582533818750002 -3.24310927499999 -4.01672043125000 
 S -3.56514081875000 -2.60885427499999 -1.16144443125000 
 S -1.26681581875000 -3.65964527499999 3.612956875000028E-002
