16

 C -2.63668224062500 -6.23453693437500 -2.52828539062500 
 C -1.46986724062500 -6.73177493437500 -1.84664639062500 
 C -2.15073724062500 -2.96272893437500 -2.23455039062500 
 C -0.944418240625001 -3.39441193437500 -1.72153239062500 
 N -0.402486240625000 -7.03113793437500 -2.59106939062500 
 N -2.38246424062500 -6.03513793437500 -3.81658039062500 
 N -3.35386924062500 -6.50119393437500 -2.840639062499983E-002
 N 3.126075937499984E-002 -3.38622093437500 -2.61894339062500 
 N -2.13510824062500 -2.72533393437500 -3.53968839062500 
 N -2.60576324062500 -3.45923793437500 0.193971609375000 
 S -0.886337240625000 -6.61505593437500 -4.12496339062500 
 S -3.99711224062500 -5.92448093437500 -1.42532039062500 
 S -1.78078524062500 -6.99452193437500 -0.152114390625000 
 S -0.578824240625001 -2.81578893437500 -4.03172539062500 
 S -3.51304124062500 -2.98370693437500 -1.11497239062500 
 S -1.00899424062500 -3.77438893437500 -3.954739062499968E-002
