16

 C -2.48819897812500 -6.79630524687500 -2.19461203437500 
 C -1.17703697812500 -7.14144824687500 -1.66803903437500 
 C -2.59183897812500 -2.77191824687500 -2.37823203437500 
 C -1.43127197812500 -3.30370524687500 -1.83238003437500 
 N -0.237773978125000 -7.30531324687500 -2.58164903437500 
 N -2.49592597812500 -6.71922524687500 -3.52098303437500 
 N -2.78619597812500 -7.13229724687500 0.304946965624996 
 N -0.439537978125000 -3.41360424687500 -2.72320703437500 
 N -2.54429797812500 -2.52111424687500 -3.67685403437500 
 N -3.04846997812500 -3.08578324687500 7.374896562499611E-002
 S -0.931817978125000 -7.08930224687500 -4.08330703437500 
 S -3.78153397812500 -6.67462924687500 -0.991391034375004 
 S -1.12445297812500 -7.32084924687500 1.102496562499611E-002
 S -0.975962978125000 -2.93162924687500 -4.16164103437500 
 S -3.87683697812500 -2.55596124687500 -1.23663603437500 
 S -1.40676697812500 -3.44407324687500 -8.362003437500376E-002
