16

 C -2.46942019687500 -6.49281121562501 -2.50122587812500 
 C -1.25486319687500 -6.84331921562501 -1.85281087812500 
 C -2.60124219687500 -2.80212221562501 -2.42938887812500 
 C -1.41851619687500 -3.21056421562501 -1.71811487812500 
 N -0.103845196874997 -6.90149921562501 -2.51540587812500 
 N -2.21297819687500 -6.33216721562501 -3.81854687812500 
 N -2.97521819687500 -6.56857521562501 1.219112187500015E-002
 N -0.289022196874996 -3.33607121562501 -2.43913587812500 
 N -2.41015419687500 -2.64079021562500 -3.71590287812500 
 N -3.33356519687500 -3.10669921562500 -5.429487812499989E-002
 S -0.584988196874996 -6.56804021562501 -4.06110987812500 
 S -3.76788419687500 -6.31759421562501 -1.45330087812500 
 S -1.33272019687500 -6.82500021562501 -0.140512878125000 
 S -0.824578196874997 -2.87112021562501 -3.96909787812500 
 S -4.01653519687500 -2.48326421562501 -1.44665587812500 
 S -1.71016219687500 -3.40097921562501 -1.100787812499981E-002
