16

 C -2.31110047187501 -6.80274761562500 -2.38851137187500 
 C -1.14554147187501 -7.42625861562500 -1.85485637187500 
 C -2.68449647187501 -2.86858061562500 -2.62137737187500 
 C -1.49693247187501 -3.23446461562500 -1.83442237187500 
 N -0.139580471875006 -7.63705361562500 -2.76392937187500 
 N -2.18691147187501 -6.48491961562500 -3.64998637187500 
 N -2.89096347187501 -7.09761261562500 0.190162628124999 
 N -0.405719471875006 -3.27656361562500 -2.55081337187500 
 N -2.47114647187501 -2.77245961562500 -3.93661337187500 
 N -3.35433947187501 -2.70218861562500 -0.148545371875001 
 S -0.737911471875006 -7.03286061562500 -4.19212337187500 
 S -3.47754847187501 -6.39169061562500 -1.16227637187500 
 S -1.32964947187501 -7.61669461562500 -7.208837187500117E-002
 S -0.814785471875006 -3.14142561562500 -4.12679737187500 
 S -4.03522847187501 -2.42497261562500 -1.63136837187500 
 S -1.72227847187501 -3.21860561562500 -0.124319371875001 
