16

 C -2.67800628125000 -6.34039580000000 -2.34856558750000 
 C -1.48919928125000 -6.82591680000000 -1.72094058750000 
 C -2.36606328125000 -2.75927180000000 -2.48674458750000 
 C -1.16032828125000 -3.04223980000000 -1.75418258750000 
 N -0.470681281250005 -7.16717880000000 -2.52567958750000 
 N -2.51942028125000 -6.27880680000000 -3.67466258750000 
 N -3.16050028125000 -6.24564980000000 0.197865412499999 
 N -9.670728125000494E-002 -3.25455880000000 -2.49268858750000 
 N -2.18023728125000 -2.68884980000000 -3.81633058750000 
 N -3.03375028125001 -2.85554480000000 6.477741249999913E-002
 S -1.01686228125000 -6.80508280000000 -4.05566858750000 
 S -3.96547828125000 -5.99232980000000 -1.27101658750000 
 S -1.72919728125000 -6.96832780000000 1.656141249999910E-002
 S -0.595693281250004 -3.03183980000000 -4.14244458750000 
 S -3.67611428125000 -2.42095880000000 -1.41557258750000 
 S -1.43734028125000 -3.23919880000000 -8.560958750000069E-002
