16

 C -2.28888105624999 -6.38157798437499 -2.47014653750000 
 C -1.11982305624999 -6.75939298437499 -1.73679053750000 
 C -2.57306005624999 -2.67207198437499 -2.44322453750000 
 C -1.33940405624999 -2.91379098437499 -1.78327953750000 
 N -2.386405624999277E-002 -6.90882198437499 -2.51358553750000 
 N -2.15433805624999 -6.45387198437499 -3.76896053750000 
 N -3.07343405624999 -6.41540598437499 -3.501953749999909E-002
 N -0.307872056249992 -3.05009598437499 -2.57526953750000 
 N -2.43353505624999 -2.60314798437499 -3.74622153750000 
 N -3.21144105624999 -2.85393998437499 -2.630953749999909E-002
 S -0.614729056249993 -6.89077998437499 -4.10320353750000 
 S -3.71937405624999 -6.15385898437499 -1.54352353750000 
 S -1.44487005624999 -6.83056398437499 -2.460253749999919E-002
 S -0.818620056249992 -2.75893098437499 -4.15021653750000 
 S -3.98789405624999 -2.66408798437499 -1.47492453750000 
 S -1.57487305624999 -3.20344998437499 -0.106781537499999 
