16

 C -2.26588683750001 -6.24022963437500 -2.68631585312500 
 C -1.14605283750001 -6.72486463437500 -1.88475585312500 
 C -2.44937983750001 -2.82692763437500 -2.57711685312500 
 C -1.22759783750001 -3.07955063437500 -1.92092185312500 
 N -7.943083750000657E-002 -6.96140463437500 -2.65226185312500 
 N -2.01640983750001 -5.95390663437500 -3.97369685312500 
 N -3.05755183750001 -6.32459263437500 -0.200770853125001 
 N -0.104427837500007 -3.13088163437500 -2.66173685312500 
 N -2.33652983750001 -2.76275963437500 -3.91739185312500 
 N -3.11398483750001 -3.01602963437500 -6.964585312500127E-002
 S -0.435957837500006 -6.42681263437500 -4.16424685312500 
 S -3.61275383750001 -5.79972563437500 -1.67791585312500 
 S -1.46545583750001 -6.80288463437500 -0.209057853125001 
 S -0.707590837500006 -2.95584663437500 -4.18181285312500 
 S -3.85196083750001 -2.66747463437500 -1.50830285312500 
 S -1.41760783750001 -3.27485063437500 -0.153399853125001 
