16

 C -2.42149932187499 -6.65692610624999 -2.27710145937500 
 C -1.17656132187499 -7.01196210625000 -1.73433645937500 
 C -2.58583732187499 -3.18221010625000 -2.04531745937500 
 C -1.39222932187499 -3.49430510625000 -1.36758045937500 
 N -0.173882321874993 -7.09982210625000 -2.57738345937500 
 N -2.36532332187499 -6.50260810624999 -3.58713345937500 
 N -2.91692232187499 -6.87965110624999 0.183268540625001 
 N -0.334944321874993 -3.59697310624999 -2.14260845937500 
 N -2.50987032187499 -3.09516110624999 -3.35025145937500 
 N -3.25568932187499 -3.32006510625000 0.457371540625001 
 S -0.811560321874993 -6.65696510625000 -4.04561345937500 
 S -3.70670132187499 -6.45779310625000 -1.19926845937500 
 S -1.26599632187499 -7.18940710624999 -3.110745937499937E-002
 S -0.903316321874994 -3.24544910625000 -3.66606745937500 
 S -3.98724832187499 -3.17806610624999 -1.04182145937500 
 S -1.61836032187499 -3.58723310624999 0.332893540625000 
