16

 C -2.22263950937500 -6.37162245625000 -2.36074686250000 
 C -1.12433550937500 -6.91869945625000 -1.65985086250000 
 C -2.62646150937500 -2.74118445625000 -2.58344586250000 
 C -1.37876750937500 -3.01718445625000 -1.92076086250000 
 N -0.163303509374997 -7.22857545625000 -2.55195586250000 
 N -2.20580450937500 -6.26650645625000 -3.69024986250000 
 N -2.80218050937500 -6.16029845625000 0.105261137499999 
 N -0.356387509374998 -3.09068245625000 -2.73960786250000 
 N -2.50944550937500 -2.64162845625000 -3.88484486250000 
 N -3.11084150937500 -2.86799645625000 -0.111502862500001 
 S -0.681654509374997 -6.78294345625000 -4.06289586250000 
 S -3.59442550937500 -6.05311345625000 -1.35096486250000 
 S -1.26378450937500 -6.91793445625000 2.767013749999947E-002
 S -0.922636509374998 -2.95521845625000 -4.29351286250000 
 S -3.90500250937500 -2.44311945625000 -1.51507386250000 
 S -1.52382250937500 -3.15766545625000 -0.231137862500000 
