16

 C -2.39153067812500 -6.26523875000000 -2.19069239062500 
 C -1.20285967812500 -6.90129675000000 -1.68284539062500 
 C -2.43152767812500 -2.73982375000000 -2.60023239062500 
 C -1.17339767812500 -3.02096975000000 -1.96533239062500 
 N -0.183127678125001 -7.00983875000000 -2.49119439062500 
 N -2.21112367812500 -5.97440375000000 -3.46145839062500 
 N -2.87184967812500 -6.92655275000000 0.194139609374999 
 N -0.169745678125001 -3.00140675000000 -2.80943339062500 
 N -2.36445067812500 -2.52745275000000 -3.90734339062500 
 N -2.95370667812500 -3.10206875000000 -5.586839062500104E-002
 S -0.684139678125002 -6.36321075000000 -3.95364539062500 
 S -3.68696667812500 -6.11878875000000 -1.12017339062500 
 S -1.23626667812500 -7.05689275000000 2.514160937499899E-002
 S -0.760824678125002 -2.60540875000000 -4.25098239062500 
 S -3.79113067812500 -2.82879375000000 -1.45554339062500 
 S -1.31891367812500 -3.39919775000000 -0.335216390625001 
