16

 C -2.42567223124999 -6.44536845625000 -2.19533299375000 
 C -1.22207023124999 -6.98556845625000 -1.61248999375000 
 C -2.19099923124999 -2.51838545625000 -2.57710399375000 
 C -1.03499723124999 -2.93771445625000 -1.85530299375000 
 N -0.182289231249994 -7.06260545625000 -2.46278099375000 
 N -2.37517723124999 -6.13387545625000 -3.49163399375000 
 N -2.86966723124999 -6.78088345625000 0.304679006249997 
 N -1.111223124999405E-002 -3.28006645625000 -2.60361099375000 
 N -1.98278323124999 -2.47344845625000 -3.87658399375000 
 N -2.98032623124999 -2.92747445625000 -0.165322993750003 
 S -0.827335231249995 -6.69228445625000 -3.92997099375000 
 S -3.73204723124999 -6.41370545625000 -1.00627999375000 
 S -1.32631023124999 -7.40117345625000 4.095500624999682E-002
 S -0.399962231249995 -2.89570845625000 -4.20176299375000 
 S -3.61212323124999 -2.34342045625000 -1.61188899375000 
 S -1.33294723124999 -3.09160945625000 -0.127824993750003 
