16

 C -2.49549428437500 -6.58545202812500 -2.12578712812500 
 C -1.27598328437500 -7.17577202812500 -1.71034812812500 
 C -2.45980228437500 -2.80019602812500 -2.46471012812500 
 C -1.28839328437500 -3.31535702812500 -1.81217612812500 
 N -0.282934284375004 -7.19049002812500 -2.62221712812500 
 N -2.53460228437500 -6.31205202812500 -3.41715512812500 
 N -2.85842728437500 -7.02306502812500 0.380990871875001 
 N -0.210896284375004 -3.55931402812500 -2.59158712812500 
 N -2.34476428437500 -2.69624702812500 -3.79165412812500 
 N -3.17357428437500 -3.07913502812500 -8.012812499957889E-005
 S -1.00742828437500 -6.59434902812500 -4.01253912812500 
 S -3.63673628437500 -6.37733702812500 -0.894544128125000 
 S -1.27974428437500 -7.49180502812500 5.817787187500056E-002
 S -0.804061284375004 -3.16389602812500 -4.11699812812500 
 S -3.75011428437500 -2.30628702812500 -1.36717212812500 
 S -1.58648528437500 -3.60052002812500 -0.112429128124999 
