16

 C -2.19700385937500 -6.56661883125000 -2.46265680937500 
 C -1.03473485937500 -7.13087583125000 -1.85123880937500 
 C -2.54882585937500 -2.34622483125000 -2.38520980937500 
 C -1.42169985937500 -2.90213683125000 -1.79517080937500 
 N 3.114614062500021E-002 -7.31307183125000 -2.62093780937500 
 N -2.00056385937500 -6.40055683125000 -3.76014480937500 
 N -2.70142985937500 -6.58297783125000 8.951319062500107E-002
 N -0.444904859375000 -3.26189583125000 -2.64599280937500 
 N -2.53093485937500 -2.32498283125000 -3.73311280937500 
 N -3.23778085937500 -2.67017483125000 5.903019062500103E-002
 S -0.463461859375000 -6.86176583125000 -4.13551780937500 
 S -3.47442285937500 -6.12700383125000 -1.31102280937500 
 S -1.17283985937500 -7.27375783125000 -0.106257809374999 
 S -1.04733285937500 -2.82977783125000 -4.14566480937500 
 S -3.90268585937500 -1.98474183125000 -1.27872380937500 
 S -1.64474085937500 -3.14125783125000 -7.590680937499883E-002
