16

 C -2.49380834374999 -6.39836475000000 -2.38571863750000 
 C -1.34647734374999 -7.03753875000000 -1.80495063750000 
 C -2.61430034374999 -2.80948775000000 -2.41000463750000 
 C -1.54945834374999 -3.38342975000000 -1.71331063750000 
 N -0.379475343749990 -7.36235475000000 -2.67031663750000 
 N -2.40987234374999 -6.26435575000000 -3.69402263750000 
 N -3.03341234374999 -6.60170075000000 0.135591362500000 
 N -0.528598343749989 -3.67674175000000 -2.52748063750000 
 N -2.42140834374999 -2.60814175000000 -3.71843063750000 
 N -3.19567534374999 -2.69074275000000 7.121336249999954E-002
 S -0.955502343749989 -6.94623275000000 -4.20257863750000 
 S -3.82432934374999 -6.11220475000000 -1.29822263750000 
 S -1.54820634374999 -7.28685375000000 -1.714563750000031E-002
 S -0.871205343749989 -3.12671775000000 -4.05140263750000 
 S -3.92889434374999 -2.40168375000000 -1.36815863750000 
 S -1.65221234374999 -3.34704875000000 4.217836249999962E-002
