16

 C -2.58744149062500 -6.30916040000000 -2.34071770937500 
 C -1.42507649062500 -6.84394340000000 -1.68174470937500 
 C -2.54387949062500 -3.09633440000000 -2.40519870937500 
 C -1.27253849062500 -3.27893240000000 -1.81086270937500 
 N -0.551873490624997 -7.33116640000000 -2.56989770937500 
 N -2.55739249062500 -6.32058740000000 -3.70369470937500 
 N -3.19455349062500 -6.44814640000000 0.152180290624998 
 N -0.199947490624997 -3.34820540000000 -2.60845770937500 
 N -2.47053649062500 -3.08651940000000 -3.74299070937500 
 N -2.83724149062500 -3.04806340000000 0.184131290624998 
 S -1.12863049062500 -6.97275740000000 -4.06573170937500 
 S -3.99208349062500 -6.07798140000000 -1.29756170937500 
 S -1.58766849062500 -6.86099040000000 3.482029062499792E-002
 S -0.887316490624997 -3.17858640000000 -4.16861070937500 
 S -3.73501849062500 -3.21811140000000 -1.18191870937500 
 S -1.22491049062500 -3.23061740000000 -5.797370937500212E-002
