16

 C -2.39386102187499 -6.54885701875000 -2.33608795625000 
 C -1.19756702187499 -7.18766801875000 -1.83615595625000 
 C -2.63605302187499 -2.82746101875000 -2.55557695625000 
 C -1.45940602187499 -3.20851901875000 -1.79809695625000 
 N -0.238993021874994 -7.46882301875000 -2.68127395625000 
 N -2.28707302187499 -6.38812101875000 -3.67655295625000 
 N -2.81232002187499 -7.05431301875000 0.100236043749999 
 N -0.440420021874994 -3.53653501875000 -2.62048595625000 
 N -2.49030202187499 -2.71536601875000 -3.86111795625000 
 N -3.39343902187499 -2.68672101875000 -0.135036956250001 
 S -0.824537021874994 -6.93570101875000 -4.11188095625000 
 S -3.67542802187499 -6.38933501875000 -1.23958495625000 
 S -1.26234102187499 -7.75302401875000 -0.135421956250001 
 S -0.844756021874994 -3.10714401875000 -4.16832195625000 
 S -4.09416302187499 -2.55851401875000 -1.61726795625000 
 S -1.86518902187499 -3.35635201875000 -0.130129956250000 
