16

 C -2.56382583437501 -6.58769172499999 -2.46442315312500 
 C -1.29724383437501 -6.92406072499999 -1.85243215312500 
 C -2.26389883437500 -3.20726972499999 -2.19949615312500 
 C -1.11532383437500 -3.66027572499999 -1.56263715312500 
 N -0.290264834375005 -7.10320672499999 -2.73308315312500 
 N -2.53083883437500 -6.64261472499999 -3.79416615312500 
 N -3.07348683437500 -6.65813972499999 3.172684687500005E-002
 N -2.368883437500546E-002 -3.75392872499999 -2.33921415312500 
 N -2.09595383437501 -2.88729072499999 -3.47426115312500 
 N -2.91482683437501 -3.41673172499999 0.285874846875000 
 S -0.953973834375005 -6.88540472499999 -4.23869615312500 
 S -3.84604483437500 -6.46826172499999 -1.38542915312500 
 S -1.42975583437500 -6.89078572499999 -4.707715312500027E-002
 S -0.521914834375005 -3.29471372499999 -3.86961115312500 
 S -3.66653583437501 -3.03772972499999 -1.17002815312500 
 S -1.33181383437501 -3.82752872499999 0.143942846875000 
