16

 C -2.48807567187500 -6.22559008124999 -2.51783742812500 
 C -1.32619067187500 -6.82694608124999 -1.85986242812500 
 C -2.68799067187500 -2.65057008124999 -2.46526042812500 
 C -1.54813467187500 -3.12383508124999 -1.71981542812500 
 N -0.326244671875001 -7.06175508124999 -2.69910542812500 
 N -2.39522567187500 -6.05293208124999 -3.83839242812500 
 N -3.19755767187500 -6.61080308124999 -4.891742812499933E-002
 N -0.425171671875001 -3.31060308124999 -2.40496342812500 
 N -2.39689967187500 -2.42596608124999 -3.74162942812500 
 N -3.46076067187500 -2.85041108124999 -4.870442812499931E-002
 S -0.873026671875001 -6.48835008124999 -4.19346242812500 
 S -3.87664167187500 -5.96765908124999 -1.44920342812500 
 S -1.72036467187500 -7.28057608124999 -0.205289428124999 
 S -0.858735671875001 -2.85241908124999 -4.01731342812500 
 S -4.08530567187500 -2.30372408124999 -1.47921642812500 
 S -1.85932467187500 -3.42783108124999 -5.614342812499906E-002
