16

 C -2.62404325937500 -6.31950679375000 -2.53756866562500 
 C -1.42239025937500 -6.74071379375000 -1.88801466562500 
 C -2.70057225937500 -2.66506779375000 -2.48393766562500 
 C -1.51087025937500 -3.24876979375000 -1.88462866562500 
 N -0.408961259374998 -6.94948879375000 -2.70188766562500 
 N -2.48346225937500 -6.11644079375000 -3.86366266562500 
 N -3.22793525937500 -6.70954379375000 -7.425866562499994E-002
 N -0.514314259374999 -3.35009279375000 -2.71744966562500 
 N -2.57590525937500 -2.31954479375000 -3.75560866562500 
 N -3.36104525937500 -2.89628479375000 -5.211266562500017E-002
 S -0.835016259374998 -6.41284479375000 -4.20833966562500 
 S -3.97841425937500 -6.18032879375000 -1.43194066562500 
 S -1.57581625937500 -6.96680779375000 -0.235862665625000 
 S -1.01211625937500 -2.77260779375000 -4.14426266562500 
 S -4.11490525937500 -2.51173879375000 -1.51450466562500 
 S -1.78285125937500 -3.42120879375000 -0.124702665625000 
