16

 C -2.55700008125000 -6.24991734375000 -2.46041662187500 
 C -1.28245108125000 -6.58988134375000 -1.86569762187500 
 C -2.41049608125000 -2.92805534375000 -2.52330762187500 
 C -1.16007808125000 -3.14312434375000 -1.79557362187500 
 N -0.236323081250003 -6.66030534375000 -2.72735862187500 
 N -2.49471208125000 -6.13673134375000 -3.78766662187500 
 N -3.05262408125000 -6.53258834375000 3.197737812500012E-002
 N -8.737408125000279E-002 -3.39313734375000 -2.55724462187500 
 N -2.30480008125000 -2.95682834375000 -3.86973662187500 
 N -3.02799708125000 -2.76322734375000 -8.857262187499981E-002
 S -0.907925081250003 -6.47011834375000 -4.24281162187500 
 S -3.76405308125000 -6.03249834375000 -1.33379662187500 
 S -1.43540808125000 -6.79788134375000 -0.142014621875000 
 S -0.736978081250003 -3.41800934375000 -4.13125062187500 
 S -3.78772408125000 -2.68747934375000 -1.51391962187500 
 S -1.43684408125000 -3.14708334375000 -0.164305621875000 
