16

 C -2.61016087500000 -6.50535909375000 -2.14789345625000 
 C -1.43408087500000 -7.18983909375000 -1.69044645625000 
 C -2.31786087500000 -2.74719409375000 -2.41154545625000 
 C -1.17403687500000 -3.36640809375000 -1.82002845625000 
 N -0.513457875000002 -7.49446009375000 -2.58502245625000 
 N -2.60784387500000 -6.31666309375000 -3.47557145625000 
 N -2.87529087500000 -6.91174509375000 0.500984543750002 
 N -0.155179875000002 -3.61448409375000 -2.65186145625000 
 N -2.22175787500000 -2.47481309375000 -3.70841245625000 
 N -2.87782587500000 -2.91194309375000 0.129922543750002 
 S -1.10456887500000 -6.89889209375000 -4.01182145625000 
 S -3.79017587500000 -6.50694009375000 -0.822312456249998 
 S -1.42437187500000 -7.56584209375000 5.627754375000160E-002
 S -0.749635875000002 -3.16892909375000 -4.14637745625000 
 S -3.67880987500000 -2.46015709375000 -1.25435545625000 
 S -1.31896287500000 -3.48369309375000 -6.885245624999814E-002
