16

 C -2.35599802812500 -6.39993443125000 -2.43199130312500 
 C -1.14579102812500 -6.81724743125000 -1.75005230312500 
 C -2.46800602812500 -3.28389343125000 -2.11226530312500 
 C -1.10731902812500 -3.35276743125000 -1.64865330312500 
 N -0.101276028124998 -6.91312143125000 -2.58076230312500 
 N -2.23470102812500 -6.34080243125000 -3.77652330312500 
 N -2.85566402812500 -6.59118043125000 6.182669687499831E-002
 N -0.207059028124998 -3.29058943125000 -2.61256130312500 
 N -2.56099902812500 -3.20139643125000 -3.42926730312500 
 N -2.57560902812500 -3.39792743125000 0.457907696874998 
 S -0.645556028124997 -6.60238043125000 -4.11799630312500 
 S -3.73149102812500 -6.26395043125000 -1.30730730312500 
 S -1.26338302812500 -6.99779743125000 -9.184530312500172E-002
 S -1.03115002812500 -3.20829543125000 -4.07507430312500 
 S -3.60200802812500 -3.27351343125000 -0.850826303125002 
 S -0.969895028124998 -3.49272243125000 6.399969687499829E-002
