16

 C -2.39875077187501 -6.64464490625000 -2.37524144375000 
 C -1.15855477187501 -6.95654790625000 -1.69689844375000 
 C -2.36131677187501 -2.81953190625000 -2.43340144375000 
 C -1.20938277187501 -3.09596090625000 -1.70133644375000 
 N -0.134108771875007 -6.96081790625000 -2.52443244375000 
 N -2.33270377187501 -6.43591990625000 -3.68320744375000 
 N -2.90806377187501 -7.09795490625000 7.960355624999926E-002
 N -9.127477187500688E-002 -3.28504790625000 -2.36831844375000 
 N -2.14321777187501 -2.78512490625000 -3.73071244375000 
 N -3.11684177187501 -2.75966990625000 -1.703344375000082E-002
 S -0.672948771875006 -6.57650090625000 -4.00689544375000 
 S -3.68368277187501 -6.60217690625000 -1.22994944375000 
 S -1.27096377187501 -7.29558290625000 -3.853844375000071E-002
 S -0.570100771875007 -3.05415390625000 -3.96072644375000 
 S -3.75698377187501 -2.49431390625000 -1.49668044375000 
 S -1.47957877187501 -3.17242090625000 -2.365744375000078E-002
