16

 C -2.23453895000001 -6.27682621562499 -2.39252163750000 
 C -1.04762595000001 -6.82289621562499 -1.79099263750000 
 C -2.53035995000001 -2.98715821562499 -2.46418163750000 
 C -1.32066995000001 -3.12443521562499 -1.71965663750000 
 N -3.760695000000602E-002 -6.95135221562499 -2.64987763750000 
 N -2.17558695000001 -6.19794021562499 -3.71232363750000 
 N -2.85491195000001 -6.81402521562499 6.581936250000076E-002
 N -0.212157950000006 -3.24624721562499 -2.48659863750000 
 N -2.40099195000001 -3.01102021562499 -3.81459263750000 
 N -3.13465595000001 -2.72248521562499 5.923236250000063E-002
 S -0.640287950000006 -6.64572221562499 -4.22986763750000 
 S -3.60051595000001 -6.12876221562499 -1.30895763750000 
 S -1.30657895000001 -7.25276621562499 -9.658963749999927E-002
 S -0.767318950000006 -3.09169321562499 -4.06585063750000 
 S -3.82766295000001 -2.69449421562499 -1.44564863750000 
 S -1.51277595000001 -3.03476621562499 2.151736250000069E-002
