16

 C -2.49496041250000 -6.66825439062500 -2.33021920625000 
 C -1.21335841250000 -6.98751039062500 -1.79111920625000 
 C -2.18892741250000 -3.15538739062500 -2.31330320625000 
 C -1.00974741250000 -3.68622439062500 -1.65406120625000 
 N -0.205537412500001 -7.25640639062500 -2.66959020625000 
 N -2.52490941250000 -6.62739439062500 -3.66890620625000 
 N -2.89074941250000 -6.76444639062500 0.207110793749999 
 N 2.127587499999528E-003 -3.91382139062500 -2.48113120625000 
 N -2.10690641250000 -2.98702439062500 -3.61405220625000 
 N -2.74853941250000 -3.35496239062500 0.251040793749999 
 S -0.992370412500001 -7.00802039062500 -4.14564120625000 
 S -3.74676841250000 -6.38329839062500 -1.13827020625000 
 S -1.22452841250000 -7.06090339062500 -2.512120625000058E-002
 S -0.609663412500001 -3.49700439062500 -4.05629220625000 
 S -3.52032841250000 -2.98018239062500 -1.18395320625000 
 S -1.15644041250000 -3.74416739062500 9.008879374999923E-002
