16

 C -2.39588137187500 -6.50316884687500 -2.10506520312500 
 C -1.15312237187500 -6.96538584687500 -1.59677820312500 
 C -2.25361237187500 -2.75726884687500 -2.65146520312500 
 C -1.09883137187500 -3.11479884687500 -1.91445820312500 
 N -0.131096371874996 -6.98970884687500 -2.45886020312500 
 N -2.26787337187500 -6.06806084687500 -3.34889620312500 
 N -2.89295337187500 -7.06567384687500 0.275700796874997 
 N -4.205037187499627E-002 -3.29051184687500 -2.68231220312500 
 N -2.08583037187500 -2.71998284687500 -3.97559620312500 
 N -2.84676337187500 -2.53652684687500 -0.129316203125003 
 S -0.749998371874996 -6.32473984687500 -3.84923820312500 
 S -3.64613237187500 -6.37213484687500 -1.05898620312500 
 S -1.28228437187500 -7.41198484687500 0.100933796874997 
 S -0.468755371874996 -3.05738184687500 -4.29630220312500 
 S -3.57101637187500 -2.32899984687500 -1.64491220312500 
 S -1.32059737187500 -3.23700084687500 -0.163974203125003 
