16

 C -2.39952787500000 -6.53222070625000 -2.57189763125000 
 C -1.25888187500000 -7.12663170625000 -1.88509863125000 
 C -2.43834387500000 -2.87820470625000 -2.38295763125000 
 C -1.19175887500000 -3.21739670625000 -1.70609263125000 
 N -0.168751874999996 -7.43691170625000 -2.61473863125000 
 N -2.08100687500000 -6.30579370625000 -3.85148963125000 
 N -3.02924887500000 -6.77170070625000 -2.641563125000235E-002
 N -0.198389874999997 -3.41845770625000 -2.51998063125000 
 N -2.37959187500000 -2.74925470625000 -3.70015263125000 
 N -3.06630987500000 -3.00667570625000 7.868736874999760E-002
 S -0.628287874999996 -7.01459770625000 -4.16612963125000 
 S -3.68646687500000 -6.13609970625000 -1.43968163125000 
 S -1.45138287500000 -7.29116870625000 -0.144042631250002 
 S -0.840267874999997 -3.14501470625000 -4.11545963125000 
 S -3.78435587500000 -2.55476770625000 -1.33876263125000 
 S -1.39696187500000 -3.36422470625000 2.998836874999755E-002
