16

 C -2.50464565000000 -6.36356084375000 -2.53574620937500 
 C -1.33929465000000 -6.98692484375000 -1.98855920937500 
 C -2.37359465000000 -2.60688484375000 -2.44376820937500 
 C -1.22454165000000 -3.14092484375000 -1.77807320937500 
 N -0.263626649999998 -7.08452384375000 -2.77177220937500 
 N -2.29502965000000 -6.02067684375000 -3.81724520937500 
 N -3.21134665000000 -6.76511684375000 -6.853820937499844E-002
 N -0.266364649999998 -3.55246684375000 -2.60954120937500 
 N -2.26026965000000 -2.48025684375000 -3.75319320937500 
 N -3.01174565000000 -2.64978284375000 3.132479062500160E-002
 S -0.783472649999998 -6.46649984375000 -4.19812420937500 
 S -3.80464065000000 -6.11039284375000 -1.45496820937500 
 S -1.60040665000000 -7.29674484375000 -0.207451209374999 
 S -0.738688649999999 -2.99839584375000 -4.18673820937500 
 S -3.73551365000000 -2.15829184375000 -1.35409420937500 
 S -1.50671265000000 -3.46539284375000 -0.112270209374998 
