16

 C -2.73437730937500 -6.39124157812501 -2.61641388437500 
 C -1.51398830937500 -6.83658257812501 -2.02198688437500 
 C -2.37596530937500 -2.90909157812501 -2.42844288437500 
 C -1.03617630937500 -3.21553457812501 -1.79505488437500 
 N -0.388894309375001 -6.89165257812501 -2.74035788437500 
 N -2.56806130937500 -6.13636457812501 -3.91818988437500 
 N -3.31196130937500 -6.66338057812501 -0.182336884374999 
 N -4.531430937500147E-002 -3.29670357812501 -2.70747688437500 
 N -2.36718330937500 -2.74689257812501 -3.76971188437500 
 N -2.68419330937500 -3.00604657812501 0.145276115625001 
 S -0.955398309375001 -6.37543457812501 -4.23454388437500 
 S -4.10791330937500 -6.34960857812501 -1.62280188437500 
 S -1.74524430937500 -7.20997557812501 -0.348968884374999 
 S -0.789652309375001 -3.03882357812501 -4.17870588437500 
 S -3.60301130937500 -2.67598757812501 -1.20536688437500 
 S -1.13699230937500 -3.46593757812501 -4.315188437499939E-002
