16

 C -2.45849985312500 -6.50911336562500 -2.44203497187500 
 C -1.22104285312500 -6.69949936562500 -1.74647497187500 
 C -2.64626585312500 -2.83146836562500 -2.50672597187500 
 C -1.42078285312500 -3.29793836562500 -1.88269997187500 
 N -0.165578853125004 -6.90305236562500 -2.51851297187500 
 N -2.29808585312500 -6.54605636562500 -3.76617597187500 
 N -3.01917985312500 -6.44594936562500 0.111838028124999 
 N -0.365901853125004 -3.44170936562500 -2.70958097187500 
 N -2.49214485312500 -2.63722536562500 -3.82005097187500 
 N -3.18466485312500 -2.89523836562500 3.540281249991839E-004
 S -0.708033853125004 -6.81590836562500 -4.08018297187500 
 S -3.79055585312500 -6.23927436562500 -1.33910597187500 
 S -1.44888585312500 -6.90068036562500 -3.332497187500083E-002
 S -0.975623853125004 -3.08642936562500 -4.21429697187500 
 S -3.95128685312500 -2.43633136562500 -1.42726597187500 
 S -1.58712485312500 -3.40759936562500 -0.150785971875001 
