16

 C -2.40321032500001 -6.27147839375000 -2.49510957500000 
 C -1.24210032500001 -6.64057039375000 -1.73593757500000 
 C -2.28773332500000 -2.93923039375000 -2.43129157500000 
 C -0.964416325000006 -3.22077839375000 -1.85283557500000 
 N -0.179634325000006 -6.71947039375000 -2.53043857500000 
 N -2.23764232500001 -6.21451139375000 -3.80940957500000 
 N -3.06463332500001 -6.46868439375000 6.101442500000065E-002
 N 4.655167499999457E-002 -3.26738839375000 -2.68629357500000 
 N -2.21413832500000 -2.70288739375000 -3.72207957500000 
 N -2.72524632500000 -3.24368539375000 6.009242500000078E-002
 S -0.662778325000005 -6.63176439375000 -4.13277757500000 
 S -3.77467732500001 -6.09218339375000 -1.39468657500000 
 S -1.48192132500001 -6.75774939375000 -1.540157499999917E-002
 S -0.643274325000005 -3.03656839375000 -4.19130857500000 
 S -3.53408232500001 -2.87058139375000 -1.30481057500000 
 S -1.11313032500001 -3.50611039375000 -0.161917574999999 
