16

 C -2.21170610625000 -6.39901770312500 -2.18162654375000 
 C -1.05417410625000 -6.98488770312500 -1.55073054375000 
 C -2.43862210625000 -2.69584070312500 -2.30025154375000 
 C -1.19834910625000 -3.28460870312500 -1.73317954375000 
 N -3.248210624999803E-002 -7.22888370312500 -2.35550054375000 
 N -2.10775310625000 -6.17664870312500 -3.49901554375000 
 N -2.75979710625000 -6.80478870312500 0.321343456249998 
 N -0.221586106249998 -3.50733670312500 -2.60890854375000 
 N -2.29148610625000 -2.28819270312500 -3.55999354375000 
 N -2.93616410625000 -3.15834870312500 0.207541456249998 
 S -0.570821106249999 -6.78746670312500 -3.86859454375000 
 S -3.63773810625000 -6.40892970312500 -1.08489254375000 
 S -1.16688710625000 -7.27285270312500 0.148537456249998 
 S -0.795665106249999 -2.78956270312500 -4.04246554375000 
 S -3.70606510625000 -2.58154170312500 -1.18136654375000 
 S -1.33975210625000 -3.60734970312500 5.233456249997825E-003
