16

 C -2.56380249062500 -6.79946162500000 -2.35287574375000 
 C -1.25855749062500 -7.16486962500000 -1.73651574375000 
 C -2.30952549062500 -3.06357562500000 -2.35184274375000 
 C -1.10941749062500 -3.63172162500000 -1.77554674375000 
 N -0.282732490624999 -7.26719562500000 -2.64187774375000 
 N -2.56558049062500 -6.65774462500000 -3.67311574375000 
 N -2.93797249062500 -6.76259962500000 0.224496256250001 
 N -8.418449062499977E-002 -3.78242362500000 -2.61481674375000 
 N -2.27749149062500 -2.95072662500000 -3.66026474375000 
 N -2.72092349062500 -3.36444962500000 0.223284256250001 
 S -1.01722649062500 -7.00529362500000 -4.12554874375000 
 S -3.79773949062500 -6.41726862500000 -1.13884074375000 
 S -1.31383649062500 -7.16885162500000 3.582562500006325E-004
 S -0.737327490625000 -3.34287262500000 -4.10558974375000 
 S -3.57280049062500 -2.82228662500000 -1.14499574375000 
 S -1.16983249062500 -3.88564562500000 -9.706074374999929E-002
