16

 C -2.48884394687500 -6.66125460937500 -2.10739608125000 
 C -1.21483294687500 -7.24824560937500 -1.64096208125000 
 C -2.43526594687500 -2.71220860937500 -2.47300008125000 
 C -1.25402594687500 -3.26881460937500 -1.81182708125000 
 N -0.313072946875001 -7.23759660937500 -2.61445808125000 
 N -2.55988194687500 -6.27847960937500 -3.38593508125000 
 N -2.83000794687500 -6.97191960937500 0.414375918750000 
 N -0.238435946875001 -3.57639160937500 -2.61197708125000 
 N -2.37437494687500 -2.70108460937500 -3.80724408125000 
 N -3.08855294687500 -3.00893160937500 9.707918749999545E-003
 S -1.07238394687500 -6.66022060937500 -3.98384208125000 
 S -3.72342294687500 -6.36687160937500 -0.917152081250000 
 S -1.26243594687500 -7.54795560937500 4.767791874999960E-002
 S -0.792391946875001 -3.15842160937500 -4.10608108125000 
 S -3.71344494687500 -2.34940560937500 -1.35976308125000 
 S -1.52850294687500 -3.59726760937500 -0.117679081250000 
