16

 C -2.33890783750001 -6.65917120000000 -2.49197639687500 
 C -1.13339583750001 -7.11007820000000 -1.84961739687500 
 C -2.36996683750001 -2.97680920000000 -2.48228239687500 
 C -1.23962583750001 -3.47441520000000 -1.84794139687500 
 N -0.117109837500006 -7.11297720000000 -2.67679139687500 
 N -2.22139583750001 -6.26697820000000 -3.74437939687500 
 N -2.91592183750001 -6.95658220000000 -1.055439687500059E-002
 N -0.201979837500007 -3.66379820000000 -2.60711439687500 
 N -2.20115883750001 -2.75761820000000 -3.77952039687500 
 N -3.04976283750001 -3.22067520000000 -5.870439687500051E-002
 S -0.620341837500007 -6.59349720000000 -4.15157939687500 
 S -3.66321783750001 -6.58217920000000 -1.44254639687500 
 S -1.31930583750001 -7.36603220000000 -0.178507396875001 
 S -0.662839837500006 -3.25419220000000 -4.11781939687500 
 S -3.72898383750001 -2.64851020000000 -1.48000239687500 
 S -1.48541183750001 -3.72153020000000 -0.153703396875001 
