16

 C -2.47709030000000 -6.84108785625001 -2.37884473750000 
 C -1.19074730000000 -7.03451485625001 -1.77402973750000 
 C -2.15653030000000 -2.84074985625001 -2.45295473750000 
 C -1.02526330000000 -3.30974385625001 -1.71955673750000 
 N -0.144062299999999 -6.88152185625001 -2.60734073750000 
 N -2.43759930000000 -6.47361185625001 -3.66291273750000 
 N -3.09526430000000 -7.11196185625001 0.130018262500000 
 N 7.321770000000072E-002 -3.52241985625001 -2.43982873750000 
 N -1.96702530000000 -2.83036485625001 -3.77203373750000 
 N -2.85991030000000 -3.03474085625001 4.411826250000006E-002
 S -0.823647299999999 -6.51183085625001 -4.10714273750000 
 S -3.84122530000000 -6.86475685625001 -1.29452773750000 
 S -1.38665530000000 -7.19843185625001 1.218226250000010E-002
 S -0.372886299999999 -3.18614685625001 -3.99686773750000 
 S -3.56308730000000 -2.64674885625001 -1.39786873750000 
 S -1.27279830000000 -3.54771585625001 -6.427273749999984E-002
