16

 C -2.57587328125000 -6.55078728437500 -2.51483334687500 
 C -1.29693128125000 -6.90558028437500 -1.99821434687500 
 C -2.59051128125000 -2.73580228437500 -2.21359234687500 
 C -1.39019228125000 -3.19765028437500 -1.59639134687500 
 N -0.416577281250001 -7.12127828437500 -2.91878634687500 
 N -2.62116928125000 -6.40307228437500 -3.81066334687500 
 N -2.78582728125000 -6.62370028437500 8.472965312500036E-002
 N -0.396127281250001 -3.41582328437500 -2.45713634687500 
 N -2.47985128125000 -2.60928828437500 -3.51209734687500 
 N -3.20011228125000 -3.06572128437500 0.247830653125000 
 S -1.07038228125000 -6.74262828437500 -4.38281434687500 
 S -3.77825528125000 -6.41294728437500 -1.30469734687500 
 S -1.28880128125000 -7.06462328437500 -0.335458346875000 
 S -0.965323281250001 -3.11735328437500 -3.97810034687500 
 S -4.00520928125000 -2.56707028437500 -1.18314634687500 
 S -1.62676928125000 -3.61507328437500 0.117215653125000 
