16

 C -2.50093645937499 -6.70191983125000 -2.30825429687500 
 C -1.25052245937499 -7.05325283125000 -1.73379429687500 
 C -2.29828545937499 -3.15929983125000 -2.32717029687500 
 C -1.05179145937499 -3.61315983125000 -1.72326229687500 
 N -0.325960459374994 -7.28324683125000 -2.66910729687500 
 N -2.56875245937499 -6.72617683125000 -3.62011029687500 
 N -2.86424745937499 -6.77802383125000 0.223362703125000 
 N -8.006845937499474E-002 -3.86770883125000 -2.58553529687500 
 N -2.18181645937499 -2.95042983125000 -3.59235529687500 
 N -2.74007445937499 -3.38054883125000 0.190276703125000 
 S -1.01394245937499 -6.97694783125000 -4.15038329687500 
 S -3.71792445937499 -6.40259883125000 -1.17409429687500 
 S -1.29511945937499 -7.12237183125000 1.404770312499970E-002
 S -0.633868459374995 -3.42972683125000 -4.09522029687500 
 S -3.56950145937499 -2.88359583125000 -1.14662729687500 
 S -1.13898645937499 -3.83074583125000 2.033570312499977E-002
