16

 C -2.34274924375001 -6.70372390625000 -2.35341550937500 
 C -0.994156243750007 -6.97581990625000 -1.89065550937500 
 C -2.59497024375001 -2.80819090625000 -2.46893350937500 
 C -1.37535124375001 -3.29323290625000 -1.71446650937500 
 N -0.130478243750007 -6.94465390625000 -2.87843950937500 
 N -2.42168724375001 -6.54350190625000 -3.66562150937500 
 N -2.51395824375001 -6.99609290625000 0.166838490625000 
 N -0.355460243750008 -3.59200190625000 -2.53281750937500 
 N -2.34138824375001 -2.60103190625000 -3.78094150937500 
 N -3.19224324375001 -2.93620790625000 7.121449062499985E-002
 S -0.932279243750007 -6.71092690625000 -4.28161950937500 
 S -3.51048624375001 -6.79315190625000 -1.12605850937500 
 S -0.844914243750007 -7.10540290625000 -0.128756509375000 
 S -0.794113243750007 -3.08045690625000 -4.04231150937500 
 S -3.94097624375001 -2.49676490625000 -1.37116450937500 
 S -1.56111524375001 -3.42691190625000 -7.195093750000936E-004
