16

 C -2.60904193750001 -6.67141940625000 -2.14583043750000 
 C -1.41700193750001 -7.26369140625000 -1.63617243750000 
 C -2.27726193750001 -2.76058940625000 -2.36022743750000 
 C -1.13327193750001 -3.33736640625000 -1.75582443750000 
 N -0.553393937500008 -7.52514040625000 -2.57954443750000 
 N -2.59331293750001 -6.32788440625000 -3.42350743750000 
 N -3.00180893750001 -7.01031140625000 0.352361562500000 
 N -0.203225937500008 -3.71503240625000 -2.61220243750000 
 N -2.20395493750001 -2.57638940625000 -3.66914043750000 
 N -2.83840693750001 -3.01619740625000 0.146918562500000 
 S -1.18108993750001 -6.97277240625000 -4.03145543750000 
 S -3.90536193750001 -6.44904540625000 -0.913565437500000 
 S -1.43605793750001 -7.51486540625000 6.417656250000014E-002
 S -0.697059937500008 -3.11511640625000 -4.08986343750000 
 S -3.57163093750001 -2.50942040625000 -1.24438943750000 
 S -1.22865393750001 -3.45926640625000 -1.911043749999997E-002
