16

 C -2.77328100312500 -6.69605545937500 -2.37746714687500 
 C -1.53043500312500 -7.06307045937500 -1.69705714687500 
 C -2.47636300312500 -3.17108345937500 -2.36713614687500 
 C -1.08615300312500 -3.22227045937500 -1.87353614687500 
 N -0.502621003124999 -7.12820145937500 -2.55093414687500 
 N -2.63797500312500 -6.47972045937500 -3.67275814687500 
 N -3.17904100312500 -6.63450945937500 0.240610853125000 
 N -0.125827003124999 -3.17319645937500 -2.79620214687500 
 N -2.50991900312500 -3.19273445937500 -3.68357814687500 
 N -2.75456700312500 -3.10896245937500 0.131255853125000 
 S -1.07647800312500 -6.80690845937500 -4.07162114687500 
 S -4.00242400312500 -6.22662545937500 -1.16846114687500 
 S -1.55955400312500 -6.93710945937500 1.641385312499999E-002
 S -0.978141003125000 -3.21535045937500 -4.27774314687500 
 S -3.75189700312500 -3.05256445937500 -1.25148414687500 
 S -1.13138900312500 -3.29091645937500 -0.103556146875000 
