16

 C -2.25440872187500 -6.63535727500000 -2.55115072500000 
 C -1.02634472187500 -6.97338327500000 -1.93890272500000 
 C -2.49623772187500 -2.50752527500000 -2.50090772500000 
 C -1.29572872187500 -3.11602227500000 -1.95890072500000 
 N -8.010172187499887E-002 -7.42687427500000 -2.80122272500000 
 N -2.27329572187500 -6.71797727500000 -3.85630672500000 
 N -2.65894872187500 -6.42006927500000 -6.361372499999729E-002
 N -0.385847721874999 -3.37874127500000 -2.88603672500000 
 N -2.55275772187500 -2.50719327500000 -3.84699672500000 
 N -2.95517672187500 -2.88853527500000 6.094327500000274E-002
 S -0.831336721874998 -7.35169227500000 -4.27751872500000 
 S -3.55725372187500 -6.29258827500000 -1.47279272500000 
 S -1.08199972187500 -6.92113927500000 -0.233165724999997 
 S -0.969477721874998 -2.98242027500000 -4.36365972500000 
 S -3.70740172187500 -2.21422927500000 -1.29328672500000 
 S -1.43590172187500 -3.44768727500000 -0.262529724999997 
