16

 C -2.33300620937500 -6.65696129999999 -2.30391076562500 
 C -1.15535420937500 -7.22958129999999 -1.70782076562500 
 C -2.37622520937500 -2.53742129999999 -2.27921476562500 
 C -1.34831520937500 -3.37720429999999 -1.72123776562500 
 N -0.158199209375003 -7.41487329999999 -2.52463476562500 
 N -2.14677720937500 -6.44927729999999 -3.60605176562500 
 N -3.02418020937500 -7.15039929999999 5.323823437499775E-002
 N -0.490031209375004 -3.80666129999999 -2.67084876562500 
 N -2.27258820937500 -2.27970229999999 -3.59605576562500 
 N -2.96304420937500 -2.72612629999999 0.222584234374998 
 S -0.641395209375004 -6.87374429999999 -4.05338276562500 
 S -3.70731020937500 -6.45214029999999 -1.33906576562500 
 S -1.37730720937500 -7.30694329999999 1.655623437499765E-002
 S -0.896220209375003 -3.02215429999999 -4.04509376562500 
 S -3.57524020937500 -2.05348529999999 -1.14024576562500 
 S -1.68687620937500 -3.70249829999999 -8.451976562500230E-002
