16

 C -2.30112068437500 -6.23574068125000 -2.34431779062500 
 C -1.11805268437500 -6.84376568125000 -1.80039079062500 
 C -2.54102068437500 -2.47411368125000 -2.50699979062500 
 C -1.41869268437500 -3.15387568125000 -1.84597179062500 
 N -0.108324684375001 -6.93484968125000 -2.70155479062500 
 N -2.31156368437500 -5.98578768125000 -3.69170379062500 
 N -2.88324868437500 -6.77817768125000 0.133150209375002 
 N -0.475232684375001 -3.64147068125000 -2.64751379062500 
 N -2.36507168437500 -2.33267868125000 -3.83223679062500 
 N -3.18921868437500 -2.47757568125000 1.047220937500204E-002
 S -0.770866684375001 -6.45637368125000 -4.16316379062500 
 S -3.61972968437500 -5.97874168125000 -1.21222479062500 
 S -1.28679968437500 -7.05402168125000 -7.900579062499791E-002
 S -0.907872684375001 -3.08317068125000 -4.14743279062500 
 S -3.90091868437500 -2.10424968125000 -1.41149379062500 
 S -1.65199668437500 -3.14365868125000 -6.942479062499785E-002
