16

 C -2.32759602187500 -6.63074969375000 -2.28033140000000 
 C -1.09317302187500 -7.01105469375000 -1.66645340000000 
 C -2.32387202187500 -2.79884569375000 -2.45420840000000 
 C -1.14963902187500 -3.14185969375000 -1.73766440000000 
 N -5.461802187499920E-002 -7.05229869375000 -2.50499340000000 
 N -2.27513002187500 -6.37121869375000 -3.57665240000000 
 N -2.91897602187500 -7.04826069375000 0.245957600000000 
 N -6.354902187499967E-002 -3.32384169375000 -2.49314440000000 
 N -2.21863102187500 -2.74576969375000 -3.78250940000000 
 N -3.06087002187500 -2.92956069375000 2.556860000000016E-002
 S -0.725948021874999 -6.64374669375000 -4.02331940000000 
 S -3.72267702187500 -6.65048169375000 -1.21719540000000 
 S -1.26390602187500 -7.30653669375000 5.081259999999999E-002
 S -0.561226021875000 -3.07581169375000 -4.05500440000000 
 S -3.76496502187500 -2.56244469375000 -1.47618340000000 
 S -1.44959202187500 -3.13024469375000 4.678859999999996E-002
