16

 C -2.68978081250000 -6.24708772500000 -2.28112012500000 
 C -1.48646181250000 -6.92356472500000 -1.81097212500000 
 C -2.43148781250000 -3.00055872500000 -2.35068512500000 
 C -1.29741881250000 -3.53116672500000 -1.67967612500000 
 N -0.556259812499996 -7.11629272500000 -2.72721312500000 
 N -2.63008381250000 -6.02020272500000 -3.58116512500000 
 N -3.10593781250000 -6.83465272500000 0.169208875000000 
 N -0.226763812499995 -3.75764672500000 -2.45496112500000 
 N -2.27687381250000 -2.70806772500000 -3.65943712500000 
 N -3.15053781250000 -3.18438172500000 0.117939875000000 
 S -1.17207781250000 -6.53729872500000 -4.13977812500000 
 S -3.91323981250000 -6.03696472500000 -1.07292112500000 
 S -1.55642981250000 -7.32227072500000 -0.139063125000000 
 S -0.738353812499995 -3.18040072500000 -3.92625512500000 
 S -3.78239081250000 -2.52040372500000 -1.27594312500000 
 S -1.61167081250000 -3.85414272500000 3.415287500000019E-002
