16

 C -2.55262981250000 -6.21089075937501 -2.52195423750000 
 C -1.42666181250000 -6.83076775937501 -1.86045423750000 
 C -2.19661481250000 -2.92365675937501 -2.32127523750000 
 C -0.955160812499997 -3.35238375937501 -1.76647823750000 
 N -0.361290812499997 -7.00489375937501 -2.61724023750000 
 N -2.37457581250000 -6.09375275937501 -3.81627523750000 
 N -3.22558281250000 -6.50191975937501 -9.773923749999858E-002
 N 7.384718750000285E-002 -3.37430275937501 -2.61063823750000 
 N -2.22757881250000 -2.54247075937501 -3.61342823750000 
 N -2.60239781250000 -3.46399175937501 0.238938762500001 
 S -0.782489812499998 -6.57669175937501 -4.16838823750000 
 S -3.87062681250000 -5.87443875937501 -1.50783923750000 
 S -1.64603781250000 -7.01199075937501 -0.111559237499999 
 S -0.630536812499997 -2.85449375937501 -4.05674123750000 
 S -3.43346181250000 -3.00741275937501 -1.12294523750000 
 S -1.02370981250000 -3.91142475937501 -0.109749237499999 
