16

 C -2.39609306875000 -6.63530180937500 -2.37273235937500 
 C -1.16650006875000 -6.99606080937500 -1.74668935937500 
 C -2.50103306875000 -2.82570580937500 -2.25111635937500 
 C -1.23877306875000 -3.25476280937500 -1.68174835937500 
 N -0.138401068749999 -7.18959780937500 -2.57969935937500 
 N -2.26788106875000 -6.48136280937500 -3.69700735937500 
 N -2.83253606875000 -6.60996880937500 0.129451640625001 
 N -0.366991068749999 -3.55389980937500 -2.61358435937500 
 N -2.53430206875000 -2.73623080937500 -3.55838435937500 
 N -2.90035206875000 -3.08809180937500 0.282007640625001 
 S -0.709816068749999 -6.98422980937500 -4.10712535937500 
 S -3.72047206875000 -6.39147280937500 -1.30402035937500 
 S -1.25861006875000 -7.35827780937500 -4.607635937499888E-002
 S -1.01257906875000 -3.10817480937500 -4.02798935937500 
 S -3.68427906875000 -2.63459880937500 -1.08915035937500 
 S -1.28273506875000 -3.20771680937500 2.919264062500093E-002
