16

 C -2.36666331562500 -6.43800094062499 -2.30570861250000 
 C -1.06573531562500 -6.85193194062499 -1.80586061250000 
 C -2.55356531562500 -2.68768594062499 -2.42163561250000 
 C -1.40429231562500 -3.28186194062499 -1.76634361250000 
 N -0.141399315625001 -6.94266994062499 -2.73872961250000 
 N -2.33995831562500 -6.19937994062499 -3.60865161250000 
 N -2.63853431562500 -6.77242294062499 0.247449387500000 
 N -0.377836315625000 -3.46241194062499 -2.58186161250000 
 N -2.38660831562500 -2.46276494062499 -3.72280461250000 
 N -3.29840031562500 -2.98428494062499 3.575638750000043E-002
 S -0.770159315625000 -6.42968794062499 -4.14899461250000 
 S -3.55163431562500 -6.36991794062499 -1.12104161250000 
 S -1.06219131562500 -7.17362794062499 -5.939961249999959E-002
 S -0.831149315625001 -2.98692194062499 -4.03767861250000 
 S -3.93633431562500 -2.40207594062499 -1.41955261250000 
 S -1.68710131562500 -3.36415094062499 -3.548161249999948E-002
