16

 C -2.50762365312500 -6.23889109999999 -2.53521343437500 
 C -1.43524965312500 -6.89945609999999 -1.85581043437500 
 C -2.62434265312500 -2.57096009999999 -2.45835343437500 
 C -1.46838965312500 -3.07047409999999 -1.70185843437500 
 N -0.359699653125000 -7.12819509999999 -2.61343043437500 
 N -2.21893365312500 -5.85365509999999 -3.80071543437500 
 N -3.17348065312500 -6.70764809999999 -3.821743437499903E-002
 N -0.344824653125000 -3.29515309999999 -2.41164143437500 
 N -2.38725065312500 -2.44132109999999 -3.73418443437500 
 N -3.44188565312500 -2.81520709999999 -4.349143437499903E-002
 S -0.740957653125000 -6.55661209999999 -4.09122443437500 
 S -3.84819565312500 -5.92225609999999 -1.38843743437500 
 S -1.64344265312500 -7.25787809999999 -0.173599434374999 
 S -0.852485653125000 -2.84257609999999 -4.04046643437500 
 S -3.92463965312500 -2.14561509999999 -1.44379143437500 
 S -1.83336665312500 -3.28439009999999 -2.111434374999277E-003
