16

 C -2.26231299062499 -6.31508611875000 -2.41144153750000 
 C -1.13809999062499 -6.93719011874999 -1.82928653750000 
 C -2.27707899062499 -2.67755011874999 -2.42295753750000 
 C -1.12550099062499 -3.14494311875000 -1.69123853750000 
 N -0.156140990624994 -7.23053211874999 -2.65099453750000 
 N -2.08820199062499 -6.09160511875000 -3.72172953750000 
 N -2.82396599062499 -6.71747911875000 0.135714462500002 
 N -9.148099062499426E-002 -3.40537211875000 -2.49041953750000 
 N -2.03979299062499 -2.42588911875000 -3.70894453750000 
 N -2.99295899062499 -2.94168311874999 1.566346250000183E-002
 S -0.650044990624994 -6.73181511875000 -4.16969253750000 
 S -3.63595899062499 -6.21370611874999 -1.28841153750000 
 S -1.23022199062499 -7.17079711875000 -9.177853749999798E-002
 S -0.450085990624994 -2.97945211874999 -4.04808953750000 
 S -3.67419999062499 -2.41277211875000 -1.42598653750000 
 S -1.41492099062499 -3.20564111875000 -7.375537499998197E-003
