16

 C -2.66891224375000 -6.57229422187500 -2.13887282187500 
 C -1.44014324375000 -7.18082022187500 -1.65962582187500 
 C -2.32350124375000 -2.73411322187500 -2.33847782187500 
 C -1.16409524375000 -3.36750722187500 -1.77783882187500 
 N -0.541442243750002 -7.52356222187500 -2.60908982187500 
 N -2.56760124375000 -6.31924822187500 -3.45295182187500 
 N -2.93331924375000 -6.94958522187500 0.495438178125001 
 N -0.211454243750002 -3.64752122187500 -2.64200482187500 
 N -2.18732824375000 -2.52637622187500 -3.63996682187500 
 N -2.82825724375000 -2.95577722187500 0.135583178125001 
 S -1.12345724375000 -6.93835322187500 -4.03602882187500 
 S -3.82708924375000 -6.49402122187500 -0.849504821874999 
 S -1.43973824375000 -7.54474622187500 5.549217812500062E-002
 S -0.720612243750002 -3.14309722187500 -4.14683282187500 
 S -3.62163224375000 -2.48536222187500 -1.25748182187500 
 S -1.29473624375000 -3.45248822187500 -6.947882187499932E-002
