16

 C -2.26654187500001 -6.28941684687500 -2.08477608125000 
 C -1.12567387500001 -6.92099484687501 -1.51945708125000 
 C -2.36392687500001 -2.62690384687501 -2.27128708125000 
 C -1.22434887500001 -3.19182984687501 -1.62197408125000 
 N -9.420387500000693E-002 -6.93709384687501 -2.36000308125000 
 N -2.12641487500001 -5.73207384687501 -3.27751708125000 
 N -2.98631587500001 -6.74943584687501 0.365093918750003 
 N -0.183799875000007 -3.47897884687501 -2.39205908125000 
 N -2.08402787500001 -2.25316084687501 -3.51951508125000 
 N -3.09176287500001 -2.99849484687501 0.211046918750003 
 S -0.600943875000007 -6.18104684687501 -3.75398908125000 
 S -3.65846187500001 -6.14716384687501 -0.997792081249997 
 S -1.34663487500001 -7.17146684687501 0.207323918750003 
 S -0.463353875000007 -2.80512184687501 -3.84308408125000 
 S -3.76980487500001 -2.47705184687501 -1.22908208125000 
 S -1.42510287500001 -3.31784584687501 0.157749918750003 
