16

 C -2.39840029375001 -6.55213582500000 -2.52251764375000 
 C -1.15936329375001 -6.82334582500000 -1.79249564375000 
 C -2.57423429375001 -2.75122682500000 -2.42302064375000 
 C -1.40303629375001 -3.27374682500000 -1.68458364375000 
 N -9.561829375000652E-002 -6.91278682500000 -2.58113464375000 
 N -2.25452829375001 -6.19637182500000 -3.78346664375000 
 N -2.94726429375001 -6.59258982500000 8.357356249998560E-003
 N -0.344629293750007 -3.48548382500000 -2.47596564375000 
 N -2.41832829375001 -2.58655882500000 -3.74175764375000 
 N -3.36631429375001 -3.04396982500000 -1.958564375000149E-002
 S -0.623803293750007 -6.53155382500000 -4.08155864375000 
 S -3.81614529375001 -6.36884182500000 -1.38909864375000 
 S -1.30482429375001 -6.88445882500000 -0.123256643750001 
 S -0.804886293750007 -2.91772182500000 -3.95931564375000 
 S -3.99326229375001 -2.54853882500000 -1.46619164375000 
 S -1.74847829375001 -3.45682482500000 7.333356249998424E-003
