16

 C -2.46325746562500 -6.22758928125000 -2.47033570625000 
 C -1.27837346562500 -6.68924028125000 -1.79183770625000 
 C -2.40948146562500 -2.25779028125000 -2.36770970625000 
 C -1.19052046562500 -2.87458128125000 -1.83300370625000 
 N -0.198393465624997 -6.93896328125000 -2.47761470625000 
 N -2.28764146562500 -6.17873328125000 -3.75398070625000 
 N -3.10986646562500 -6.46392128125000 -8.738706250000838E-003
 N -0.208601465624996 -3.18130828125000 -2.71181970625000 
 N -2.30287146562500 -1.97518128125000 -3.68211070625000 
 N -2.97752046562500 -2.89912128125000 9.358629374999916E-002
 S -0.701975465624996 -6.71535028125000 -4.03250270625000 
 S -3.79561646562500 -5.91278128125000 -1.37627370625000 
 S -1.48415746562500 -6.87153928125000 -8.810670625000094E-002
 S -0.829465465624996 -2.54804328125000 -4.13447770625000 
 S -3.77499646562500 -2.21246328125000 -1.22661070625000 
 S -1.39279046562500 -3.22264528125000 -0.117409706250001 
