16

 C -2.52489324062499 -6.24577179687500 -2.51817874687500 
 C -1.37967724062499 -6.84523579687500 -1.86151074687500 
 C -2.41384724062499 -2.44063079687500 -2.53205974687500 
 C -1.28985024062499 -2.97003779687500 -1.87095374687500 
 N -0.342771240624993 -7.07758879687500 -2.66321174687500 
 N -2.41662424062499 -6.09094479687500 -3.82742974687500 
 N -3.04387824062499 -6.35270479687500 2.650625312499999E-002
 N -0.223089240624993 -3.31926079687500 -2.66373174687500 
 N -2.27373824062499 -2.33032579687500 -3.87247374687500 
 N -3.07008324062499 -2.60954779687500 -1.887674687499996E-002
 S -0.915260240624993 -6.71604979687500 -4.20605074687500 
 S -3.83415524062499 -5.90973179687500 -1.38867074687500 
 S -1.57981724062499 -7.07328079687500 -0.146339746875000 
 S -0.764757240624993 -2.95573679687500 -4.18095774687500 
 S -3.72821224062499 -2.10843379687500 -1.41160174687500 
 S -1.47665524062499 -2.95441979687500 -9.305674687500010E-002
