16

 C -2.31972294687499 -6.41010711562500 -2.17334700625000 
 C -1.15298194687499 -6.96631311562500 -1.57227300625000 
 C -2.35214094687499 -2.75198511562500 -2.64196500625000 
 C -1.13517294687499 -3.18427511562500 -1.98482800625000 
 N -9.942494687499259E-002 -6.99895011562500 -2.39689100625000 
 N -2.13974094687499 -6.04650611562500 -3.44940200625000 
 N -2.86577894687499 -6.99660311562500 0.312649993750002 
 N -0.134725946874992 -3.39384011562500 -2.77930900625000 
 N -2.15468794687499 -2.58539211562500 -3.93272300625000 
 N -2.89619594687499 -2.69025711562500 -0.172643006249998 
 S -0.535421946874992 -6.25289811562500 -3.80341600625000 
 S -3.64429494687499 -6.31596211562500 -0.991133006249998 
 S -1.29427294687499 -7.33209111562500 9.750699375000216E-002
 S -0.631924946874992 -3.11664911562500 -4.35021400625000 
 S -3.67161094687499 -2.42105911562500 -1.63865000625000 
 S -1.30268094687499 -3.21755911562500 -0.277313006249998 
