16

 C -2.42457197187499 -6.47283342500000 -2.52263505625000 
 C -1.26409997187499 -6.84375742500000 -1.83112405625000 
 C -2.61268997187499 -2.82454442500000 -2.42429505625000 
 C -1.42506797187499 -3.19757242500000 -1.70570605625000 
 N -0.122458971874994 -6.90070942500000 -2.50876405625000 
 N -2.20758397187499 -6.37404642500000 -3.83492005625000 
 N -2.98128297187499 -6.55750542500000 1.118194374999937E-002
 N -0.313647971874994 -3.26862542500000 -2.43201105625000 
 N -2.40518297187499 -2.64099542500000 -3.69753105625000 
 N -3.33950097187499 -3.11201042500000 -5.963005625000073E-002
 S -0.578089971874994 -6.58002242500000 -4.06773105625000 
 S -3.75953297187499 -6.30135942500000 -1.46348705625000 
 S -1.35003297187499 -6.81431742500000 -0.132109056250001 
 S -0.811986971874994 -2.86439742500000 -3.99262105625000 
 S -4.00848597187499 -2.47416442500000 -1.43871605625000 
 S -1.69538197187499 -3.38199742500000 -2.368505625000061E-002
