16

 C -2.46128568750000 -6.59694377187500 -2.37658084375000 
 C -1.23810168750000 -6.96189377187500 -1.77910284375000 
 C -2.15461568750000 -3.23914677187500 -2.25746784375000 
 C -0.938346687500001 -3.60343877187500 -1.55540084375000 
 N -0.234036687500001 -7.17569577187500 -2.63878484375000 
 N -2.42697968750000 -6.52589277187500 -3.70867084375000 
 N -2.79638068750000 -6.70413277187500 0.201947156250000 
 N 2.763131249999962E-002 -3.91291877187500 -2.40269884375000 
 N -2.06481768750000 -3.11680777187500 -3.53381084375000 
 N -2.75207168750000 -3.25723677187500 0.217492156250000 
 S -0.892032687500000 -7.02642877187500 -4.15820484375000 
 S -3.71614168750000 -6.39143177187500 -1.15838684375000 
 S -1.20008768750000 -6.97465277187500 -5.482684374999991E-002
 S -0.529047687500001 -3.58185777187500 -3.97319684375000 
 S -3.54043368750000 -3.08554077187500 -1.21678884375000 
 S -1.13612768750000 -3.67132377187500 0.145464156250000 
