16

 C -2.50737925625000 -6.59839220000000 -2.47858922187500 
 C -1.30612425625000 -7.14637720000000 -1.85591322187500 
 C -2.67255925625000 -2.74927820000000 -2.51698922187500 
 C -1.56599525625000 -3.38243520000000 -1.84038222187500 
 N -0.250437256249995 -7.27388920000000 -2.68320222187500 
 N -2.31912225625000 -6.28706520000000 -3.72730222187500 
 N -3.03496425624999 -6.86585320000000 -1.407822187499996E-002
 N -0.534037256249995 -3.72596820000000 -2.59726122187500 
 N -2.51659325625000 -2.68929620000000 -3.84012122187500 
 N -3.44845625625000 -3.23756120000000 -0.121351221875000 
 S -0.740764256249995 -6.61940020000000 -4.13504522187500 
 S -3.81063525624999 -6.34651220000000 -1.45301022187500 
 S -1.38271925625000 -7.44941120000000 -0.126660221875000 
 S -0.999887256249996 -3.14464920000000 -4.12236922187500 
 S -4.09158125625000 -2.45118620000000 -1.48553422187500 
 S -1.83934225625000 -3.59011320000000 -0.166046221875000 
