16

 C -2.42136469375000 -6.55619377812500 -2.28710902500000 
 C -1.10973369375000 -6.87378377812500 -1.69321002500000 
 C -2.53701969375000 -3.15413077812500 -2.05669602500000 
 C -1.29220869375000 -3.43587977812500 -1.33495402500000 
 N -0.123258693750001 -7.02821877812500 -2.59933002500000 
 N -2.38850169375000 -6.36891577812500 -3.62519602500000 
 N -2.88501769375000 -6.92405077812500 0.189148975000000 
 N -0.238640693750002 -3.61468777812500 -2.15870502500000 
 N -2.45609969375000 -3.07392677812500 -3.39251202500000 
 N -3.14281069375000 -3.35837077812500 0.400014975000000 
 S -0.804945693750001 -6.64985777812500 -4.08776802500000 
 S -3.77738469375000 -6.48580677812500 -1.19209502500000 
 S -1.29578569375000 -7.16683877812500 2.448497500000002E-002
 S -0.827287693750002 -3.21845577812500 -3.71107402500000 
 S -3.92079669375000 -3.12071077812500 -1.03675102500000 
 S -1.44633469375000 -3.57181977812500 0.423271975000000 
