16

 C -2.28511606562500 -6.65204100937499 -2.32145805312500 
 C -1.15722606562500 -7.24158700937499 -1.66438305312500 
 C -2.41466706562500 -2.53273200937499 -2.28672805312500 
 C -1.40803506562500 -3.38421600937499 -1.77303105312500 
 N -0.162884065625003 -7.41598700937499 -2.51427005312500 
 N -2.15647506562500 -6.45217300937499 -3.62704005312500 
 N -3.05505106562500 -7.15693700937499 1.780594687500048E-002
 N -0.485677065625004 -3.82630700937499 -2.64140305312500 
 N -2.28783906562500 -2.26505600937499 -3.59193305312500 
 N -2.95909506562500 -2.71953200937499 0.255067946875001 
 S -0.640438065625004 -6.91733700937499 -4.03087205312500 
 S -3.70171306562500 -6.46380800937499 -1.34850105312500 
 S -1.36685406562500 -7.32355100937499 6.059468750005959E-004
 S -0.917165065625004 -3.05060500937499 -4.05924005312500 
 S -3.56583706562500 -2.04333500937499 -1.14471405312500 
 S -1.69811206562500 -3.72502500937499 -7.313905312499935E-002
