16

 C -2.22568135937500 -6.36547173749999 -2.55876208125000 
 C -1.03379935937500 -6.71316673749999 -1.83100808125000 
 C -2.37795735937500 -2.87820873749999 -2.50005508125000 
 C -1.11459335937500 -3.29784673749999 -1.90164808125000 
 N 1.296464062499592E-002 -7.00922873749999 -2.64329208125000 
 N -2.03209335937500 -6.24692873749999 -3.87916508125000 
 N -2.98471835937500 -6.58556773749999 -0.109420081250001 
 N -0.100411359375004 -3.41126973749999 -2.75585808125000 
 N -2.29960435937500 -2.72165473749999 -3.83167608125000 
 N -2.73830735937500 -2.87783273749999 0.112178918749999 
 S -0.445634359375004 -6.59319273749999 -4.18090608125000 
 S -3.63125635937500 -5.92104173749999 -1.50175208125000 
 S -1.35020335937500 -6.70905373749999 -7.396808125000098E-002
 S -0.736060359375004 -3.07552073749999 -4.22864008125000 
 S -3.64288235937500 -2.77623473749999 -1.31469408125000 
 S -1.13680135937500 -3.29463373749999 -0.120090081250001 
