16

 C -2.30628824062499 -6.34095614375000 -2.38823714687500 
 C -1.10161224062499 -6.86976314375000 -1.80750314687500 
 C -2.50575224062499 -3.14545114375000 -2.33371414687500 
 C -1.21795424062500 -3.27264914375000 -1.69244814687500 
 N -0.129782240624995 -7.18509314375000 -2.64422914687500 
 N -2.17382124062499 -6.11877814375000 -3.67654714687500 
 N -2.93425524062499 -6.95600414375000 2.337085312500009E-002
 N -0.165546240624995 -3.22355714375000 -2.55365714687500 
 N -2.38119924062500 -3.09560414375000 -3.67073614687500 
 N -3.00065324062500 -2.67619914375000 9.235485312500002E-002
 S -0.640986240624995 -6.67600814375000 -4.10287814687500 
 S -3.55404324062500 -6.14411014375000 -1.23409914687500 
 S -1.24576224062500 -7.24303214375000 -0.118296146875000 
 S -0.798954240624995 -3.16598314375000 -4.06551114687500 
 S -3.90490424062499 -2.69958314375000 -1.30498514687500 
 S -1.33147724062500 -3.05037614375000 2.562485312500007E-002
