16

 C -2.41262817812500 -6.42537969687500 -2.33888183750000 
 C -1.13572217812500 -6.75098469687500 -1.67445483750000 
 C -2.31892217812500 -2.96262269687500 -2.11483583750000 
 C -1.03806317812500 -3.27383069687500 -1.53097483750000 
 N -0.109192178125004 -6.93550269687500 -2.51567883750000 
 N -2.33725717812500 -6.28876469687500 -3.68009783750000 
 N -3.00426317812500 -6.84897169687500 6.819816250000055E-002
 N -4.425917812500302E-002 -3.49245069687500 -2.39321383750000 
 N -2.22090317812500 -2.87151669687500 -3.43643783750000 
 N -2.72280817812500 -3.29929969687500 0.394982162500001 
 S -0.725447178125004 -6.55168669687500 -3.99231283750000 
 S -3.82821217812500 -6.51171869687500 -1.28844483750000 
 S -1.31596617812500 -6.92797669687500 -3.274883749999935E-002
 S -0.655528178125004 -3.13701069687500 -3.86652783750000 
 S -3.60143817812500 -2.95654369687500 -0.988162837500000 
 S -1.13056617812500 -3.57260369687500 0.223691162500001 
