16

 C -2.48696041250001 -6.53692197812500 -2.41340293750000 
 C -1.24600941250001 -7.02198497812500 -1.97152893750000 
 C -2.56130141250001 -2.56332497812500 -2.40437393750000 
 C -1.52923041250001 -3.23212197812500 -1.65503493750000 
 N -0.244351412500013 -7.11094797812500 -2.81503293750000 
 N -2.42321041250001 -6.22768897812500 -3.69469393750000 
 N -2.77724341250001 -7.01029697812500 0.155167062500002 
 N -0.633477412500013 -3.74879497812500 -2.47313793750000 
 N -2.36802241250001 -2.50361697812500 -3.71312493750000 
 N -3.38390641250001 -2.63714197812500 4.067062500001883E-003
 S -0.910291412500013 -6.61107197812500 -4.26057593750000 
 S -3.66223641250001 -6.47958297812500 -1.12327393750000 
 S -1.27319241250001 -7.44610397812500 -0.307888937499998 
 S -0.948847412500013 -3.37567697812500 -4.02529893750000 
 S -3.91725741250001 -2.02385897812500 -1.45001893750000 
 S -1.88320441250001 -3.21545497812500 1.777706250000199E-002
