16

 C -2.44787135000001 -6.51805082500001 -2.46091544062500 
 C -1.18236335000001 -6.85061082500001 -1.86004944062500 
 C -2.66833735000001 -2.59113882500001 -2.33682044062500 
 C -1.52673235000001 -3.23377382500001 -1.71828444062500 
 N -0.134931350000006 -6.98576282500001 -2.65330844062500 
 N -2.35422335000001 -6.48276282500001 -3.77944044062500 
 N -2.86599735000001 -6.65064782500001 0.140174559374999 
 N -0.523204350000006 -3.39704782500001 -2.56420344062500 
 N -2.55099435000001 -2.47522182500001 -3.66341144062500 
 N -3.20208835000001 -2.80814082500001 0.141555559374999 
 S -0.746705350000006 -6.84058182500001 -4.21742144062500 
 S -3.65677835000001 -6.28583082500001 -1.31781244062500 
 S -1.33889735000001 -7.13537482500001 -0.160016440625001 
 S -0.974096350000006 -2.93837382500001 -4.07844644062500 
 S -3.92643835000001 -2.27400882500001 -1.23478944062500 
 S -1.75402035000001 -3.46584882500001 -4.699144062500071E-002
