16

 C -2.46883991250000 -6.71742482187501 -2.36314207187500 
 C -1.20601291250000 -7.13518382187501 -1.73611207187500 
 C -2.69953691250000 -3.26289482187501 -2.05112207187500 
 C -1.45916691250000 -3.52119982187501 -1.35631407187500 
 N -0.139597912500002 -7.13304182187501 -2.57452707187500 
 N -2.40373491250000 -6.52842582187501 -3.67495307187500 
 N -2.90721691250000 -6.87134482187501 0.184232928124999 
 N -0.394321912500001 -3.54677682187501 -2.16689707187500 
 N -2.52775491250000 -3.03237082187501 -3.36563107187500 
 N -3.30631191250000 -3.28520382187501 0.440006928124999 
 S -0.788281912500001 -6.69815582187501 -4.02161007187500 
 S -3.68105391250000 -6.43899282187501 -1.19450007187500 
 S -1.24684891250000 -7.19828182187501 -3.366071875001042E-003
 S -0.931234912500002 -3.29409382187501 -3.68156307187500 
 S -4.07651091250000 -3.20611582187501 -1.02465707187500 
 S -1.71198991250000 -3.61649782187501 0.296483928124999 
