16

 C -2.29557006562500 -6.53608106562500 -2.38416229375000 
 C -1.12823406562500 -7.12018406562500 -1.78524729375000 
 C -2.48696006562500 -2.85041406562500 -2.35249829375000 
 C -1.19572906562500 -3.07019506562500 -1.69887029375000 
 N -0.132304065624998 -7.36830706562500 -2.66331029375000 
 N -2.15959906562500 -6.17624806562500 -3.68068829375000 
 N -2.92085506562500 -6.77636206562500 0.161377706250001 
 N -0.259070065624998 -3.37664906562500 -2.56393229375000 
 N -2.47469906562500 -2.91815906562500 -3.67207229375000 
 N -2.89833606562500 -2.74221006562500 0.248500706250001 
 S -0.638648065624999 -6.69715706562500 -4.09546929375000 
 S -3.61819206562500 -6.24709206562500 -1.22108829375000 
 S -1.24346006562500 -7.26579806562500 -2.871429374999934E-002
 S -0.887391065624999 -3.28691106562500 -4.07405829375000 
 S -3.73183606562500 -2.80285506562500 -1.16234929375000 
 S -1.25642106562500 -3.12671106562500 6.987270625000064E-002
