16

 C -2.54994882812500 -6.65347167812500 -2.30897868750000 
 C -1.30543282812500 -7.13844767812500 -1.69946968750000 
 C -2.47546282812500 -2.94338667812500 -2.37480468750000 
 C -1.20338482812500 -3.44619367812500 -1.88834468750000 
 N -0.325998828124999 -7.29179567812500 -2.60356968750000 
 N -2.45073682812500 -6.44345567812500 -3.60712868750000 
 N -3.12870982812500 -6.77124467812500 0.135298312500002 
 N -0.288934828124999 -3.70602167812500 -2.82613768750000 
 N -2.46247382812500 -2.68994067812500 -3.65501268750000 
 N -2.79145182812500 -3.34491867812500 0.140121312500002 
 S -0.955572828125000 -6.99280067812500 -4.10283568750000 
 S -3.92976582812500 -6.60259267812500 -1.27450668750000 
 S -1.53166082812500 -7.29781967812500 2.093631250000216E-002
 S -0.937552828125000 -3.17945467812500 -4.15998268750000 
 S -3.66757982812500 -2.73158467812500 -1.14986768750000 
 S -1.23205082812500 -3.71050467812500 -0.138211687499998 
