16

 C -2.10582948750000 -6.50253962187501 -2.29907666875000 
 C -0.879764487500002 -6.95316262187501 -1.66204366875000 
 C -2.60565548750000 -2.58146862187501 -2.44597766875000 
 C -1.31390148750000 -2.93234862187501 -1.84669166875000 
 N 0.107908512499998 -7.11499962187501 -2.52490966875000 
 N -2.03573948750000 -6.32063762187501 -3.61977666875000 
 N -2.64893248750000 -6.77458362187501 0.206334331250004 
 N -0.280597487500002 -3.17770462187501 -2.67140466875000 
 N -2.53418448750000 -2.46933362187501 -3.77699866875000 
 N -3.09697048750000 -2.70162462187501 8.170533125000357E-002
 S -0.487046487500002 -6.85347862187501 -4.06644966875000 
 S -3.45015748750000 -6.37062062187501 -1.16199266875000 
 S -1.06059348750000 -7.19791062187501 1.848233125000354E-002
 S -0.941519487500002 -2.76150362187501 -4.16730366875000 
 S -3.88759048750000 -2.41141362187501 -1.31670166875000 
 S -1.47377448750000 -3.00844762187501 -0.110966668749997 
