16

 C -2.54023023437500 -6.52572344062500 -2.46067060937500 
 C -1.30821223437500 -7.01280044062500 -1.80832960937500 
 C -2.39332023437500 -2.63143844062500 -2.26018060937500 
 C -1.19678623437500 -3.18322544062500 -1.73285960937500 
 N -0.319732234374997 -7.16957944062500 -2.67847260937500 
 N -2.48235023437500 -6.40448144062500 -3.77281460937500 
 N -3.11832823437500 -6.82010144062500 0.108227390625000 
 N -0.186266234374997 -3.42075544062500 -2.55037360937500 
 N -2.34337723437500 -2.45762744062500 -3.58818760937500 
 N -2.80880223437500 -3.12051544062500 0.235056390625000 
 S -0.869867234374997 -6.74116844062500 -4.20986860937500 
 S -3.79200723437500 -6.39354444062500 -1.29663160937500 
 S -1.51860423437500 -7.23534044062500 -9.239360937500041E-002
 S -0.826976234374997 -2.91787744062500 -4.01293060937500 
 S -3.57601423437500 -2.42348644062500 -1.04710760937500 
 S -1.22800223437500 -3.53581644062500 -4.463560937500044E-002
