16

 C -2.54329319062501 -6.47645004374999 -2.30424216875000 
 C -1.38094019062501 -6.89163504374999 -1.63164016875000 
 C -2.45644719062501 -2.85322904374999 -2.15904016875000 
 C -1.20115419062501 -3.26716304374999 -1.56572316875000 
 N -0.368941190625008 -7.09889404374999 -2.48371116875000 
 N -2.48402419062501 -6.25749704374999 -3.63011016875000 
 N -3.11400619062501 -6.70949404374999 0.320595831250000 
 N -0.213098190625007 -3.49392004374999 -2.41409716875000 
 N -2.41312419062501 -2.78302904374999 -3.47900616875000 
 N -2.83906219062501 -2.92173204374999 0.320252831250000 
 S -0.912704190625007 -6.61680004374999 -3.97248916875000 
 S -3.86113719062501 -6.34267104374999 -1.13739416875000 
 S -1.56056419062501 -7.10344504374999 0.106560831250000 
 S -0.807339190625007 -3.16693304374999 -3.89948716875000 
 S -3.72887319062501 -2.68364804374999 -1.08559316875000 
 S -1.24905919062501 -3.39838604374999 0.129131831250000 
