16

 C -2.52717457500000 -6.53181028437500 -2.38071907500000 
 C -1.40017557500000 -7.17809928437500 -1.75676607500000 
 C -2.60012557500000 -2.67251528437500 -2.43563407500000 
 C -1.43992157500000 -3.30139228437500 -1.73480407500000 
 N -0.399768575000005 -7.40849128437500 -2.58230007500000 
 N -2.36047057500000 -6.34508128437500 -3.69932407500000 
 N -3.08035957500000 -6.58680128437500 8.692392499999912E-002
 N -0.502183575000005 -3.70972828437500 -2.57678607500000 
 N -2.42449457500000 -2.49091328437500 -3.72771307500000 
 N -3.17834657500000 -2.72335828437500 6.172492499999915E-002
 S -0.894740575000005 -7.00212228437500 -4.12857407500000 
 S -3.78342457500000 -6.12909828437500 -1.26179907500000 
 S -1.56856657500000 -7.24142328437500 -4.523407500000087E-002
 S -0.873611575000004 -3.06077328437500 -4.05725007500000 
 S -3.93966757500000 -2.38250228437500 -1.37428007500000 
 S -1.61318257500000 -3.34145628437500 3.127924999999143E-003
