16

 C -2.70821251562501 -6.67830540312499 -2.32009313437500 
 C -1.48139851562501 -7.14397540312499 -1.76822613437500 
 C -2.25972951562501 -2.96342040312499 -2.30836513437500 
 C -1.00291551562501 -3.39891840312499 -1.66138313437500 
 N -0.498240515625010 -7.45326440312499 -2.61050213437500 
 N -2.65756151562501 -6.55268340312499 -3.62800013437500 
 N -3.12952151562501 -6.96830040312499 0.256823865625000 
 N 5.434948437499010E-002 -3.54304240312499 -2.45989713437500 
 N -2.14056751562501 -2.81659840312499 -3.62861713437500 
 N -2.88352351562501 -3.21548540312499 0.212521865625000 
 S -1.10435851562501 -7.00977940312499 -4.12565713437500 
 S -3.93442051562501 -6.45376140312499 -1.07165713437500 
 S -1.55182151562501 -7.35202040312499 3.351486562499995E-002
 S -0.577150515625010 -3.24844540312499 -3.98747413437500 
 S -3.56193751562501 -2.62951240312499 -1.15944213437500 
 S -1.27880151562501 -3.68967340312499 4.613386562499988E-002
