16

 C -2.66803728750000 -6.18790773750000 -2.46679160312500 
 C -1.54948928750000 -6.78655573750000 -1.77855960312500 
 C -2.25169728750000 -3.06443473750000 -2.29947860312500 
 C -0.936224287500001 -3.41552873750000 -1.71612160312500 
 N -0.513012287500000 -7.01529973750000 -2.56626360312500 
 N -2.49056428750000 -6.03922673750000 -3.77435860312500 
 N -3.36885228750000 -6.48237573750000 -3.769160312500008E-002
 N 0.122338712500000 -3.37543173750000 -2.54027560312500 
 N -2.15776628750000 -2.63791773750000 -3.56193360312500 
 N -2.67056528750000 -3.38936673750000 0.260714396875000 
 S -0.932585287500000 -6.60447473750000 -4.12156160312500 
 S -4.09126528750000 -5.97597073750000 -1.46077560312500 
 S -1.80282028750000 -7.02312173750000 -0.114827603125000 
 S -0.554256287500000 -2.87373873750000 -4.02992560312500 
 S -3.54695128750000 -2.96895273750000 -1.10894860312500 
 S -1.00019328750000 -3.68018273750000 3.569539687500001E-002
