16

 C -2.31860629375000 -6.22509855625000 -2.42956728437500 
 C -1.17935329375000 -6.72842155625000 -1.66304828437500 
 C -2.42818229375000 -2.30760955625000 -2.36588028437500 
 C -1.24625129375000 -2.93115455625000 -1.86400228437500 
 N -0.188139293750000 -6.99328955625000 -2.49081628437500 
 N -2.16628929375000 -6.15169955625000 -3.73864128437500 
 N -3.06101529375000 -6.30116755625000 9.111371562499793E-002
 N -0.308475293750000 -3.10062655625000 -2.77188828437500 
 N -2.33373229375000 -2.01016655625000 -3.64487028437500 
 N -2.95963029375000 -2.81266555625000 7.223671562499789E-002
 S -0.673917293750000 -6.75875955625000 -4.10205428437500 
 S -3.75062629375000 -5.95009655625000 -1.44087828437500 
 S -1.53404229375000 -6.89581055625000 2.988371562499803E-002
 S -0.819214293749999 -2.47633755625000 -4.21038928437500 
 S -3.73767029375000 -2.31185455625000 -1.27650228437500 
 S -1.36957329375000 -3.28333455625000 -0.196595284375002 
