16

 C -2.34405665312501 -6.36669303750000 -2.29800304687500 
 C -1.09655165312501 -6.93151303750000 -1.78057704687500 
 C -2.38051165312501 -2.95746403750000 -2.43680604687500 
 C -1.13475265312501 -3.30173903750000 -1.82393304687500 
 N -0.131736653125008 -7.04899603750000 -2.67265204687500 
 N -2.29111665312501 -6.15005003750000 -3.59574104687500 
 N -2.81183165312501 -6.83280003750000 0.147546953124999 
 N -8.864865312500836E-002 -3.32227203750000 -2.62330204687500 
 N -2.34427065312501 -2.77822003750000 -3.78479104687500 
 N -3.00558365312501 -3.40443603750000 -1.394046875001109E-003
 S -0.738375653125008 -6.46469303750000 -4.10159004687500 
 S -3.65711165312501 -6.37401103750000 -1.23878004687500 
 S -1.23152865312501 -7.27039603750000 -6.850204687500105E-002
 S -0.766090653125008 -3.01768703750000 -4.22380204687500 
 S -3.73196365312501 -2.91189303750000 -1.36511504687500 
 S -1.35324365312501 -3.64401503750000 -0.145984046875001 
