16

 C -2.27783246562500 -6.87676411562500 -2.40936376562500 
 C -1.10272246562500 -7.29157111562500 -1.67926976562500 
 C -2.62892746562500 -2.67529811562500 -2.31069476562500 
 C -1.61244646562500 -3.52453711562500 -1.80392676562500 
 N -2.971246562499985E-002 -7.49244011562500 -2.42380476562500 
 N -2.15815046562500 -6.73977611562500 -3.75026876562500 
 N -2.96722046562500 -6.87060111562500 0.105742234375000 
 N -0.737932465625001 -4.01564111562500 -2.68982376562500 
 N -2.57206346562500 -2.52187011562500 -3.62699576562500 
 N -3.17419746562500 -2.90035911562500 0.206470234375000 
 S -0.552036465625001 -7.11572111562500 -3.98442976562500 
 S -3.71150146562500 -6.49665611562500 -1.39704276562500 
 S -1.48532246562500 -7.50701411562500 -8.968765624999708E-003
 S -1.18216446562500 -3.29683911562500 -4.12142976562500 
 S -3.79639146562500 -2.24435711562500 -1.15968876562500 
 S -1.79428646562500 -3.78675611562500 -8.598776562499966E-002
