16

 C -2.21931173437499 -6.43834325000000 -2.41307768125000 
 C -0.953768734374992 -6.79739825000000 -1.79799468125000 
 C -2.54554573437499 -2.88709325000000 -2.55666768125000 
 C -1.41569673437499 -3.34565225000000 -1.78888968125000 
 N 4.749226562500741E-002 -6.84842525000000 -2.65217568125000 
 N -2.15831373437499 -6.17972225000000 -3.72989968125000 
 N -2.64382473437499 -6.69032625000000 9.801531874999925E-002
 N -0.337602734374992 -3.51256725000000 -2.51917268125000 
 N -2.41038273437499 -2.80305625000000 -3.88336868125000 
 N -3.24260673437499 -2.83186425000000 -7.227268125000075E-002
 S -0.551973734374992 -6.48942625000000 -4.13456568125000 
 S -3.50719673437499 -6.39347125000000 -1.30584868125000 
 S -1.00424773437499 -7.04498425000000 -7.303868125000079E-002
 S -0.736379734374992 -3.06053225000000 -4.08670768125000 
 S -3.91424073437499 -2.45860825000000 -1.51314968125000 
 S -1.67767973437499 -3.35275325000000 -2.422268125000082E-002
