16

 C -2.38400426875000 -6.36738489999999 -2.54900848125000 
 C -1.12308926875000 -6.71239089999999 -1.92402248125000 
 C -2.74077026875000 -2.78201389999999 -2.30244648125000 
 C -1.57587326875000 -3.21105689999999 -1.71882948125000 
 N -0.161312268750004 -6.83708389999999 -2.82732348125000 
 N -2.38893726875000 -6.33249989999999 -3.89053748125000 
 N -2.82184726875000 -6.33509789999999 3.076551875000155E-002
 N -0.601348268750004 -3.53509489999999 -2.57385448125000 
 N -2.62900326875000 -2.57987889999999 -3.60778348125000 
 N -3.25145026875000 -2.92354289999999 0.203741518750002 
 S -0.854397268750004 -6.62248889999999 -4.33029448125000 
 S -3.71184426875000 -6.10490389999999 -1.36363848125000 
 S -1.17881526875000 -6.64113489999999 -0.173593481249998 
 S -1.13146526875000 -3.16410889999999 -4.06011048125000 
 S -4.05488026875000 -2.61021889999999 -1.22144048125000 
 S -1.63976226875000 -3.32623589999999 1.161518750001589E-003
