16

 C -2.55356494687500 -6.33488080937499 -2.53901677500000 
 C -1.40585994687500 -7.03652480937499 -1.94278777500000 
 C -2.43182094687500 -2.60355680937499 -2.43103677500000 
 C -1.25386194687500 -3.20902380937499 -1.79429477500000 
 N -0.402546946875001 -7.12507580937499 -2.75474177500000 
 N -2.39888394687500 -5.90587480937499 -3.77984877500000 
 N -3.05525694687500 -6.80026380937499 -7.852377499999941E-002
 N -0.229502946875001 -3.38752980937499 -2.64151577500000 
 N -2.33031994687500 -2.52109280937499 -3.74922177500000 
 N -3.02209194687500 -2.67671280937499 9.448222500000059E-002
 S -0.853503946875001 -6.45917980937499 -4.23702877500000 
 S -3.82361994687500 -6.07101780937499 -1.40676577500000 
 S -1.58377294687500 -7.46358880937499 -0.331651774999999 
 S -0.802982946875001 -2.98335280937499 -4.15942377500000 
 S -3.70723594687500 -2.17457980937499 -1.38743877500000 
 S -1.59576794687500 -3.48817380937499 -8.220477499999945E-002
