16

 C -2.43224417187500 -6.46772720937500 -2.30238235937500 
 C -1.16186717187500 -6.81728120937501 -1.75445635937500 
 C -2.55631117187500 -2.81482520937501 -2.39873835937500 
 C -1.34211017187500 -3.20617420937501 -1.74130135937500 
 N -0.167321171875005 -6.91997720937501 -2.63846035937500 
 N -2.37727717187501 -6.22697420937500 -3.61959535937500 
 N -2.79905917187501 -6.87671720937501 0.214475640625000 
 N -0.285534171875005 -3.41105720937500 -2.55245635937500 
 N -2.42784117187500 -2.70005120937500 -3.72374435937500 
 N -3.16676917187501 -2.92883120937501 0.117332640625000 
 S -0.810039171875006 -6.62368520937500 -4.10830135937500 
 S -3.73998717187501 -6.47258720937501 -1.13908035937500 
 S -1.21302317187501 -7.17886020937500 -8.218735937500021E-002
 S -0.801799171875005 -3.06420920937501 -4.00857835937500 
 S -3.85659117187500 -2.42828720937501 -1.31780735937500 
 S -1.61136317187500 -3.46495520937501 1.472864062499957E-002
