16

 C -2.37068398437500 -6.35402214687501 -2.49085484062500 
 C -1.20902498437500 -6.75419814687500 -1.77929384062500 
 C -2.61580598437500 -2.73936614687500 -2.57291284062500 
 C -1.38263098437500 -3.04720314687500 -1.87344884062500 
 N -0.156253984375002 -7.17917114687500 -2.44687184062500 
 N -2.12312898437500 -6.44093314687500 -3.80382484062500 
 N -2.97165098437500 -6.40600214687500 4.465615937500167E-002
 N -0.314669984375002 -3.07062714687500 -2.67640384062500 
 N -2.45406798437500 -2.45318314687500 -3.86141284062500 
 N -3.14860698437500 -2.86279814687500 -4.938284062499831E-002
 S -0.547398984375002 -6.93601114687500 -4.05076284062500 
 S -3.71396998437500 -6.05195214687500 -1.42155684062500 
 S -1.34244498437500 -6.80975214687500 -2.440084062499848E-002
 S -0.851386984375003 -2.77532314687500 -4.23152484062500 
 S -3.91063998437500 -2.71265914687500 -1.47002484062500 
 S -1.50427398437500 -3.07502614687500 -0.140399840624998 
