16

 C -2.48399344375000 -6.67283544062499 -2.29538118750000 
 C -1.20384844375000 -6.93561644062499 -1.64250918750000 
 C -2.35776544375000 -2.60788344062499 -2.52835818750000 
 C -1.12167944375000 -3.17382844062499 -2.02280218750000 
 N -0.105261443750003 -6.87701444062499 -2.40507318750000 
 N -2.31777844375000 -6.44617444062499 -3.60099418750000 
 N -2.89832444375000 -6.78697044062499 0.302050812500000 
 N -0.151781443750003 -3.32825044062499 -2.93285918750000 
 N -2.41405044375000 -2.45381544062499 -3.86551718750000 
 N -2.57576144375000 -2.94026944062499 1.729781250000051E-002
 S -0.715660443750003 -6.58549444062499 -3.88173818750000 
 S -3.73264044375000 -6.61447344062499 -1.18944018750000 
 S -1.27754744375000 -7.08342544062499 6.426881250000038E-002
 S -0.914865443750003 -2.95527344062499 -4.33896418750000 
 S -3.52214944375000 -2.42562844062499 -1.26448918750000 
 S -1.09391144375000 -3.48632044062499 -0.357996187500000 
