16

 C -2.15370266250001 -6.78095210625000 -2.51712070000000 
 C -1.00053166250001 -7.30797810625000 -1.81928670000000 
 C -2.52896266250001 -2.58163010625000 -2.55954770000000 
 C -1.35700266250001 -3.10347110625000 -1.89039870000000 
 N -6.511666250000658E-002 -7.75457710625000 -2.68514670000000 
 N -2.05503266250001 -6.83934810625000 -3.85009170000000 
 N -2.72813066250001 -6.62642010625000 3.703130000000110E-002
 N -0.342113662500007 -3.39944810625000 -2.70546770000000 
 N -2.42712966250001 -2.51952810625000 -3.88554870000000 
 N -3.17068566250001 -2.78366910625000 -5.415469999999911E-002
 S -0.579511662500007 -7.45408310625000 -4.25335970000000 
 S -3.49458866250001 -6.38263810625000 -1.43333770000000 
 S -1.27425266250001 -7.40694710625000 -5.359699999998968E-003
 S -0.895573662500007 -3.15554710625000 -4.25690070000000 
 S -3.92328666250001 -2.41448910625000 -1.50321870000000 
 S -1.49486366250001 -3.10624010625000 -0.147528699999999 
