16

 C -2.39815519687500 -6.07877017187500 -2.16818628437500 
 C -1.19367919687500 -6.65663317187500 -1.59886828437500 
 C -2.53614019687500 -2.44724317187500 -2.50478828437500 
 C -1.36880319687500 -2.98427017187500 -1.86685628437500 
 N -0.299472196875004 -6.92114817187500 -2.52898928437500 
 N -2.40633019687500 -5.87377017187500 -3.46732628437500 
 N -2.87076919687500 -6.29042717187500 0.315228715625000 
 N -0.350960196875004 -3.23125117187500 -2.71038028437500 
 N -2.46486419687500 -2.35429717187500 -3.83715028437500 
 N -3.06075419687500 -2.42496617187500 -2.527328437499987E-002
 S -0.926713196875004 -6.43993717187500 -3.99497528437500 
 S -3.71619019687500 -5.88304517187500 -1.08100028437500 
 S -1.29633219687500 -6.84792917187500 9.353771562500013E-002
 S -0.914782196875004 -2.83782417187500 -4.13283528437500 
 S -3.83109119687500 -2.18824617187500 -1.44730428437500 
 S -1.49397419687500 -2.95390117187500 -0.138438284375000 
