16

 C -2.56312112500000 -6.35269756562500 -2.28153693437500 
 C -1.30885012500000 -6.84286456562500 -1.68306593437500 
 C -2.56152612500000 -3.08452656562500 -2.37578293437500 
 C -1.29767512500000 -3.35778256562500 -1.74507893437500 
 N -0.315320124999996 -7.05355356562500 -2.56774393437500 
 N -2.41643012500000 -6.13309056562500 -3.59336293437500 
 N -3.12592612500000 -6.56753156562500 0.285038065625001 
 N -0.266708124999997 -3.43015256562500 -2.59178493437500 
 N -2.50818012500000 -3.06338756562500 -3.69812893437500 
 N -3.06818912500000 -3.11681156562500 0.136842065625001 
 S -0.913234124999996 -6.66550856562500 -4.07787593437500 
 S -3.89840512500000 -6.12088156562500 -1.11857993437500 
 S -1.48303712500000 -7.09990656562500 0.117767065625001 
 S -0.851090124999996 -3.14551556562500 -4.12250093437500 
 S -3.94554012500000 -2.95225056562500 -1.29090093437500 
 S -1.44175812500000 -3.45847156562500 -2.834093437499896E-002
