16

 C -2.64974250625000 -6.33499694687500 -2.34502068125000 
 C -1.44207450625000 -6.86917994687500 -1.71152868125000 
 C -2.53827150625000 -3.14783694687500 -2.41202068125000 
 C -1.23154150625000 -3.27716994687500 -1.80072168125000 
 N -0.520481506249996 -7.34006894687499 -2.58228568125000 
 N -2.59452150625000 -6.34827994687500 -3.68096668125000 
 N -3.18229850625000 -6.48081294687500 0.172184318750003 
 N -0.214825506249996 -3.30428094687500 -2.64237868125000 
 N -2.48388250625000 -3.07905894687500 -3.76172268125000 
 N -2.84981850625000 -3.05318194687500 0.177340318750002 
 S -1.11229850625000 -6.94701894687500 -4.07378268125000 
 S -3.99195750625000 -6.10497894687500 -1.27039668125000 
 S -1.59695850625000 -6.86799694687500 4.651631875000239E-002
 S -0.904276506249996 -3.18780094687500 -4.18568168125000 
 S -3.72604050625000 -3.19326894687500 -1.18278068125000 
 S -1.20398850625000 -3.23528394687500 -6.269668124999761E-002
