16

 C -2.26888840625000 -6.21581828437501 -2.14679866250000 
 C -1.08784940625000 -6.80138328437501 -1.54985866250000 
 C -2.39775940625000 -2.65228928437501 -2.71143766250000 
 C -1.18583940625000 -3.13586428437501 -2.03501266250000 
 N 3.285937499946101E-004 -6.97662028437501 -2.32670266250000 
 N -2.09559640625000 -5.92093828437501 -3.43968766250000 
 N -2.88570340625000 -6.70358128437501 0.323774337500000 
 N -0.181784406250005 -3.40901128437501 -2.83265866250000 
 N -2.27078540625000 -2.54935628437501 -4.04595766250000 
 N -2.94429040625000 -2.93041928437501 -0.156891662500000 
 S -0.500556406250005 -6.44220028437501 -3.79760166250000 
 S -3.63846240625000 -6.27137128437501 -1.07779866250000 
 S -1.27193340625000 -7.35235428437501 0.107232337500000 
 S -0.716752406250005 -3.05467228437501 -4.36950766250000 
 S -3.71402440625000 -2.48246628437501 -1.57747866250000 
 S -1.30964540625000 -3.21819128437501 -0.251671662500000 
