16

 C -2.49218544687500 -6.42040832500000 -2.49925497812500 
 C -1.18781944687500 -6.71982732500000 -1.94986897812500 
 C -2.71045344687500 -2.71570332500000 -2.32505897812500 
 C -1.43012544687500 -3.20960032500000 -1.68939397812500 
 N -0.171925446875000 -6.85767432500000 -2.81347997812500 
 N -2.42706744687500 -6.28324032500000 -3.80809597812500 
 N -2.84550644687500 -6.35007532500000 4.611502187499861E-002
 N -0.515238446875000 -3.61643532500000 -2.56367497812500 
 N -2.63131844687500 -2.65681632500000 -3.64602397812500 
 N -3.20118944687500 -2.97651532500000 0.183098021874998 
 S -0.860134446875000 -6.57871432500000 -4.31197397812500 
 S -3.75909244687500 -6.12435732500000 -1.34425597812500 
 S -1.22552544687500 -6.62387432500000 -0.198626978125001 
 S -1.12134844687500 -3.16045232500000 -4.07778197812500 
 S -4.08690644687500 -2.62244532500000 -1.20826397812500 
 S -1.60285444687500 -3.38078932500000 2.093802187499860E-002
