16

 C -2.25961326250000 -6.68307562812500 -2.22078862812500 
 C -0.978519262499999 -7.07147262812500 -1.63992262812500 
 C -2.51196326250000 -2.63498662812500 -2.49576062812500 
 C -1.18035926250000 -2.87006262812500 -1.82152362812500 
 N 6.595573750000128E-002 -7.03006862812500 -2.46303362812500 
 N -2.11472626250000 -6.43453162812500 -3.50505262812500 
 N -2.71405126250000 -6.73644762812500 0.255492371875001 
 N -0.162465262499999 -3.03908862812500 -2.68551362812500 
 N -2.42568526250000 -2.59215862812500 -3.84159062812500 
 N -2.96375726250000 -2.81300762812500 6.210137187500098E-002
 S -0.536395262499998 -6.53585162812500 -3.91651762812500 
 S -3.56854726250000 -6.51247462812500 -1.14463162812500 
 S -1.15243126250000 -7.32255662812500 0.111123371875001 
 S -0.875095262499999 -2.85271962812500 -4.19454662812500 
 S -3.82678926250000 -2.47420762812500 -1.34211962812500 
 S -1.35304326250000 -3.12540862812500 -0.149158628124999 
