16

 C -2.15491500000001 -6.36395374375000 -2.33953194687500 
 C -0.997562000000010 -6.89449274375000 -1.73789394687500 
 C -2.89220400000001 -2.58135574375000 -2.50668394687500 
 C -1.64046800000001 -2.89046874375000 -1.91821094687500 
 N 8.685999999990202E-003 -6.99066774375000 -2.56195394687500 
 N -2.05656600000001 -6.09338374375000 -3.62821894687500 
 N -2.73916800000001 -6.69736574375000 0.122250053124999 
 N -0.585381000000010 -2.88310874375000 -2.70496794687500 
 N -2.75722500000001 -2.31438774375000 -3.81820094687500 
 N -3.34354200000001 -2.81586174375000 -6.402194687500140E-002
 S -0.512814000000009 -6.50242674375000 -4.05679094687500 
 S -3.50525800000001 -6.16295774375000 -1.28330094687500 
 S -1.16125100000001 -7.10552274375000 -1.371794687500127E-002
 S -1.17610900000001 -2.52485574375000 -4.23460294687500 
 S -4.16042800000001 -2.43527874375000 -1.41307394687500 
 S -1.74092000000001 -3.18696674375000 -0.235054946875001 
