16

 C -2.28489390312500 -6.30894456874999 -2.42710044062500 
 C -1.07362090312500 -6.89405256874999 -1.79371444062500 
 C -2.28127890312500 -2.61552456874999 -2.44053144062500 
 C -1.09502690312500 -3.09215056874999 -1.74223644062500 
 N -0.103135903124996 -7.16362256874999 -2.68411344062500 
 N -2.15951790312500 -6.07562956874999 -3.72703644062500 
 N -2.92574290312500 -6.70910456874999 -3.016944062500104E-002
 N -4.933590312499625E-002 -3.46316956874999 -2.49503844062500 
 N -2.06214290312500 -2.47298756874999 -3.74306344062500 
 N -3.05555590312500 -2.92501156874999 -2.857144062500105E-002
 S -0.677339903124996 -6.69104256874999 -4.17175944062500 
 S -3.70879890312500 -6.24002556874999 -1.37054544062500 
 S -1.28292290312500 -7.12640056874999 -8.405144062500103E-002
 S -0.537702903124996 -2.98815856874999 -4.01416844062500 
 S -3.74671690312500 -2.39339656874999 -1.43682144062500 
 S -1.34679390312500 -3.16810256874999 2.658955937499896E-002
