16

 C -2.47167166250001 -6.19715152187500 -2.46086728437500 
 C -1.39338866250001 -6.95542952187500 -1.83772428437500 
 C -2.55782766250001 -2.53096752187500 -2.43746128437500 
 C -1.42170766250001 -3.04673952187500 -1.72952728437500 
 N -0.322651662500006 -7.20286452187500 -2.58067928437500 
 N -2.18997566250001 -5.87608052187500 -3.72187428437500 
 N -3.22225466250001 -6.66579852187500 -3.696628437500049E-002
 N -0.396054662500006 -3.26936252187500 -2.49121828437500 
 N -2.35098866250001 -2.33287352187500 -3.74295328437500 
 N -3.33660266250001 -2.71904452187500 1.958571562499989E-002
 S -0.700342662500006 -6.52623152187500 -4.09882528437500 
 S -3.80102066250001 -5.94195152187500 -1.39296328437500 
 S -1.61725266250001 -7.23197252187500 -0.128210284375000 
 S -0.789894662500006 -2.87501552187500 -4.04220328437500 
 S -3.95328966250001 -2.09747252187500 -1.41834328437500 
 S -1.76311866250001 -3.21637452187500 -3.862328437500029E-002
