16

 C -2.31418580937499 -6.37082849375000 -2.47817677500000 
 C -1.12844480937499 -6.73962249375000 -1.78641277500000 
 C -2.58176380937499 -2.66770949375000 -2.44108977500000 
 C -1.31971280937499 -2.92393749375000 -1.79314777500000 
 N -3.064780937499378E-002 -6.94977249375000 -2.49474677500000 
 N -2.16897080937499 -6.45138349375000 -3.77167777500000 
 N -3.06494880937499 -6.41044149375000 -4.843377499999990E-002
 N -0.284904809374993 -3.05380049375000 -2.60394277500000 
 N -2.43806880937499 -2.57402649375000 -3.75814677500000 
 N -3.18872680937499 -2.83586749375000 -2.110177499999977E-002
 S -0.611174809374993 -6.90963249375000 -4.06225877500000 
 S -3.70242280937499 -6.14211349375000 -1.53223977500000 
 S -1.43169680937499 -6.83240449375000 -3.415577499999989E-002
 S -0.828602809374993 -2.75854049375000 -4.15212477500000 
 S -3.99585680937499 -2.68577349375000 -1.49124877500000 
 S -1.55719180937499 -3.18017649375000 -0.126468775000000 
