16

 C -2.31737817812500 -6.15851977187499 -2.03697122812500 
 C -1.04205417812500 -6.67775177187499 -1.57581622812500 
 C -2.37350317812500 -2.67968677187499 -2.40139022812500 
 C -1.20265717812500 -3.13770477187499 -1.64387022812500 
 N -3.513117812500255E-002 -6.78288477187499 -2.44466422812500 
 N -2.28189817812500 -5.88087377187499 -3.31613622812500 
 N -2.69336617812500 -6.73172977187499 0.441338771875001 
 N -0.154895178125003 -3.33721177187499 -2.42814122812500 
 N -2.21042617812500 -2.74306577187499 -3.73182822812500 
 N -3.09861517812500 -2.73852777187499 0.102288771875001 
 S -0.765151178125002 -6.36393077187499 -3.91289622812500 
 S -3.55904617812500 -6.14260377187499 -0.853963228124999 
 S -1.16525417812500 -7.25853977187499 6.950277187500142E-002
 S -0.615277178125003 -3.09564277187499 -4.04291922812500 
 S -3.75128017812500 -2.33144677187499 -1.37953422812500 
 S -1.54899017812500 -3.41714777187499 7.111077187500148E-002
