16

 C -2.39677500312500 -6.43707464375000 -2.36521366562500 
 C -1.15197600312500 -6.78992164375000 -1.69367766562500 
 C -2.26738000312500 -2.94278064375000 -2.12875966562500 
 C -1.00850600312500 -3.25112364375000 -1.54953766562500 
 N -0.123566003125005 -6.90612264375000 -2.51030966562500 
 N -2.29913200312500 -6.31959864375000 -3.66627366562500 
 N -2.99679200312500 -6.81230564375000 8.700433437499888E-002
 N -6.980700312500421E-002 -3.48036064375000 -2.43902366562500 
 N -2.21942800312500 -2.85700664375000 -3.44783166562500 
 N -2.70079600312500 -3.27871564375000 0.366334334374999 
 S -0.703294003125005 -6.52904264375000 -4.01472966562500 
 S -3.84868000312500 -6.49219864375000 -1.30722366562500 
 S -1.33113800312500 -6.90299964375000 -1.528766562500117E-002
 S -0.648911003125004 -3.10626864375000 -3.90659466562500 
 S -3.58738600312500 -2.93402064375000 -1.01424066562500 
 S -1.06886100312500 -3.58567164375000 0.230501334374999 
