16

 C -2.67156795000001 -6.29939283437499 -2.44570204375000 
 C -1.42816395000001 -6.68653283437500 -1.80839604375000 
 C -2.52057895000001 -2.96291883437500 -2.29990004375000 
 C -1.22540095000001 -3.28824183437500 -1.64371204375000 
 N -0.399839950000010 -6.76111483437499 -2.65018104375000 
 N -2.61891795000001 -6.22113183437500 -3.77693704375000 
 N -3.24801495000001 -6.59984283437499 5.246295625000053E-002
 N -0.224665950000010 -3.47692383437500 -2.50011504375000 
 N -2.37722995000001 -2.92620583437500 -3.61676804375000 
 N -2.98761695000001 -3.06884983437500 0.252874956250001 
 S -1.07347195000001 -6.54041083437500 -4.15271604375000 
 S -4.02253395000001 -6.16357083437500 -1.34703304375000 
 S -1.64061095000001 -6.89433783437500 -0.107661043750000 
 S -0.795724950000010 -3.10580983437500 -4.00664004375000 
 S -3.80799595000001 -2.70132583437500 -1.19653604375000 
 S -1.38734695000001 -3.48198483437500 5.446895625000048E-002
