16

 C -2.25977088124999 -6.35686540625000 -2.38455096562500 
 C -1.01802988124999 -6.83862440625000 -1.79680196562500 
 C -2.58398788124999 -2.72687840625000 -2.25786596562500 
 C -1.36948088124999 -3.13236340625000 -1.67675496562500 
 N 1.726311875000519E-002 -6.98609640625000 -2.63566996562500 
 N -2.16460388124999 -6.10900440625000 -3.69746096562500 
 N -2.81129788124999 -6.68389040625000 0.121207034374999 
 N -0.389834881249994 -3.26723840625000 -2.54880096562500 
 N -2.49532988124999 -2.36965440625000 -3.53185496562500 
 N -3.03062088124999 -2.97549440625000 0.289330034374999 
 S -0.594815881249994 -6.54309640625000 -4.16680296562500 
 S -3.61605388124999 -6.30415440625000 -1.28165596562500 
 S -1.16364288124999 -6.97427340625000 -4.423965625000470E-003
 S -0.899191881249995 -2.69459140625000 -4.02972096562500 
 S -3.85389588124999 -2.54809340625000 -1.10520496562500 
 S -1.36739288124999 -3.22760340625000 4.346803437499935E-002
