16

 C -2.58588112812499 -6.32550453437501 -2.44855348437500 
 C -1.30628412812499 -6.61033353437501 -1.81718848437500 
 C -2.76088212812499 -2.64534853437500 -2.57230048437500 
 C -1.51803212812499 -3.05380853437500 -1.98802248437500 
 N -0.286527128124995 -6.72768853437501 -2.66620548437500 
 N -2.47678112812499 -6.10299153437500 -3.75499948437500 
 N -3.18589512812499 -6.60864853437501 -2.700348437500022E-002
 N -0.536870128124995 -3.12185353437501 -2.85835948437500 
 N -2.71226612812499 -2.47762953437500 -3.92940048437500 
 N -3.22650012812499 -3.11587053437500 -3.974148437500036E-002
 S -0.892044128124994 -6.44476853437500 -4.20149048437500 
 S -3.93404012812499 -6.39983153437501 -1.48409648437500 
 S -1.53583512812499 -6.89099453437501 -9.337048437500028E-002
 S -1.06578812812499 -2.74194153437501 -4.30019948437500 
 S -4.03469112812499 -2.43588753437500 -1.33260648437500 
 S -1.59692412812499 -3.36848453437501 -0.259764484375000 
