16

 C -2.50492649374999 -6.69538012812500 -2.09315468437500 
 C -1.25263849374999 -7.21712212812500 -1.62644868437500 
 C -2.43302949374999 -2.68716212812500 -2.45175568437500 
 C -1.25522249374999 -3.25748912812500 -1.77791768437500 
 N -0.335317493749994 -7.27743312812500 -2.61874268437500 
 N -2.54646849374999 -6.27465412812500 -3.35609168437500 
 N -2.80310749374999 -6.94514812812500 0.408265315625000 
 N -0.290725493749994 -3.56350612812500 -2.61474568437500 
 N -2.35112649374999 -2.68846312812500 -3.78865468437500 
 N -3.02090549374999 -2.98260512812500 2.896031562499957E-002
 S -1.09489449374999 -6.69952612812500 -3.97709168437500 
 S -3.76017749374999 -6.37457112812500 -0.919095684375000 
 S -1.26392749374999 -7.57644512812500 4.809631562499961E-002
 S -0.775650493749994 -3.16152912812500 -4.13105468437500 
 S -3.69902649374999 -2.37332712812500 -1.36120868437500 
 S -1.49733649374999 -3.58962212812500 -0.117584684375000 
