16

 C -2.26568421875000 -6.36110820625000 -2.38762038125000 
 C -1.02493421875000 -6.83481420625000 -1.80022038125000 
 C -2.58488721875000 -2.72138720625000 -2.25925838125000 
 C -1.36205621875000 -3.13385520625000 -1.66893038125000 
 N 1.450678124999705E-002 -6.98986820625000 -2.63630738125000 
 N -2.16625221875000 -6.10331420625000 -3.69714738125000 
 N -2.81135921875000 -6.67630420625000 0.122310618750001 
 N -0.393124218750003 -3.26726920625000 -2.54795438125000 
 N -2.49983421875000 -2.36873420625000 -3.53452338125000 
 N -3.02608421875000 -2.97218920625000 0.296923618750001 
 S -0.595843218750003 -6.54516420625000 -4.16434738125000 
 S -3.61574421875000 -6.30446620625000 -1.28549938125000 
 S -1.16727421875000 -6.97544720625000 -3.103381249999204E-003
 S -0.899557218750004 -2.69181920625000 -4.02836038125000 
 S -3.85189521875000 -2.54789220625000 -1.10344338125000 
 S -1.36545521875000 -3.22892620625000 4.414361875000083E-002
