16

 C -2.32679235312500 -6.99858513749999 -2.46325033125000 
 C -1.15252535312500 -7.44611513749999 -1.66349933125000 
 C -2.87248735312500 -2.88831113749999 -2.33480033125000 
 C -1.69230435312500 -3.60470513749999 -1.78980033125000 
 N -6.157835312500026E-002 -7.52174513749999 -2.43243333125000 
 N -2.17276135312500 -6.81092313749999 -3.78835133125000 
 N -2.94377335312500 -6.78193613749999 0.111411668749998 
 N -0.720413353125000 -3.93321013749999 -2.63436533125000 
 N -2.72023635312500 -2.70655613749999 -3.62885033125000 
 N -3.37945235312500 -3.14099713749999 0.172496668749998 
 S -0.524689353125001 -7.08149313749999 -3.97796633125000 
 S -3.68412735312500 -6.48603013749999 -1.43091133125000 
 S -1.41115635312500 -7.39473713749999 7.290566874999760E-002
 S -1.28705135312500 -3.43865313749999 -4.13636533125000 
 S -4.10594135312500 -2.50980713749999 -1.21215933125000 
 S -1.80942835312500 -3.79295413749999 -5.450833125000232E-002
