16

 C -2.37885568750000 -6.35185159062500 -2.55836650937500 
 C -1.11916868750000 -6.67077459062500 -1.93660350937500 
 C -2.76057768750000 -2.78587059062500 -2.32640250937500 
 C -1.59560768750000 -3.25416459062500 -1.71628650937500 
 N -0.154790687500001 -6.83995859062500 -2.82482650937500 
 N -2.39972068750000 -6.34354359062500 -3.88338150937500 
 N -2.81465368750000 -6.33448359062500 1.335549062499974E-002
 N -0.603290687500001 -3.50154559062500 -2.55574250937500 
 N -2.65617168750000 -2.55570459062500 -3.62025550937500 
 N -3.26989468750000 -2.90013759062500 0.209699490625000 
 S -0.837940687500002 -6.64506359062500 -4.33802650937500 
 S -3.67707568750000 -6.10048159062500 -1.38035750937500 
 S -1.16918168750000 -6.65450359062500 -0.166805509375000 
 S -1.13728568750000 -3.15673359062500 -4.05391950937500 
 S -4.04466868750000 -2.60148859062500 -1.22284050937500 
 S -1.65668868750000 -3.30102659062500 3.984906249996367E-004
