16

 C -2.41149270625000 -6.52334748750000 -2.43493372500000 
 C -1.30740470625000 -7.03015348750000 -1.66824572500000 
 C -2.35919270625000 -2.76274948750000 -2.55639272500000 
 C -1.16411670625000 -3.30383448750000 -1.86686772500000 
 N -0.261384706250002 -7.35291448750000 -2.42626372500000 
 N -2.17782970625000 -6.46128748750000 -3.73648272500000 
 N -3.30293970625000 -6.71061048750000 -2.818472500000024E-002
 N -0.143945706250002 -3.53775948750000 -2.65078372500000 
 N -2.12366170625000 -2.56420248750000 -3.84498372500000 
 N -3.00538470625000 -3.01685248750000 -3.872372500000032E-002
 S -0.625825706250001 -6.96906948750000 -3.99841172500000 
 S -3.84604870625000 -6.11052848750000 -1.49277572500000 
 S -1.69582070625000 -7.18208748750000 5.100127499999974E-002
 S -0.574738706250002 -3.01175348750000 -4.25358272500000 
 S -3.71496670625000 -2.71709748750000 -1.47222872500000 
 S -1.37368170625000 -3.49917048750000 -0.148183725000000 
