16

 C -2.41487350625000 -6.56632682812500 -2.28716522500000 
 C -1.10821550625000 -6.88070682812500 -1.68408022500000 
 C -2.55178650625000 -3.15040282812500 -2.05378722500000 
 C -1.29750250625000 -3.43905582812500 -1.33558622500000 
 N -0.129953506250002 -7.03468982812500 -2.59859322500000 
 N -2.38733750625000 -6.37842182812500 -3.62137922500000 
 N -2.87935250625000 -6.92260782812500 0.191087775000002 
 N -0.237665506250003 -3.61901482812500 -2.15593222500000 
 N -2.46239650625000 -3.07978082812500 -3.39156422500000 
 N -3.15437550625000 -3.35621482812500 0.400991775000002 
 S -0.806351506250002 -6.64873682812500 -4.08653422500000 
 S -3.77601950625000 -6.48282182812500 -1.19297922500000 
 S -1.29665850625000 -7.16839982812500 1.748977500000204E-002
 S -0.833006506250002 -3.21792482812500 -3.70753222500000 
 S -3.92270850625000 -3.12492982812500 -1.03874722500000 
 S -1.45577950625000 -3.57266082812500 0.420708775000002 
