16

 C -2.20740577812500 -6.13217031562500 -2.20835636562500 
 C -1.05953477812500 -6.75717231562500 -1.65953736562500 
 C -2.72371977812500 -2.33966931562500 -2.66340536562500 
 C -1.47873977812500 -2.80517031562500 -2.05691436562500 
 N -0.183531778125001 -6.98436631562500 -2.60972236562500 
 N -2.20476577812500 -5.90773431562500 -3.50919536562500 
 N -2.67473777812500 -6.38061331562500 0.296580634375000 
 N -0.498042778125002 -3.00460631562500 -2.92359236562500 
 N -2.63777677812500 -2.34114831562500 -3.99219136562500 
 N -3.21497877812500 -2.47596531562500 -0.155505365625001 
 S -0.745689778125001 -6.45457631562500 -4.07203336562500 
 S -3.44090277812500 -5.72942131562500 -1.06643336562500 
 S -1.13112777812500 -6.97865831562500 6.886663437499951E-002
 S -1.07423877812500 -2.77313531562500 -4.46594636562500 
 S -4.06046977812500 -2.10301431562500 -1.56976036562500 
 S -1.60955177812500 -2.82381931562500 -0.293809365625000 
