16

 C -2.44062392500000 -6.29907131562500 -2.29061324062500 
 C -1.20543892500000 -6.76886131562500 -1.70573024062500 
 C -2.48474892500000 -2.76646231562500 -2.87011824062500 
 C -1.20481192500000 -2.89384231562500 -2.20410324062500 
 N -0.142035924999997 -6.69561131562500 -2.47512124062500 
 N -2.34688892500000 -6.04827031562500 -3.60095724062500 
 N -2.91706492500000 -6.59275331562500 0.229267759374999 
 N -0.196164924999997 -2.81283731562500 -3.05240924062500 
 N -2.42917792500000 -2.59834731562500 -4.21556024062500 
 N -2.89600492500000 -3.14379431562500 -0.294144240625001 
 S -0.705364924999997 -6.25363131562500 -3.98389024062500 
 S -3.71898392500000 -6.17206331562500 -1.11901724062500 
 S -1.31575392500000 -7.18244631562500 -5.871240625000551E-003
 S -0.782567924999997 -2.60311331562500 -4.59893824062500 
 S -3.81223392500000 -2.91283431562500 -1.73210824062500 
 S -1.24796192500000 -3.07819631562500 -0.472720240625000 
