16

 C -2.35571577187499 -6.40997005625000 -2.38397592812500 
 C -1.19690677187499 -6.95091605625000 -1.64224692812500 
 C -2.51439377187499 -2.59542605625000 -2.57219692812500 
 C -1.24195877187499 -3.03694605625000 -2.01101092812500 
 N -0.108211771874986 -7.20115205625000 -2.35323292812500 
 N -2.04348877187499 -6.07887505625000 -3.63831292812500 
 N -2.93438777187499 -6.32706805625000 0.141903071875002 
 N -0.197632771874986 -3.07868605625000 -2.88108392812500 
 N -2.47543177187499 -2.41070305625000 -3.91338792812500 
 N -2.94464677187499 -2.95347205625000 4.723071875002205E-003
 S -0.463796771874986 -6.69391705625000 -3.86084592812500 
 S -3.64237577187499 -5.86590705625000 -1.27053692812500 
 S -1.35032277187499 -6.95366705625000 5.738907187500231E-002
 S -0.887648771874986 -2.55575505625000 -4.30459292812500 
 S -3.78266777187499 -2.38563505625000 -1.35138592812500 
 S -1.39703977187499 -3.38677605625000 -0.331480928124998 
