16

 C -2.67978773437501 -6.55431760625000 -2.36760983437500 
 C -1.46627173437501 -6.92104260625000 -1.69003783437500 
 C -2.67318973437501 -2.37486560625000 -2.40650283437500 
 C -1.50337273437501 -2.97798260625000 -1.72036983437500 
 N -0.354247734375006 -7.01002060625000 -2.42899183437500 
 N -2.49829673437501 -6.37238460625000 -3.69237483437500 
 N -3.23251873437501 -6.71201660625000 0.179079165625001 
 N -0.482541734375006 -3.21048360625000 -2.54474083437500 
 N -2.51684373437501 -2.13158560625000 -3.72171183437500 
 N -3.33586373437501 -2.90356960625000 3.038116562500104E-002
 S -0.854967734375006 -6.60084160625000 -3.95781383437500 
 S -4.06236673437501 -6.58146760625000 -1.31088783437500 
 S -1.57386773437501 -7.08068860625000 7.508616562500103E-002
 S -1.02881573437501 -2.74898460625000 -4.04015183437500 
 S -4.01305973437501 -2.11929160625000 -1.28682283437500 
 S -1.73569473437501 -3.24240060625000 -4.227783437499877E-002
