16

 C -2.63574056250000 -6.50070131562500 -2.46697264375000 
 C -1.36804656250000 -6.96334331562500 -1.85315064375000 
 C -2.49161156250000 -2.73106931562500 -2.56715664375000 
 C -1.36558856250000 -3.16329031562500 -1.82869264375000 
 N -0.336495562500000 -7.16784131562500 -2.65413564375000 
 N -2.47770356250000 -6.25933031562500 -3.75952764375000 
 N -3.04734856250000 -6.93799531562500 7.603435624999855E-002
 N -0.278526562500000 -3.35924331562500 -2.56700164375000 
 N -2.36193056250000 -2.58141031562500 -3.88642264375000 
 N -3.22264856250000 -2.85632331562500 -6.579164375000146E-002
 S -0.844196562500000 -6.68955231562500 -4.15862964375000 
 S -3.92808856250000 -6.45190731562500 -1.28504664375000 
 S -1.37575456250000 -7.20235931562500 -0.101444643750002 
 S -0.769363562500000 -3.00206031562500 -4.14914764375000 
 S -3.97580556250000 -2.55793431562500 -1.50889664375000 
 S -1.59931356250000 -3.29335631562500 -8.232764375000157E-002
