16

 C -2.36433062500000 -6.21402953750000 -2.38705916875000 
 C -1.34229862500000 -6.96039053750000 -1.77177516875000 
 C -2.56379862500000 -2.41371853750000 -2.46495716875000 
 C -1.44410662500000 -3.03826153750000 -1.75447416875000 
 N -0.349585624999996 -7.22662553750000 -2.60430116875000 
 N -2.19632562500000 -5.91838653750000 -3.66477516875000 
 N -3.20925962500000 -6.64390453750000 -3.401687500006467E-004
 N -0.364174624999996 -3.28758053750000 -2.54576816875000 
 N -2.33938362500000 -2.26732553750000 -3.75911616875000 
 N -3.26076162500000 -2.62178653750000 3.937183124999932E-002
 S -0.671011624999997 -6.50768653750000 -4.09328416875000 
 S -3.77993662500000 -5.95423253750000 -1.41764116875000 
 S -1.63017562500000 -7.21301553750000 -0.106785168750001 
 S -0.766995624999996 -2.88281453750000 -4.03305316875000 
 S -3.96117262500000 -2.08090053750000 -1.41383616875000 
 S -1.69183862500000 -3.17486253750000 -4.806216875000091E-002
