16

 C -2.57357261562500 -6.60810577500000 -2.45485787812500 
 C -1.33389761562500 -6.94355077500000 -1.85257087812500 
 C -2.26591061562500 -3.19368777500000 -2.23977987812500 
 C -1.05062761562500 -3.64581977500000 -1.55585587812500 
 N -0.305125615625002 -7.14049977500000 -2.69931987812500 
 N -2.57963761562500 -6.63468377500000 -3.79902587812500 
 N -3.04702861562500 -6.68624777500000 2.513712187499828E-002
 N 3.025638437499900E-002 -3.71650577500000 -2.34253387812500 
 N -2.10676061562500 -2.87834277500000 -3.52289987812500 
 N -2.90624261562500 -3.39545477500000 0.279692121874998 
 S -0.989832615625001 -6.90475177500000 -4.19193287812500 
 S -3.85705661562500 -6.47496977500000 -1.37717087812500 
 S -1.44263161562500 -6.93217577500000 -6.051687812500162E-002
 S -0.526062615625002 -3.29740077500000 -3.85782787812500 
 S -3.67004361562500 -2.98284277500000 -1.18314187812500 
 S -1.33045161562500 -3.84642377500000 0.144615121874998 
