16

 C -2.37454290624999 -6.37449601562500 -2.27635452187500 
 C -1.12332190624999 -6.84866201562500 -1.67228052187500 
 C -2.38675290624999 -2.73688001562500 -2.48666352187500 
 C -1.18446690624999 -3.12887101562500 -1.83093352187500 
 N -7.200190624999436E-002 -6.95628301562500 -2.52568652187500 
 N -2.29693590624999 -6.10222901562500 -3.56640652187500 
 N -2.94520890624999 -6.75784501562500 0.272290478124998 
 N -0.163739906249995 -3.08559401562500 -2.68106752187500 
 N -2.33102390624999 -2.36965601562500 -3.77360552187500 
 N -2.97534390624999 -3.13067501562500 -3.025452187500255E-002
 S -0.710757906249994 -6.45856101562500 -4.00347252187500 
 S -3.63611290624999 -6.23768801562500 -1.12182652187500 
 S -1.30809690624999 -7.20233401562500 0.104089478124997 
 S -0.748103906249995 -2.70683801562500 -4.21982152187500 
 S -3.77650190624999 -2.58334201562500 -1.41562252187500 
 S -1.32376190624999 -3.47950201562500 -0.115795521875003 
