16

 C -2.43215597500000 -6.54486651562500 -2.44174242500000 
 C -1.21154997500000 -6.77391951562501 -1.73838642500000 
 C -2.18518097500000 -2.98337751562501 -2.24244342500000 
 C -0.898297975000001 -3.32377651562501 -1.68659042500000 
 N -8.144697500000042E-002 -6.77152251562500 -2.48705942500000 
 N -2.27177897500000 -6.37454651562501 -3.78042742500000 
 N -3.05669597500000 -6.52637751562501 5.344557500000180E-002
 N 5.228902499999855E-002 -3.30299751562501 -2.64304042500000 
 N -2.18162397500000 -2.64967251562501 -3.53526042500000 
 N -2.59971597500000 -3.23305851562501 0.274819575000002 
 S -0.632097975000001 -6.49998251562501 -4.02807342500000 
 S -3.77440097500000 -6.35121251562501 -1.40270542500000 
 S -1.44391597500000 -6.86241451562501 1.995657500000192E-002
 S -0.667765975000001 -2.99361651562501 -4.06724142500000 
 S -3.45131597500000 -2.85662751562501 -1.06789042500000 
 S -1.04841197500000 -3.52686851562501 -1.397742499999799E-002
