16

 C -2.19954660937500 -6.80507004062500 -2.53521685937500 
 C -0.991741609375003 -7.28148204062500 -1.85975385937500 
 C -2.50079160937500 -2.59000204062500 -2.53619185937500 
 C -1.34468660937500 -3.11027704062500 -1.89789185937500 
 N -2.701760937500275E-002 -7.75819204062500 -2.68260685937500 
 N -2.08190160937500 -6.89234404062500 -3.83626985937500 
 N -2.72495860937500 -6.61817004062500 1.872714062500114E-002
 N -0.390910609375004 -3.44341304062500 -2.73946085937500 
 N -2.45518760937500 -2.53626704062500 -3.87164385937500 
 N -3.11153860937500 -2.75048304062500 5.314140625001240E-003
 S -0.601738609375003 -7.44745504062500 -4.23291785937500 
 S -3.50246160937500 -6.34765904062500 -1.50669985937500 
 S -1.23804260937500 -7.36250704062500 -1.352785937499879E-002
 S -0.870541609375003 -3.10742504062500 -4.27854185937500 
 S -3.89538660937500 -2.40519504062500 -1.45627785937500 
 S -1.51515460937500 -3.12282704062500 -0.195658859374999 
