16

 C -2.39551823125000 -6.51951670937500 -2.43878734375000 
 C -1.15871023125000 -6.80350670937500 -1.78061734375000 
 C -2.65620523125000 -2.63850970937500 -2.41665634375000 
 C -1.42903923125000 -3.13926070937500 -1.80172034375000 
 N -0.156573231250003 -6.99750570937500 -2.62237034375000 
 N -2.34870423125000 -6.56254370937500 -3.78958134375000 
 N -2.84030823125000 -6.62558070937500 9.683565625000057E-002
 N -0.395284231250003 -3.45934570937500 -2.60536734375000 
 N -2.50004323125000 -2.44584770937500 -3.73758134375000 
 N -3.17529623125000 -2.79861870937500 0.165281656250001 
 S -0.765524231250003 -6.86467970937500 -4.13319734375000 
 S -3.73557123125000 -6.31635170937500 -1.21656534375000 
 S -1.25801423125000 -7.10696070937500 -5.444134374999932E-002
 S -0.940860231250003 -2.98062070937500 -4.12200534375000 
 S -3.95025823125000 -2.29045270937500 -1.25190634375000 
 S -1.65855223125000 -3.51404470937500 -9.350934374999964E-002
