16

 C -2.67919631562501 -6.37663642187500 -2.51362951250000 
 C -1.41969331562501 -6.90155742187500 -2.03655451250000 
 C -2.61936131562501 -2.88408142187500 -2.40855451250000 
 C -1.45706631562501 -3.24101142187500 -1.61713251250000 
 N -0.405899315625006 -7.11536242187500 -2.92164151250000 
 N -2.58532031562501 -6.08199042187500 -3.82597751250000 
 N -3.01494731562501 -6.75901942187500 8.707548750000216E-002
 N -0.410186315625006 -3.56785542187500 -2.34740151250000 
 N -2.52448931562501 -3.06103242187500 -3.73046651250000 
 N -3.31942731562501 -2.77104842187500 0.111914487500002 
 S -1.07996131562501 -6.59345642187500 -4.33735351250000 
 S -3.78461731562501 -5.98589042187500 -1.17383951250000 
 S -1.37036531562501 -7.22394942187500 -0.266580512499998 
 S -0.931210315625005 -3.46366642187500 -3.94583751250000 
 S -4.04361531562501 -2.59953642187500 -1.41090951250000 
 S -1.78997931562501 -3.46384742187500 0.130358487500002 
