16

 C -2.29623286875001 -6.43879479062499 -2.21634615937500 
 C -1.11942286875001 -6.96943179062499 -1.67392515937500 
 C -2.32424986875001 -2.65356379062499 -2.44641615937500 
 C -1.10288786875001 -3.19001379062499 -1.93627215937500 
 N -0.142985868750007 -7.23469979062499 -2.52626115937500 
 N -2.24293886875001 -6.21624979062499 -3.52221315937500 
 N -2.76570686875001 -6.73513879062499 0.234243840625000 
 N -0.235461868750008 -3.39790379062499 -2.89601815937500 
 N -2.30519486875001 -2.24917079062499 -3.68299515937500 
 N -2.76903486875001 -3.19080879062499 -1.664715937500039E-002
 S -0.769696868750008 -6.80720479062499 -4.01805515937500 
 S -3.56622686875001 -6.32136179062499 -1.11048915937500 
 S -1.17385486875001 -7.20145379062499 6.427084062499966E-002
 S -0.824170868750008 -2.77692879062499 -4.30812915937500 
 S -3.51898986875001 -2.40675179062499 -1.28214015937500 
 S -1.17088486875001 -3.50668079062499 -0.278127159375000 
