16

 C -2.36258005000000 -6.21905508437500 -2.36037217187500 
 C -1.16776405000000 -6.82110508437500 -1.86299317187500 
 C -2.51563605000000 -2.44552908437500 -2.48887817187500 
 C -1.40202305000000 -3.13963708437500 -1.82761817187500 
 N -0.116683050000002 -6.93836408437500 -2.68984517187500 
 N -2.27699105000000 -5.96170508437500 -3.66591317187500 
 N -2.90594005000000 -6.73508408437500 0.153594828124999 
 N -0.446100050000002 -3.65624008437500 -2.63184917187500 
 N -2.36963705000000 -2.34023408437500 -3.80010617187500 
 N -3.15513005000000 -2.43756008437500 4.227782812499847E-002
 S -0.755513050000002 -6.45128008437500 -4.17319017187500 
 S -3.62958405000000 -6.01182308437500 -1.18853617187500 
 S -1.30419005000000 -7.04896208437500 -0.102789171875002 
 S -0.909819050000002 -3.06382408437500 -4.12776017187500 
 S -3.90442505000000 -2.09282308437500 -1.39410617187500 
 S -1.65890405000000 -3.16174108437500 -7.656417187500142E-002
