16

 C -2.47863191250000 -6.59871800625000 -2.44547936250000 
 C -1.18126091250000 -6.95307600625000 -1.93210936250000 
 C -2.62202591250000 -2.77123200625000 -2.51498836250000 
 C -1.46645891250000 -3.26065600625000 -1.81035936250000 
 N -0.237676912500000 -6.95154000625000 -2.86813136250000 
 N -2.60267591250000 -6.34755400625000 -3.73369836250000 
 N -2.87472791250000 -6.88837500625000 7.563863749999777E-002
 N -0.369555912500000 -3.52212500625000 -2.51754736250000 
 N -2.42092191250000 -2.74255700625000 -3.81389636250000 
 N -3.29195291250000 -2.67901200625000 -7.709836250000235E-002
 S -1.04746791250000 -6.55798200625000 -4.32134736250000 
 S -3.73905591250000 -6.46639900625000 -1.27398636250000 
 S -1.31250391250000 -7.39462300625000 -0.259534362500002 
 S -0.854370912500000 -3.26448400625000 -4.08338436250000 
 S -3.91488991250000 -2.14864100625000 -1.51354536250000 
 S -1.71213391250000 -3.24052500625000 -6.889136250000227E-002
