16

 C -2.32555035937500 -6.27215971874999 -2.56196867187500 
 C -1.04424735937500 -6.61883171874999 -1.97814467187500 
 C -2.82879835937500 -2.80504171874999 -2.29996667187500 
 C -1.54201435937500 -3.15223571874999 -1.64694467187500 
 N -3.319535937500184E-002 -6.84302371874999 -2.83430567187500 
 N -2.27434235937500 -6.37049671874999 -3.90070367187500 
 N -2.78380835937500 -6.38023971874999 -4.419967187500018E-002
 N -0.612577359375002 -3.44789871874999 -2.56054767187500 
 N -2.67961635937500 -2.73254471874999 -3.61582667187500 
 N -3.34808435937500 -2.80159871874999 0.180289328125000 
 S -0.772716359375002 -6.80170171874999 -4.31925467187500 
 S -3.63160435937500 -6.05322371874999 -1.43648067187500 
 S -1.15033735937500 -6.76625471874999 -0.249689671875000 
 S -1.10550135937500 -3.00489871874999 -4.04635467187500 
 S -4.15262635937500 -2.43921471874999 -1.24375167187500 
 S -1.71491735937500 -3.18985271874999 5.667232812499989E-002
