16

 C -2.41459880000000 -6.47247501562500 -2.54046952500000 
 C -1.17805680000000 -6.86804701562500 -1.95532852500000 
 C -2.53478380000000 -2.51829401562500 -2.35019352500000 
 C -1.46600180000000 -3.11809001562500 -1.64499352500000 
 N -0.117314799999999 -6.95580601562500 -2.73561652500000 
 N -2.25796680000000 -6.21289801562500 -3.82793852500000 
 N -2.96955680000000 -6.86023801562500 -9.706752500000038E-002
 N -0.416603800000000 -3.39636601562500 -2.37575452500000 
 N -2.31943880000000 -2.42993901562500 -3.66553452500000 
 N -3.26371580000000 -2.87500701562500 3.428247499999948E-002
 S -0.641700800000000 -6.56424301562500 -4.25469152500000 
 S -3.82077880000000 -6.53810401562500 -1.49822652500000 
 S -1.30876680000000 -7.24124601562500 -0.229575525000000 
 S -0.835927799999999 -3.05210601562500 -3.95540852500000 
 S -3.96068080000000 -2.23220001562500 -1.35404952500000 
 S -1.65913380000000 -3.22687901562500 8.785647499999949E-002
