16

 C -2.41262419062499 -6.51733975000000 -2.44537287812500 
 C -1.17895319062499 -6.84997375000000 -1.71362687812500 
 C -2.55883119062499 -3.24016575000000 -2.34914487812500 
 C -1.25954119062499 -3.47405275000000 -1.72847387812500 
 N -0.165066190624994 -7.07347475000000 -2.55050387812500 
 N -2.29693119062499 -6.41483175000000 -3.78993887812500 
 N -3.03209919062499 -6.75315275000000 5.935212187500194E-002
 N -0.249693190624994 -3.65471075000000 -2.51320287812500 
 N -2.46546019062499 -3.00950275000000 -3.65747987812500 
 N -2.99665719062499 -3.31411875000000 0.160569121875002 
 S -0.687633190624994 -6.72876875000000 -4.08151387812500 
 S -3.77590819062499 -6.34223575000000 -1.38175587812500 
 S -1.40825519062499 -6.96461475000000 1.400612187500183E-002
 S -0.903117190624994 -3.29666275000000 -4.06095187812500 
 S -3.84396319062499 -3.31349475000000 -1.22472587812500 
 S -1.33900519062499 -3.60884775000000 4.032112187500192E-002
