16

 C -2.36558593750000 -6.62858116250000 -2.30189867187500 
 C -1.12965693750000 -6.92158416249999 -1.67084167187500 
 C -2.53110593750000 -2.59899616250000 -2.40330167187500 
 C -1.37068093750000 -3.24455216250000 -1.82295667187500 
 N -0.146684937500002 -7.04341316249999 -2.54114667187500 
 N -2.37810093750000 -6.51464216250000 -3.61748867187500 
 N -2.89927193750000 -6.67117216250000 0.209396328125000 
 N -0.391209937500001 -3.43968316250000 -2.68044467187500 
 N -2.43327893750000 -2.43363616250000 -3.71485267187500 
 N -3.06955593750000 -2.88452116250000 -3.041667187500052E-002
 S -0.812021937500001 -6.79774416250000 -4.06755067187500 
 S -3.71531693750000 -6.43777416249999 -1.23369967187500 
 S -1.23487593750000 -6.97723716250000 2.795032812499954E-002
 S -0.904232937500002 -3.05488516250000 -4.17014867187500 
 S -3.81748393750000 -2.35018316250000 -1.38677467187500 
 S -1.51539093750000 -3.48001616249999 -0.116446671875001 
