16

 C -2.26456538125000 -6.70796909062500 -2.22231780312500 
 C -1.04042838125000 -7.11226309062500 -1.57733780312500 
 C -2.48309238125000 -2.61022009062500 -2.45820980312500 
 C -1.18581038125000 -2.90270809062500 -1.86248480312500 
 N 1.056961875000351E-002 -7.00409409062500 -2.39735880312500 
 N -2.19854638125000 -6.31891209062500 -3.50473880312500 
 N -2.83969738125000 -6.85246009062500 0.297510196874998 
 N -0.203264381249997 -3.06626109062500 -2.71373080312500 
 N -2.42797238125000 -2.63930109062500 -3.77038680312500 
 N -2.93189238125000 -2.89676909062500 4.960719687499759E-002
 S -0.572622381249997 -6.48547309062500 -3.89248780312500 
 S -3.62287338125000 -6.56927009062500 -1.13712880312500 
 S -1.24158138125000 -7.33138809062500 0.128390196874997 
 S -0.786789381249997 -2.85244509062500 -4.22822080312500 
 S -3.72764138125000 -2.44569309062500 -1.31405580312500 
 S -1.31953938125000 -3.17567009062500 -0.179779803125002 
