16

 C -2.45618386250000 -6.46390214687500 -2.33437490937500 
 C -1.20528986249999 -6.90275314687500 -1.72838290937500 
 C -2.34905486249999 -3.02394114687500 -2.20104590937500 
 C -1.06861486250000 -3.35981814687500 -1.72170590937500 
 N -0.186540862499995 -7.02169914687500 -2.58528190937500 
 N -2.39992386250000 -6.35484314687500 -3.66275190937500 
 N -2.90649186249999 -6.72715814687500 8.791409062500111E-002
 N -9.320786249999458E-002 -3.44112314687500 -2.61150190937500 
 N -2.38069886249999 -2.75866414687500 -3.51182790937500 
 N -2.63671286250000 -3.36601314687500 0.354814090625001 
 S -0.837705862499995 -6.62110814687500 -4.07688690937500 
 S -3.72009886250000 -6.34906514687500 -1.27441490937500 
 S -1.24177386250000 -7.01959014687500 1.983409062500097E-002
 S -0.875246862499995 -3.11463314687500 -4.07526890937500 
 S -3.61381286250000 -3.12722514687500 -0.983606909374999 
 S -1.01004986249999 -3.55554514687500 -5.706909374998848E-003
