16

 C -2.10458090625000 -6.46410141562500 -2.31460284687500 
 C -0.870177906250001 -6.91611341562500 -1.73572084687500 
 C -2.58617190625000 -2.53319441562500 -2.40398784687500 
 C -1.40583990625000 -2.99660241562500 -1.80809484687500 
 N 0.127703093749998 -7.22475141562500 -2.56899984687500 
 N -2.01184990625000 -6.33830041562500 -3.62769984687500 
 N -2.66117790625000 -6.77563441562500 0.176275153124997 
 N -0.401238906250001 -3.14950641562500 -2.66764784687500 
 N -2.54821890625000 -2.42431841562500 -3.73126584687500 
 N -3.07531290625000 -2.70039241562500 8.492715312499688E-002
 S -0.519434906250002 -6.88264941562500 -4.09288584687500 
 S -3.44363690625000 -6.31675641562500 -1.22935784687500 
 S -1.05741490625000 -7.18625441562500 2.869815312499679E-002
 S -0.930355906250002 -2.77347841562500 -4.17569584687500 
 S -3.95349190625000 -2.33484541562500 -1.32289084687500 
 S -1.47621390625000 -3.01231941562500 -0.109736846875003 
