16

 C -2.27962535312500 -6.46172613437500 -2.51222786250000 
 C -1.06231735312500 -6.81173913437499 -1.80946986250000 
 C -2.51999235312500 -2.68953413437499 -2.48154586250000 
 C -1.31387235312500 -2.97424113437499 -1.74199186250000 
 N -1.038535312499889E-002 -6.91116713437500 -2.62601786250000 
 N -2.19225235312500 -6.22281113437499 -3.83962886250000 
 N -2.82480735312500 -6.55952413437500 5.146213749999995E-002
 N -0.210814353125000 -3.25651513437499 -2.48326086250000 
 N -2.33438935312500 -2.71358813437500 -3.81371286250000 
 N -3.26214235312500 -2.81214113437500 -4.491886250000010E-002
 S -0.616846353124999 -6.58320513437500 -4.12905886250000 
 S -3.64726235312500 -6.17365213437500 -1.39170586250000 
 S -1.25916035312500 -7.17603613437499 -0.154382862500000 
 S -0.706099353124999 -3.07848013437500 -4.08484986250000 
 S -3.98606235312500 -2.63604713437500 -1.55869986250000 
 S -1.62346135312500 -3.09107713437499 -5.133886250000019E-002
