16

 C -2.41135355312499 -6.40260976562500 -2.54674840937500 
 C -1.22236355312499 -6.79893076562500 -1.86748340937500 
 C -2.36684655312499 -2.63966776562500 -2.46041240937500 
 C -1.16189555312499 -3.02199076562500 -1.74203940937500 
 N -0.134293553124993 -6.89248176562500 -2.63658340937500 
 N -2.26018055312499 -6.22942076562500 -3.85230440937500 
 N -3.10492355312499 -6.61507876562500 -3.683840937499938E-002
 N -0.143989553124993 -3.29388976562500 -2.57492240937500 
 N -2.24094055312499 -2.46724376562500 -3.78429440937500 
 N -3.03837955312499 -2.82513976562500 4.091959062500061E-002
 S -0.654483553124994 -6.53490276562500 -4.16769640937500 
 S -3.77743655312499 -6.32022776562500 -1.47746540937500 
 S -1.46138455312499 -7.04429876562500 -0.117708409375000 
 S -0.698872553124994 -3.02325476562500 -4.09070940937500 
 S -3.67488355312499 -2.33668776562500 -1.34086140937500 
 S -1.42755355312499 -3.13815876562500 -1.612940937499951E-002
