16

 C -2.49113793125000 -6.82204319375000 -2.29359204062500 
 C -1.17175993125000 -7.16740119375000 -1.76638904062500 
 C -2.60210793125000 -2.73084519375000 -2.38710604062500 
 C -1.39355093125000 -3.34295419375000 -1.84519104062500 
 N -0.277041931250005 -7.35683019375000 -2.71643604062500 
 N -2.59568393125000 -6.70939219375000 -3.62670704062500 
 N -2.72508593125000 -7.01205319375000 0.293833959375000 
 N -0.407601931250005 -3.53488719375000 -2.72032204062500 
 N -2.52089693125000 -2.45179119375000 -3.70675204062500 
 N -3.19378993125000 -3.26372519375000 5.475095937499974E-002
 S -1.05546093125000 -7.06078019375000 -4.18557304062500 
 S -3.61965293125000 -6.78681519375000 -1.00448104062500 
 S -1.12921693125000 -7.31164419375000 -2.829104062500054E-002
 S -0.955713931250004 -2.96974419375000 -4.14923204062500 
 S -3.93226993125000 -2.62595619375000 -1.22849204062500 
 S -1.56311993125000 -3.46026219375000 -9.622104062500014E-002
