16

 C -2.60472965625000 -6.44839849062500 -2.30457153437500 
 C -1.41058365625000 -6.87104349062500 -1.64332553437500 
 C -2.46151665625000 -2.88923049062500 -2.43447953437500 
 C -1.19083965625000 -3.37259449062500 -1.85404153437500 
 N -0.457342656249998 -7.15282849062500 -2.53897953437500 
 N -2.54123865625000 -6.29435549062500 -3.62815453437500 
 N -3.16784465625000 -6.45159749062500 0.210420465625001 
 N -0.151494656249998 -3.49443849062500 -2.67051953437500 
 N -2.37797165625000 -2.70754249062500 -3.73248053437500 
 N -2.83636565625000 -2.95037149062500 8.937546562500076E-002
 S -1.01883565625000 -6.76941449062500 -4.05792653437500 
 S -3.91789965625000 -6.13240449062500 -1.23261853437500 
 S -1.63555765625000 -7.08839549062500 6.075046562500086E-002
 S -0.828112656249997 -3.12886549062500 -4.19192253437500 
 S -3.73521765625000 -2.56197549062500 -1.26792553437500 
 S -1.22272965625000 -3.32752149062500 -6.830653437499912E-002
