16

 C -2.34516658437500 -6.27676401562500 -2.37863952812500 
 C -1.14822758437500 -6.78616401562500 -1.82848152812500 
 C -2.59998758437500 -2.61212901562500 -2.55198452812500 
 C -1.38460958437500 -3.03795501562500 -1.90472952812500 
 N -5.286258437500102E-002 -6.96914901562500 -2.61579552812500 
 N -2.21461158437500 -6.17831701562500 -3.69213752812500 
 N -2.78454258437500 -6.44883501562500 0.238382471875001 
 N -0.391002584375001 -3.38732401562500 -2.71790352812500 
 N -2.48751158437500 -2.66646801562500 -3.86891652812500 
 N -3.19703258437500 -2.74560501562500 -0.113776528124999 
 S -0.663577584375001 -6.70058401562500 -4.12817752812500 
 S -3.58093258437500 -5.98427401562500 -1.15294752812500 
 S -1.26716258437500 -7.05767801562500 -8.733952812499934E-002
 S -0.921448584375002 -3.07679401562500 -4.25935952812500 
 S -3.93921058437500 -2.19626301562500 -1.49940552812500 
 S -1.63327458437500 -3.16886401562500 -0.223603528124999 
