16

 C -2.45432609062500 -6.67194121250000 -2.23764898437500 
 C -1.12931009062500 -6.80770621250000 -1.59835798437500 
 C -2.33233309062500 -2.73667221250000 -2.52278398437500 
 C -1.03387309062500 -3.13096021250000 -1.98129998437500 
 N -7.340509062500367E-002 -6.77842021250000 -2.42411998437500 
 N -2.34626509062500 -6.57961221250000 -3.56092398437500 
 N -2.96716809062500 -6.93002021250000 0.221080015625003 
 N -0.140119090625003 -3.33847821250000 -2.93685498437500 
 N -2.32132509062500 -2.56158421250000 -3.85782198437500 
 N -2.68483709062500 -2.86526021250000 3.750901562500286E-002
 S -0.704294090625003 -6.56824921250000 -3.97841998437500 
 S -3.80459109062500 -6.64225221250000 -1.17448798437500 
 S -1.34165209062500 -7.07166321250000 0.165998015625003 
 S -0.870687090625004 -3.01918821250000 -4.45719398437500 
 S -3.56391709062500 -2.41038721250000 -1.28777298437500 
 S -1.12924309062500 -3.48980821250000 -0.239208984374997 
