16

 C -2.30774752500000 -6.41906425937500 -2.44498871562500 
 C -1.11395152500000 -7.01911925937500 -1.83711371562500 
 C -2.34998852500000 -3.05767325937500 -2.36454171562500 
 C -1.16803552500000 -3.41054725937500 -1.68919571562500 
 N -0.111078524999998 -7.21919625937501 -2.65958771562500 
 N -2.18028252500000 -6.26744225937500 -3.75606871562500 
 N -2.75697852500000 -6.73272425937500 7.508528437500228E-002
 N -0.133627524999998 -3.54668625937500 -2.58347771562500 
 N -2.26481452500000 -2.86165625937501 -3.68421771562500 
 N -2.96151552500000 -3.22550025937500 0.186004284375002 
 S -0.560151524999998 -6.61403225937500 -4.13238371562500 
 S -3.58761252500000 -6.23028825937500 -1.28005871562500 
 S -1.25822252500000 -7.42803225937500 -0.210139715624998 
 S -0.667903524999998 -3.19082225937500 -4.04333571562500 
 S -3.72414752500000 -2.79525525937501 -1.26611071562500 
 S -1.38125052500000 -3.61252925937500 3.491028437500221E-002
