16

 C -2.53283789062499 -6.19813787187500 -2.42985368750000 
 C -1.26603889062499 -6.65652387187500 -1.86305868750000 
 C -2.44007389062499 -3.09044987187500 -2.55292868750000 
 C -1.19176689062499 -3.38090287187500 -1.84330168750000 
 N -0.328941890624992 -6.89723687187500 -2.76244368750000 
 N -2.44971789062499 -6.06893887187500 -3.76774668750000 
 N -2.96671289062499 -6.27558087187500 9.253131250000046E-002
 N -9.937489062499250E-002 -3.53155287187500 -2.60366968750000 
 N -2.23801989062499 -2.94146587187500 -3.86348268750000 
 N -2.98267289062499 -2.89237787187500 -5.849368749999950E-002
 S -0.914510890624992 -6.47883187187500 -4.25059068750000 
 S -3.78739989062499 -5.91519887187500 -1.24901368750000 
 S -1.38050489062499 -6.75215387187500 -0.160129687500000 
 S -0.620966890624993 -3.30225487187500 -4.19156868750000 
 S -3.81100689062499 -2.85071587187500 -1.50814868750000 
 S -1.40054989062499 -3.25873987187500 -0.139408687500000 
