16

 C -2.60896075312500 -6.62013574375000 -2.37523799062500 
 C -1.34250875312500 -7.06047474375000 -1.73310699062500 
 C -2.40338075312500 -2.96672274375000 -2.35301199062500 
 C -1.17771675312500 -3.54664374375000 -1.83751499062500 
 N -0.351339753125000 -7.39155574375000 -2.57679499062500 
 N -2.52464175312500 -6.55524474375000 -3.69865799062500 
 N -3.03317075312500 -6.82450874375000 0.202763009375001 
 N -0.186676753125000 -3.67576274375000 -2.72645399062500 
 N -2.40081975312500 -2.81368874375000 -3.63338299062500 
 N -2.78921775312500 -3.29792974375000 0.188087009375002 
 S -0.983353753125000 -7.00265174375000 -4.09269199062500 
 S -3.87982375312500 -6.55631474375000 -1.22548599062500 
 S -1.45836075312500 -7.24761774375000 2.067200937500147E-002
 S -0.917108753125000 -3.18992774375000 -4.25955999062500 
 S -3.63470375312500 -2.74854974375000 -1.14835099062500 
 S -1.21197075312500 -3.85409774375000 -0.128336990624998 
