16

 C -2.35319321250000 -6.25775504375000 -2.41038947500000 
 C -1.28392921250000 -6.94839304375000 -1.72837747500000 
 C -2.48456521250000 -2.33220204375000 -2.46205847500000 
 C -1.38520021250000 -2.92375104375000 -1.76580947500000 
 N -0.236939212500000 -7.18590404375000 -2.49521647500000 
 N -2.13617221250000 -5.91370204375000 -3.66805747500000 
 N -3.15942521250000 -6.55454604375000 1.645452499999900E-002
 N -0.414570212500000 -3.34734504375000 -2.57504247500000 
 N -2.26550321250000 -2.13168904375000 -3.77920047500000 
 N -3.08924321250000 -2.38735804375000 2.481252499999931E-002
 S -0.652707212500000 -6.54889804375000 -4.02191647500000 
 S -3.75596421250000 -5.98078204375000 -1.38978947500000 
 S -1.61245521250000 -7.23334704375000 -8.136475000000587E-003
 S -0.793669212500000 -2.81968304375000 -4.09767247500000 
 S -3.81987421250000 -2.06443404375000 -1.42744647500000 
 S -1.58426021250000 -3.05240104375000 -7.763547500000101E-002
