16

 C -2.69517206875000 -6.35632126875000 -2.30087345937500 
 C -1.44791606875000 -6.86698426875000 -1.76152145937500 
 C -2.38992806875000 -2.74533226875000 -2.39672045937500 
 C -1.18037906875000 -3.27018526875000 -1.80997545937500 
 N -0.401722068750000 -6.97629626875000 -2.57591745937500 
 N -2.57229806875000 -6.06182226875000 -3.60065345937500 
 N -3.04575606875000 -6.78371326875000 0.257022540624996 
 N -0.178413068750000 -3.35331926875000 -2.66766445937500 
 N -2.31950306875000 -2.56192526875000 -3.73053845937500 
 N -2.99811706875000 -3.14575626875000 4.914954062499599E-002
 S -1.06123206875000 -6.56445026875000 -4.07050845937500 
 S -3.88474706875000 -6.14118026875000 -1.08180545937500 
 S -1.47758706875000 -7.23564626875000 -5.542745937500415E-002
 S -0.779817068750000 -2.89000526875000 -4.21678845937500 
 S -3.77595206875000 -2.72497626875000 -1.35451745937500 
 S -1.36544006875000 -3.62928926875000 -0.119606459375004 
