16

 C -2.33488384375000 -6.43547633125000 -2.40825099375000 
 C -1.15836484375000 -7.13024333125000 -1.84109299375000 
 C -2.48223884375000 -2.91855333125000 -2.35590299375000 
 C -1.22132584375000 -3.07868933125000 -1.69054399375000 
 N -0.105696843750004 -7.32394333125000 -2.62494299375000 
 N -2.12685484375000 -6.14259033125000 -3.66869599375000 
 N -2.86478184375000 -6.87975733125000 0.119543006250000 
 N -0.215565843750005 -3.37553833125000 -2.50858199375000 
 N -2.50594984375000 -3.02380933125000 -3.69271199375000 
 N -2.89467684375000 -2.70931933125000 0.230959006250001 
 S -0.647172843750004 -6.68877233125000 -4.08470599375000 
 S -3.63622284375000 -6.19139733125000 -1.23733899375000 
 S -1.21144684375000 -7.25427433125000 -3.381399374999949E-002
 S -0.869157843750004 -3.24034233125000 -4.05060499375000 
 S -3.70724184375000 -2.79111233125000 -1.20047999375000 
 S -1.30799384375000 -3.10430533125000 2.465200625000064E-002
