16

 C -2.53050291875001 -6.25558485000000 -2.49792610625000 
 C -1.33583391875001 -6.69987985000000 -1.90239810625000 
 C -2.37226391875001 -3.06808885000000 -2.55621310625000 
 C -1.19441991875001 -3.41293785000000 -1.87379510625000 
 N -0.289561918750008 -6.94627285000000 -2.74076010625000 
 N -2.41477291875001 -5.98775985000000 -3.79356610625000 
 N -2.93573391875001 -6.26295285000000 0.162062893749999 
 N -0.110317918750007 -3.46640285000000 -2.62351110625000 
 N -2.21490291875001 -2.90445885000000 -3.86390610625000 
 N -2.99363191875001 -2.91562185000000 -4.844810625000062E-002
 S -0.898913918750007 -6.50168185000000 -4.23308710625000 
 S -3.74236091875001 -5.93060585000000 -1.29252110625000 
 S -1.41184891875001 -6.71185485000000 -0.114999106250001 
 S -0.636600918750007 -3.27296785000000 -4.13162110625000 
 S -3.75644591875001 -2.89609485000000 -1.47995910625000 
 S -1.37087991875001 -3.31564085000000 -0.221832106250000 
