16

 C -2.50049656250000 -6.54204368125000 -2.39889502500000 
 C -1.24961056250000 -6.70429368125000 -1.72248302500000 
 C -2.48824356250000 -2.25069668125000 -2.83486002500000 
 C -1.38481956250000 -2.86448968125000 -2.12720102500000 
 N -0.246694562500002 -6.68695268125000 -2.54548302500000 
 N -2.42565156250000 -6.25951068125000 -3.69280802500000 
 N -3.06292156250000 -6.50027768125000 8.940397500000041E-002
 N -0.305227562500002 -3.13776668125000 -2.89058602500000 
 N -2.19894956250000 -2.05378368125000 -4.13510002500000 
 N -3.31163356250000 -2.73715668125000 -0.476376025000000 
 S -0.799811562500002 -6.40350268125000 -4.09439502500000 
 S -3.86257956250000 -6.48988068125000 -1.32173102500000 
 S -1.38379256250000 -6.85913668125000 -4.935702499999950E-002
 S -0.606387562500002 -2.47879468125000 -4.35285102500000 
 S -3.96337656250000 -2.06284968125000 -1.89016402500000 
 S -1.73612956250000 -3.19758668125000 -0.424460024999999 
