16

 C -2.36498912812500 -6.42270580937501 -2.39887063125000 
 C -1.17852212812500 -6.68414880937501 -1.69295263125000 
 C -2.25025612812500 -2.86810080937501 -2.33002463125000 
 C -0.974407128124998 -3.23107280937501 -1.79902963125000 
 N -0.110837128124998 -6.76234480937501 -2.46001263125000 
 N -2.24580412812500 -6.43917380937501 -3.72249063125000 
 N -3.04890512812500 -6.46219680937501 1.237036875000008E-002
 N 7.132487187500303E-002 -3.35549480937501 -2.64328663125000 
 N -2.22242312812500 -2.71928880937501 -3.65615063125000 
 N -2.61401212812500 -3.24120580937501 0.221917368750000 
 S -0.638244128124998 -6.51860080937501 -4.02075063125000 
 S -3.84595212812500 -6.25160480937501 -1.46773363125000 
 S -1.42419912812500 -6.85536580937501 -5.704863125000004E-002
 S -0.616639128124998 -2.93666880937501 -4.14123463125000 
 S -3.50730212812500 -2.83614480937501 -1.13602063125000 
 S -0.970168128124998 -3.54268080937501 -5.279963124999987E-002
