16

 C -2.49128239062500 -6.47694000312500 -2.33524062812500 
 C -1.30670839062500 -6.99775800312500 -1.71617062812500 
 C -2.47808539062500 -2.77260300312500 -2.50176562812500 
 C -1.34046239062500 -3.12024700312500 -1.81455862812500 
 N -0.247765390624996 -7.19723300312500 -2.52010562812500 
 N -2.34020439062500 -6.27727200312500 -3.63255762812500 
 N -3.15202639062500 -6.72769900312500 0.118877371874998 
 N -0.298810390624996 -3.25654300312500 -2.60097662812500 
 N -2.35045639062500 -2.46331300312500 -3.76657562812500 
 N -3.18096539062500 -3.05312400312500 -4.619362812500238E-002
 S -0.838538390624995 -6.73276100312500 -4.03871362812500 
 S -3.84267139062500 -6.42980800312500 -1.33141162812500 
 S -1.57005739062500 -7.18514100312500 -2.266062812500236E-002
 S -0.712438390624996 -2.87073500312500 -4.11704162812500 
 S -3.90967139062500 -2.69719200312500 -1.49304362812500 
 S -1.55174839062500 -3.33990000312500 -0.153882628125002 
