16

 C -2.43195598750000 -6.34852356875000 -2.33332524062500 
 C -1.29228098750000 -6.92114356875000 -1.67866024062500 
 C -2.38670698750000 -2.22723856875000 -2.50899324062500 
 C -1.21227598750000 -2.78720056875000 -1.88043724062500 
 N -0.256163987500001 -7.04496256875000 -2.48056024062500 
 N -2.30278498750000 -6.03875156875000 -3.61592424062500 
 N -3.18865898750000 -6.65697756875000 0.145158759375001 
 N -0.132389987500001 -3.04576156875000 -2.61088424062500 
 N -2.23219298750000 -2.24752056875000 -3.86969024062500 
 N -2.89885598750000 -2.43988156875000 4.217593750013293E-004
 S -0.798502987500000 -6.58256356875000 -3.97522924062500 
 S -3.76964898750000 -5.96039956875000 -1.25926824062500 
 S -1.58412898750000 -7.23064956875000 7.106775937500132E-002
 S -0.698907987500000 -2.70615256875000 -4.22462824062500 
 S -3.58503398750000 -1.83469956875000 -1.37614824062500 
 S -1.37562198750000 -3.08407956875000 -0.201712240624999 
