16

 C -2.28429636250000 -6.42919007500000 -2.23554179687500 
 C -1.10355836250000 -6.97150307500000 -1.66175279687500 
 C -2.31594936250000 -2.61940307500000 -2.42019679687500 
 C -1.10876936250000 -3.18754707500000 -1.92658979687500 
 N -0.140838362499998 -7.24976407500000 -2.54037679687500 
 N -2.21039036250000 -6.23014407500000 -3.53956779687500 
 N -2.71749236250000 -6.76318407500000 0.230631203125000 
 N -0.211905362499998 -3.40102507500000 -2.88793179687500 
 N -2.30816536250000 -2.25831007500000 -3.68218179687500 
 N -2.77223236250000 -3.20456207500000 -1.177796874999970E-003
 S -0.770223362499999 -6.82596507500000 -4.02027279687500 
 S -3.58515236250000 -6.26489307500000 -1.09302579687500 
 S -1.15303936250000 -7.21483807500000 5.600320312499996E-002
 S -0.795189362499999 -2.77337007500000 -4.28113779687500 
 S -3.55086736250000 -2.39237807500000 -1.30436479687500 
 S -1.16779336250000 -3.52260607500000 -0.274206796875000 
