16

 C -2.61519506875000 -6.43040382187501 -2.50538145625000 
 C -1.32622906875000 -6.81470882187501 -2.04752045625000 
 C -2.69323406875000 -3.04913582187501 -2.34814345625000 
 C -1.52554906875000 -3.50009082187501 -1.61525845625000 
 N -0.443864068750004 -6.93985082187501 -3.02540245625000 
 N -2.69072306875000 -6.13671682187501 -3.77665945625000 
 N -2.85873106875000 -6.64360082187501 1.756354375000013E-002
 N -0.483928068750004 -3.78566582187501 -2.35308745625000 
 N -2.51810206875000 -2.93007682187501 -3.65550345625000 
 N -3.39418206875000 -3.14330882187501 0.123453543750000 
 S -1.23501606875000 -6.56578682187501 -4.43569345625000 
 S -3.78603306875000 -6.15407082187501 -1.31120445625000 
 S -1.28430306875000 -7.16083282187501 -0.400646456250000 
 S -0.874039068750005 -3.23125782187501 -3.89273745625000 
 S -4.09236706875000 -2.70020582187501 -1.34548445625000 
 S -1.70365106875000 -3.32906582187501 0.145061543750000 
