16

 C -2.68264270937501 -6.66190901562499 -2.37014190625000 
 C -1.44946270937501 -7.17252701562499 -1.73638290625000 
 C -2.21925570937501 -2.98376701562499 -2.28689090625000 
 C -1.02844370937501 -3.37554701562499 -1.61812690625000 
 N -0.460511709375008 -7.34036801562499 -2.62856090625000 
 N -2.63178770937501 -6.56777801562499 -3.72850490625000 
 N -3.08934370937501 -6.90442901562499 0.215612093749999 
 N 4.064829062499165E-002 -3.57789001562499 -2.41856390625000 
 N -2.15717870937501 -2.92217501562499 -3.62315990625000 
 N -2.87119770937501 -3.27163501562499 0.246814093749999 
 S -1.05767270937501 -7.02239901562499 -4.15296690625000 
 S -4.01843670937501 -6.45129101562499 -1.11129890625000 
 S -1.51615370937501 -7.26707601562499 -2.022690625000068E-002
 S -0.543585709375008 -3.25507401562499 -3.94146790625000 
 S -3.55261170937501 -2.70008301562499 -1.18728390625000 
 S -1.30361270937501 -3.77364001562499 8.028509374999948E-002
