16

 C -2.22019559687500 -6.71028202500000 -2.23281955000000 
 C -0.886643596875004 -7.04384302500000 -1.71444055000000 
 C -2.52528759687500 -2.68606802500000 -2.29472555000000 
 C -1.33695159687500 -3.26095702500000 -1.73557355000000 
 N -1.555759687500391E-002 -7.04616302500000 -2.70265855000000 
 N -2.29111959687500 -6.43047102500000 -3.51051155000000 
 N -2.49887959687500 -6.99381802500000 0.280061450000001 
 N -0.356140596875004 -3.47672302500000 -2.60812555000000 
 N -2.44861259687500 -2.54262602500000 -3.61310955000000 
 N -3.00976159687500 -3.07155902500000 0.163371450000001 
 S -0.772571596875004 -6.63348602500000 -4.13782055000000 
 S -3.43213459687500 -6.48231402500000 -1.01039955000000 
 S -0.845519596875003 -7.27125802500000 7.613450000000688E-003
 S -0.897319596875003 -3.06550502500000 -4.09158355000000 
 S -3.77362359687500 -2.45857602500000 -1.17639155000000 
 S -1.42958459687500 -3.54743102500000 -1.542454999999920E-002
