16

 C -2.56704293437499 -6.23019624687500 -2.45363695312500 
 C -1.44591293437500 -7.01161424687500 -2.05424095312500 
 C -2.53156493437499 -2.63513024687500 -2.40064095312500 
 C -1.36839293437500 -3.18405224687500 -1.77097895312500 
 N -0.471578934374995 -7.25873424687500 -2.94038295312500 
 N -2.47241993437499 -5.86677624687500 -3.71071695312500 
 N -3.08255993437499 -6.96862224687500 -4.175695312500083E-002
 N -0.367754934374995 -3.41284124687500 -2.58794495312500 
 N -2.39906793437499 -2.45642224687500 -3.72319595312500 
 N -3.11945593437499 -2.96905424687500 0.116448046874999 
 S -1.00430593437499 -6.49335824687500 -4.36272595312500 
 S -3.75779993437499 -6.02481524687500 -1.25208595312500 
 S -1.63599193437499 -7.61701524687500 -0.403806953125001 
 S -0.838336934374995 -2.88034524687500 -4.08593895312500 
 S -3.87993493437499 -2.23812024687500 -1.27882495312500 
 S -1.55097993437500 -3.46194424687500 -8.017995312500070E-002
