16

 C -2.64416598437500 -6.51738014062500 -2.14565805937500 
 C -1.44085698437500 -7.18120514062500 -1.69123005937500 
 C -2.30904198437500 -2.74618314062500 -2.38343405937500 
 C -1.17159598437500 -3.36955614062500 -1.81546305937500 
 N -0.519232984375003 -7.50866914062500 -2.59720005937500 
 N -2.59206798437500 -6.31987714062500 -3.46679105937500 
 N -2.89379798437500 -6.92361714062500 0.509911940625001 
 N -0.175226984375003 -3.62308014062500 -2.64670205937500 
 N -2.21085698437500 -2.48774514062500 -3.68275905937500 
 N -2.85816998437500 -2.92542614062500 0.132075940625001 
 S -1.10836698437500 -6.91333314062500 -4.02027905937500 
 S -3.79834198437500 -6.50564714062500 -0.830305059374999 
 S -1.43267898437500 -7.55884214062500 5.747794062500144E-002
 S -0.740053984375003 -3.16121514062500 -4.14802705937500 
 S -3.66206598437500 -2.46837214062500 -1.25422605937500 
 S -1.31209198437500 -3.47068014062500 -7.058005937499878E-002
