16

 C -2.41935851875000 -6.65274490625000 -2.28562943750000 
 C -1.13858151875000 -6.94564590625000 -1.68375943750000 
 C -2.43419551875000 -2.67560690625000 -2.49485343750000 
 C -1.25808051875000 -3.20155790625000 -1.85800443750000 
 N -0.117162518749998 -7.06320090625000 -2.55060743750000 
 N -2.35857851875000 -6.47859590625000 -3.61263043750000 
 N -2.90556951875000 -6.70041590625000 0.209338562500002 
 N -0.295154518749998 -3.56660490625000 -2.71335743750000 
 N -2.38329551875000 -2.44693590625000 -3.80556443750000 
 N -3.05364851875000 -2.95054990625000 1.284956250000180E-002
 S -0.812377518749998 -6.75509290625000 -4.02110943750000 
 S -3.68075351875000 -6.53631290625000 -1.18122043750000 
 S -1.29604851875000 -6.92161690625000 0.103241562500002 
 S -0.896751518749998 -3.04867690625000 -4.20987943750000 
 S -3.75028051875000 -2.38317790625000 -1.38406843750000 
 S -1.48944251875000 -3.43623090625000 -0.135914437499998 
