16

 C -2.60523523125001 -6.59302984375000 -2.34606500000000 
 C -1.37424623125001 -6.78743984375000 -1.65332600000000 
 C -2.31096223125001 -2.99770284375000 -2.46397200000000 
 C -1.04424423125001 -3.34227884375000 -1.86524100000000 
 N -0.333133231250009 -6.82838384375000 -2.51061700000000 
 N -2.51842123125001 -6.43843384375000 -3.68412500000000 
 N -3.06060923125001 -7.05119884375000 0.166964999999999 
 N -6.337723125000849E-002 -3.66036584375000 -2.70716100000000 
 N -2.27026423125001 -2.94123884375000 -3.79258100000000 
 N -2.77804923125001 -2.99889284375000 6.140599999999896E-002
 S -0.946672231250009 -6.62813884375000 -3.99439300000000 
 S -3.97495723125001 -6.89475184375000 -1.25354700000000 
 S -1.42211223125001 -7.14692484375000 -3.216200000000113E-002
 S -0.705820231250009 -3.21865984375000 -4.22853600000000 
 S -3.57441023125001 -2.87456384375000 -1.39396000000000 
 S -1.12773823125001 -3.34774284375000 -0.107565000000001 
