16

 C -2.66247619687500 -6.29626041250000 -2.25481162500000 
 C -1.44078519687500 -6.85201241250000 -1.74605562500000 
 C -2.48336819687500 -2.97593241250000 -2.35695562500000 
 C -1.33072419687500 -3.57178141250000 -1.68303162500000 
 N -0.541904196874997 -7.13189041250000 -2.68772962500000 
 N -2.66014519687500 -6.03056241250000 -3.55795762500000 
 N -3.08040419687500 -6.82039541250000 0.160014375000000 
 N -0.229719196874997 -3.72260741250000 -2.42469162500000 
 N -2.23464919687500 -2.72985041250000 -3.63577362500000 
 N -3.12533219687500 -3.13740441250000 0.163174375000000 
 S -1.19621419687500 -6.54986341250000 -4.12686362500000 
 S -3.94486919687500 -6.05548541250000 -1.09570962500000 
 S -1.52853819687500 -7.33884241250000 -0.130967625000000 
 S -0.693536196874997 -3.19380341250000 -3.95797662500000 
 S -3.77545719687500 -2.58295241250000 -1.32466862500000 
 S -1.59600219687500 -3.86618741250000 2.013137499999962E-002
