16

 C -2.37150995937500 -6.42285238437500 -2.46914114687500 
 C -1.16566095937500 -6.82860338437500 -1.80320014687500 
 C -2.53052495937500 -2.51702838437500 -2.17851814687500 
 C -1.22720695937500 -2.96054138437500 -1.61724814687500 
 N -0.151114959375000 -7.04551638437500 -2.63392514687500 
 N -2.20935995937500 -6.19160438437500 -3.76808014687500 
 N -2.93646895937500 -6.52939638437500 7.282585312500078E-002
 N -0.230184959374999 -3.09172738437500 -2.50938314687500 
 N -2.50241195937500 -2.38196638437500 -3.50640914687500 
 N -2.93665295937500 -2.91298138437500 0.403492853125001 
 S -0.650538959374999 -6.62146338437500 -4.14575914687500 
 S -3.76073495937500 -6.14354038437500 -1.34382214687500 
 S -1.37364995937500 -7.07538338437500 -8.152314687499951E-002
 S -0.967281959375000 -2.82576738437500 -3.96608914687500 
 S -3.78465995937500 -2.39907138437500 -0.986561146874999 
 S -1.34586695937500 -3.38151538437500 0.108475853125001 
