16

 C -2.81783051250000 -6.39523841875001 -2.43851317812500 
 C -1.62561251250000 -6.91553241875001 -1.82101917812500 
 C -2.25818351250000 -2.85609041875001 -2.23940817812500 
 C -0.932576512500003 -3.20919941875001 -1.58022517812500 
 N -0.524332512500004 -6.97227141875001 -2.58241617812500 
 N -2.64522351250000 -6.14180841875001 -3.72476017812500 
 N -3.43490751250000 -6.53833941875001 4.393382187499872E-002
 N 4.283748749999639E-002 -3.46726841875001 -2.46438217812500 
 N -2.19938051250000 -2.71619141875001 -3.57068617812500 
 N -2.82451751250000 -3.15964541875001 0.243723821874999 
 S -1.01659451250000 -6.46535241875001 -4.09799317812500 
 S -4.12455251250000 -6.07111341875001 -1.37636617812500 
 S -1.85789551250000 -6.99698141875001 -9.967517812500137E-002
 S -0.631417512500003 -3.05806141875001 -3.98580917812500 
 S -3.65328351250000 -2.92430741875001 -1.17426317812500 
 S -1.14106851250000 -3.52589541875001 0.100462821874999 
