16

 C -2.48139293437500 -6.83165086250000 -2.27042187812500 
 C -1.18847893437500 -7.17874586250000 -1.81240587812500 
 C -2.59838293437500 -2.72608986250000 -2.37389587812500 
 C -1.41507193437500 -3.35431186250000 -1.78465387812500 
 N -0.294331934375001 -7.35693286250000 -2.77446587812500 
 N -2.60471193437500 -6.72052486250000 -3.57294187812500 
 N -2.64731293437500 -6.95538986250000 0.281743121875000 
 N -0.458874934375001 -3.52590986250000 -2.69321887812500 
 N -2.48978593437500 -2.51684786250000 -3.65615587812500 
 N -3.18160093437500 -3.28378986250000 1.045121875000055E-003
 S -1.07148093437500 -7.02683086250000 -4.22259787812500 
 S -3.65681293437500 -6.79907086250000 -1.06094087812500 
 S -1.07876093437500 -7.33188086250000 -4.827787812499973E-002
 S -0.955500934375001 -2.97902886250000 -4.14149687812500 
 S -3.96018693437500 -2.61147186250000 -1.30789287812500 
 S -1.54939193437500 -3.50922186250000 -7.756387812500010E-002
