16

 C -2.28095993750000 -6.15848347500000 -2.21515608437500 
 C -1.09231693750000 -6.80139547500000 -1.65096908437500 
 C -2.45358993750000 -2.86999647500000 -2.74558408437500 
 C -1.16065393750000 -3.01207347500000 -2.16036608437500 
 N -0.123218937500003 -6.86342547500000 -2.54100708437500 
 N -2.25536493750000 -5.83046447500000 -3.52508208437500 
 N -2.89777193750000 -6.52118347500000 0.262359915625002 
 N -0.137923937500004 -2.84314247500000 -2.96671108437500 
 N -2.45103393750000 -2.53293847500000 -3.99974908437500 
 N -2.91219293750000 -3.02969447500000 -0.199799084374998 
 S -0.714288937500003 -6.28119147500000 -4.01087308437500 
 S -3.68681993750000 -6.22209847500000 -1.13862608437500 
 S -1.30899993750000 -7.19397547500000 3.041291562500192E-002
 S -0.862190937500003 -2.59406947500000 -4.46507208437500 
 S -3.72033993750000 -3.00608547500000 -1.68173608437500 
 S -1.28549293750000 -3.25406947500000 -0.419485084374998 
