16

 C -2.27583672187500 -6.31511167812500 -2.40685079062500 
 C -1.14410172187500 -6.94491567812500 -1.83027879062500 
 C -2.26896872187500 -2.67702867812501 -2.42479279062500 
 C -1.13347672187500 -3.16220067812500 -1.68883579062500 
 N -0.156203721875003 -7.24362267812500 -2.64923279062500 
 N -2.08979572187500 -6.09473267812500 -3.71730779062500 
 N -2.81228772187500 -6.71352667812500 0.157940209374999 
 N -9.428072187500280E-002 -3.39362367812500 -2.48189479062500 
 N -2.03592272187500 -2.42397267812501 -3.71150879062500 
 N -2.99332272187500 -2.94142567812500 2.397920937499909E-002
 S -0.643763721875002 -6.73719967812500 -4.16867279062500 
 S -3.61652672187500 -6.21032267812500 -1.27579379062500 
 S -1.22585272187500 -7.17788967812500 -9.432179062500090E-002
 S -0.445548721875003 -2.97479667812500 -4.05274579062500 
 S -3.66024172187500 -2.41619067812500 -1.42310679062500 
 S -1.42204472187500 -3.21360467812500 -1.348079062500096E-002
