16

 C -2.48398366562500 -6.36245293125000 -2.55606591562500 
 C -1.32454366562500 -6.69426593125000 -1.79518391562500 
 C -2.27044166562500 -2.62265193125000 -2.37946391562500 
 C -1.15838166562500 -3.29473393125000 -1.72026291562500 
 N -0.180691665624999 -6.95076093125000 -2.43005591562500 
 N -2.20485166562500 -6.31602493125000 -3.85820291562500 
 N -3.25428266562500 -6.54160193125000 -0.116742915624999 
 N -0.202600665625000 -3.60457793125000 -2.61291891562500 
 N -2.22255066562500 -2.52541193125000 -3.70839691562500 
 N -3.02717466562500 -2.85965293125000 5.021108437500144E-002
 S -0.578361665625000 -6.78424293125000 -4.07357791562500 
 S -3.87734866562500 -6.12313693125000 -1.62608091562500 
 S -1.65096766562500 -6.79167493125000 -8.801091562499863E-002
 S -0.681522665625000 -3.05403593125000 -4.12714991562500 
 S -3.69479366562500 -2.33379793125000 -1.36384591562500 
 S -1.43197266562500 -3.40538493125000 -6.962915624998622E-003
