16

 C -2.32980436875000 -6.63444287812500 -2.35028867500000 
 C -1.07712636875000 -7.07541387812500 -1.70506567500000 
 C -2.87155536875000 -3.18489387812500 -2.17517267500000 
 C -1.64781836875000 -3.51930187812500 -1.49513667500000 
 N -4.742336874999786E-002 -7.34232387812500 -2.53690867500000 
 N -2.28810336875000 -6.60356687812500 -3.67078367500000 
 N -2.91093336875000 -6.95192887812500 0.167983325000002 
 N -0.615528368749998 -3.75587187812500 -2.28945167500000 
 N -2.79528536875000 -3.10057287812500 -3.50277267500000 
 N -3.50807536875000 -3.31743587812500 0.280030325000002 
 S -0.720434368749998 -7.02392687812500 -4.04257067500000 
 S -3.70717436875000 -6.49249887812500 -1.28864467500000 
 S -1.32244236875000 -7.20351287812500 2.362232500000205E-002
 S -1.17816536875000 -3.33234487812500 -3.81743967500000 
 S -4.23322736875000 -3.12651487812500 -1.16754467500000 
 S -1.89873536875000 -3.73220887812500 0.175107325000002 
