16

 C -2.50460216874999 -6.36505496875000 -2.54318566875000 
 C -1.39878016874999 -7.03411296875000 -1.94212166875000 
 C -2.42304516874999 -2.60773096875000 -2.42188666875000 
 C -1.22538116874999 -3.14136596875000 -1.81153566875000 
 N -0.340230168749988 -7.09102696875000 -2.76126166875000 
 N -2.36496416874999 -5.94211696875000 -3.79241266875000 
 N -3.10699516874999 -6.78830196875000 -6.951466875000012E-002
 N -0.227768168749988 -3.49108696875000 -2.61495566875000 
 N -2.29289416874999 -2.52111296875000 -3.73212566875000 
 N -3.03728716874999 -2.63864596875000 6.086733124999988E-002
 S -0.817217168749989 -6.46315196875000 -4.22136066875000 
 S -3.81457616874999 -6.08802296875000 -1.43530666875000 
 S -1.59604216874999 -7.38451796875000 -0.282039668750000 
 S -0.773947168749989 -2.98205096875000 -4.19086066875000 
 S -3.72368316874999 -2.16179296875000 -1.37412866875000 
 S -1.54893216874999 -3.48984996875000 -9.581166875000013E-002
