16

 C -2.50241445937500 -6.27981250000000 -2.29171829062500 
 C -1.22937145937500 -6.63463850000000 -1.67406529062500 
 C -2.42866445937500 -2.52965450000000 -2.89318229062500 
 C -1.22019845937500 -2.76753050000000 -2.17144929062500 
 N -0.218172459374998 -6.73420350000000 -2.55250529062500 
 N -2.40683945937500 -6.05116850000000 -3.59548729062500 
 N -3.00095145937500 -6.89463450000000 0.172192709374999 
 N -0.182481459374998 -2.85763050000000 -2.99396329062500 
 N -2.35330845937500 -2.41147550000000 -4.23927929062500 
 N -3.13621845937500 -2.84924750000000 -0.412789290625001 
 S -0.874566459374997 -6.40146350000000 -4.03947529062500 
 S -3.85788445937500 -6.40297850000000 -1.28475229062500 
 S -1.37837445937500 -6.94216750000000 3.961170937499880E-002
 S -0.744028459374998 -2.57202050000000 -4.55005529062500 
 S -3.86235845937500 -2.52498250000000 -1.88881929062500 
 S -1.44846645937500 -3.09962250000000 -0.443205290625001 
