16

 C -2.25054378437500 -6.29494878437501 -2.46295004687500 
 C -1.09692178437500 -6.88062578437501 -1.81418104687500 
 C -2.24495878437500 -2.73180178437500 -2.35915904687500 
 C -1.04398778437500 -3.28224278437501 -1.82124204687500 
 N -0.135533784375003 -7.14021878437500 -2.68900804687500 
 N -2.12506878437500 -5.95843278437501 -3.74927304687500 
 N -3.00191678437500 -6.84615978437501 -5.337104687499972E-002
 N -7.527878437500313E-002 -3.59066978437501 -2.65866504687500 
 N -2.23997178437500 -2.66038378437501 -3.67816204687500 
 N -2.66342878437500 -3.03176078437501 0.168338953125000 
 S -0.636093784375003 -6.59365978437500 -4.21366304687500 
 S -3.64484578437500 -6.11414378437500 -1.42076404687500 
 S -1.39400278437500 -7.19303978437500 -0.126237046875000 
 S -0.687557784375003 -3.11853378437501 -4.15143104687500 
 S -3.50151578437500 -2.67793478437501 -1.18081604687500 
 S -1.17085578437500 -3.64471878437501 -0.104203046875000 
