16

 C -2.26882067812500 -6.57734742187500 -2.28464766562500 
 C -0.923367678124995 -6.92084542187500 -1.82728066562500 
 C -2.54654667812499 -2.76040742187500 -2.36143966562500 
 C -1.27464167812500 -3.25661642187500 -1.71122966562500 
 N 1.329932187500482E-002 -6.95754042187500 -2.76718066562500 
 N -2.33949867812500 -6.45496542187500 -3.60257866562500 
 N -2.39238367812499 -6.94754442187500 0.294390334375000 
 N -0.296315678124995 -3.50354342187500 -2.60294466562500 
 N -2.45805267812499 -2.65382442187500 -3.69796466562500 
 N -3.07425367812499 -2.96607342187500 0.181245334375000 
 S -0.803367678124995 -6.69303742187500 -4.18878266562500 
 S -3.41035167812499 -6.62279942187500 -0.975852665625000 
 S -0.816320678124995 -7.27578242187500 -9.481566562500032E-002
 S -0.935615678124995 -3.07519842187500 -4.10424766562500 
 S -3.83713267812499 -2.44897842187500 -1.23242366562500 
 S -1.48438067812500 -3.53602242187500 -2.483665625000020E-003
