16

 C -2.42082276250000 -6.51392150937500 -2.28939205000000 
 C -1.27204676250000 -7.08104150937500 -1.64292505000000 
 C -2.44159376250000 -2.58901450937500 -2.46372005000000 
 C -1.24053276250000 -3.05895550937500 -1.83295905000000 
 N -0.278787762500001 -7.45374050937500 -2.44721605000000 
 N -2.32094376250000 -6.63261350937500 -3.58475805000000 
 N -3.02915676250000 -6.48034250937500 0.149126950000001 
 N -0.140890762500002 -3.10376950937500 -2.60013305000000 
 N -2.31140176250000 -2.32780750937500 -3.77573605000000 
 N -3.08135576250000 -2.91464450937500 -1.216304999999851E-002
 S -0.860450762500002 -7.24618550937500 -4.01185105000000 
 S -3.76309376250000 -6.25544450937500 -1.27580205000000 
 S -1.55325776250000 -7.29128550937500 0.103555950000001 
 S -0.729812762500002 -2.66030650937500 -4.09782305000000 
 S -3.76503176250000 -2.21768450937500 -1.37894605000000 
 S -1.53141276250000 -3.35182950937500 -0.186835049999999 
