16

 C -2.30348007812500 -6.25584332500000 -2.40419145937500 
 C -1.14228007812500 -6.69577232499999 -1.71108245937500 
 C -2.47273207812500 -2.37991732499999 -2.44699345937500 
 C -1.28404607812500 -2.98027032499999 -1.90947545937500 
 N -0.141442078124998 -7.10366932499999 -2.49960045937500 
 N -2.18180307812500 -6.13748932500000 -3.72507245937500 
 N -3.04477307812500 -6.22618032500000 7.405354062500025E-002
 N -0.267583078124998 -3.06217232500000 -2.78684045937500 
 N -2.37149907812500 -1.99454832499999 -3.73289645937500 
 N -2.91691507812500 -2.80021932500000 7.580154062500033E-002
 S -0.636367078124998 -6.74944332500000 -4.07886845937500 
 S -3.71529707812500 -5.95992032500000 -1.43498845937500 
 S -1.53626907812500 -6.91955932500000 9.448954062500037E-002
 S -0.856101078124998 -2.46907332499999 -4.20317345937500 
 S -3.74432607812500 -2.33286432499999 -1.31505445937500 
 S -1.34715507812500 -3.33325032500000 -0.184522459375000 
