16

 C -2.28031934687499 -6.63793623750000 -2.33277276250000 
 C -1.11604434687499 -7.00842523750000 -1.64612076250000 
 C -2.90699834687499 -3.23095623750000 -2.21350976250000 
 C -1.68810934687499 -3.61186523750000 -1.59441076250000 
 N -0.135581346874990 -7.32932323750000 -2.49616276250000 
 N -2.19320634687499 -6.57387623750000 -3.65517576250000 
 N -2.97702934687499 -6.94528423750000 6.003423750000136E-002
 N -0.604236346874990 -3.73837023750000 -2.38384376250000 
 N -2.80344634687499 -3.01796823750000 -3.52566976250000 
 N -3.51313534687499 -3.36827223750000 0.238161237500001 
 S -0.694213346874990 -7.14923523750000 -4.04652676250000 
 S -3.67589334687499 -6.53318623750000 -1.33808276250000 
 S -1.30359534687499 -7.22958323750000 5.793223750000132E-002
 S -1.23815834687499 -3.39293123750000 -3.91836076250000 
 S -4.28087834687499 -3.01762523750000 -1.19082676250000 
 S -1.92823834687499 -3.73325123750000 0.143946237500001 
