16

 C -2.29461699687500 -6.39255695937500 -2.36001195000000 
 C -1.17722299687500 -7.04807995937500 -1.75250295000000 
 C -2.49183899687500 -3.02796095937500 -2.35312495000000 
 C -1.21001999687500 -3.18221595937500 -1.70906695000000 
 N -0.178984996874999 -7.22785795937500 -2.59627395000000 
 N -2.14395599687500 -6.11005495937500 -3.66250995000000 
 N -2.80870499687500 -6.97386295937500 4.981905000000042E-002
 N -0.175930996874999 -3.31014295937500 -2.51271495000000 
 N -2.43881699687500 -3.10539395937500 -3.66466695000000 
 N -2.92948499687500 -2.68380795937500 0.160759050000000 
 S -0.631675996874999 -6.68648395937500 -4.10326395000000 
 S -3.61371399687500 -6.14583395937500 -1.25066195000000 
 S -1.22509799687500 -7.23839995937500 -9.764594999999976E-002
 S -0.845100996874999 -3.19195395937500 -4.03742695000000 
 S -3.79056699687500 -2.74645595937500 -1.24533395000000 
 S -1.33070999687500 -3.07318295937500 4.229050000000401E-003
