16

 C -2.45395514687500 -6.39927501875000 -2.37989321875000 
 C -1.19362714687500 -6.81535801875000 -1.79785421875000 
 C -2.31936514687500 -2.94152101875000 -2.46426421875000 
 C -1.05284114687500 -3.27488401875000 -1.82188421875000 
 N -0.212047146874998 -6.97158701875000 -2.70014121875000 
 N -2.43653614687500 -6.33258501875000 -3.72263721875000 
 N -2.92270814687500 -6.46985801875000 0.171429781250001 
 N -4.954146874997178E-003 -3.45095801875000 -2.64777821875000 
 N -2.25347614687500 -2.88416101875000 -3.80879021875000 
 N -2.77721114687500 -3.16441801875000 0.100219781250001 
 S -0.908160146874997 -6.72465301875000 -4.23931621875000 
 S -3.78482714687500 -6.28307501875000 -1.25293421875000 
 S -1.33623314687500 -6.92112401875000 -2.403421874999934E-002
 S -0.676381146874998 -3.20215501875000 -4.14256721875000 
 S -3.63422914687500 -2.70039801875000 -1.25645821875000 
 S -1.20404314687500 -3.49352701875000 -7.935121874999895E-002
