16

 C -2.67969329687500 -6.66762607812501 -2.35251426250000 
 C -1.47293029687500 -7.16231207812501 -1.75526926250000 
 C -2.22653229687500 -2.98037907812501 -2.30159826250000 
 C -1.01093629687500 -3.37476907812501 -1.67058826250000 
 N -0.473657296874997 -7.39967907812501 -2.61570326250000 
 N -2.65418629687500 -6.56047507812501 -3.69619826250000 
 N -3.09873929687500 -6.93923507812501 0.235124737499999 
 N 7.095370312500293E-002 -3.56460207812501 -2.43663326250000 
 N -2.16045729687500 -2.86747707812501 -3.63796526250000 
 N -2.88418629687500 -3.24245407812501 0.235184737499999 
 S -1.07949429687500 -7.01720607812501 -4.14391826250000 
 S -3.98398829687500 -6.45248707812501 -1.08203426250000 
 S -1.54184729687500 -7.31170607812501 1.316673749999930E-002
 S -0.563330296874996 -3.25283007812501 -3.95440026250000 
 S -3.55763629687500 -2.66288607812501 -1.16908326250000 
 S -1.29363129687500 -3.73364707812501 6.437173749999925E-002
