16

 C -2.64125416250000 -6.50333441875000 -2.31454254062500 
 C -1.37644016250000 -6.93924141875000 -1.76727954062500 
 C -2.36204116250000 -2.93876841875000 -2.37185854062500 
 C -1.19340216250000 -3.52244141875000 -1.73508354062500 
 N -0.452910162500000 -7.10469541875000 -2.70600154062500 
 N -2.62651016250000 -6.28709741875000 -3.62082454062500 
 N -3.02014116250000 -6.76913941875000 0.224518459375000 
 N -0.147153162500000 -3.68133141875000 -2.53891654062500 
 N -2.17584216250000 -2.71009541875000 -3.66470954062500 
 N -2.97274616250000 -3.03536041875000 7.601445937500051E-002
 S -1.08894616250000 -6.61158041875000 -4.12285954062500 
 S -3.91627316250000 -6.22266741875000 -1.10201454062500 
 S -1.40468416250000 -7.10216241875000 -4.946754062499958E-002
 S -0.633967162500000 -3.21220641875000 -4.05005454062500 
 S -3.70866416250000 -2.80359341875000 -1.37247054062500 
 S -1.40045916250000 -3.67127641875000 4.429459375000500E-003
