16

 C -2.44847396250000 -6.52083465937501 -2.32309000625000 
 C -1.16366296250000 -6.74553265937501 -1.73791800625000 
 C -2.59352496250000 -2.85240265937500 -2.58185700625000 
 C -1.31475296250000 -3.27423565937500 -2.05490100625000 
 N -0.117613962500005 -6.76125965937501 -2.57862800625000 
 N -2.41771196250000 -6.31796465937500 -3.64188000625000 
 N -2.97021696250000 -6.80530665937500 0.154178993750001 
 N -0.307054962500004 -3.23656065937500 -2.90848300625000 
 N -2.50092896250000 -2.48321765937501 -3.87506400625000 
 N -2.90792196250000 -3.18863465937500 -4.988200624999939E-002
 S -0.840900962500005 -6.37397665937501 -4.06521500625000 
 S -3.79161396250000 -6.49555665937500 -1.25750800625000 
 S -1.32568096250000 -7.04347765937500 2.576499375000063E-002
 S -0.936956962500004 -2.71979965937500 -4.32347800625000 
 S -3.85319996250000 -2.88014865937500 -1.40475800625000 
 S -1.31458496250000 -3.42109165937500 -0.379196006249999 
