16

 C -2.43343480312501 -6.27985505937499 -2.28849501250000 
 C -1.30975280312501 -6.90607305937499 -1.62972301250000 
 C -2.35350080312501 -2.26977305937499 -2.55890401250000 
 C -1.21242480312501 -2.82404005937499 -1.88007801250000 
 N -0.263640803125008 -7.06939905937499 -2.46740401250000 
 N -2.27120880312501 -6.13513505937499 -3.60699901250000 
 N -3.13927780312501 -6.65207105937499 0.141854987500003 
 N -0.201987803125008 -3.08028805937499 -2.68679101250000 
 N -2.30000880312501 -2.18610005937499 -3.85584201250000 
 N -2.93156580312501 -2.41816005937499 1.531987500002607E-003
 S -0.702707803125008 -6.57269105937499 -3.99060701250000 
 S -3.75383880312501 -5.95023205937499 -1.28833001250000 
 S -1.60284880312501 -7.22446805937499 4.051498750000260E-002
 S -0.710974803125008 -2.72590605937499 -4.17001401250000 
 S -3.61592180312501 -1.83460105937499 -1.38946401250000 
 S -1.39280880312501 -3.03124105937499 -0.170205012499997 
