16

 C -2.26331615937500 -6.61973981250000 -2.26330932500000 
 C -0.931675159374999 -6.94181281250000 -1.80546832500000 
 C -2.52372215937500 -2.71967981250000 -2.34413632500000 
 C -1.28479315937500 -3.27140281250000 -1.69778032500000 
 N 3.145484062500081E-002 -6.98187981250000 -2.73756732500000 
 N -2.35554215937500 -6.44179781250000 -3.58292532500000 
 N -2.39651315937500 -6.96383481250000 0.289742675000000 
 N -0.336613159374999 -3.48532281250000 -2.59770132500000 
 N -2.47962015937500 -2.64192881250000 -3.66548232500000 
 N -3.04242015937500 -2.99518581250000 0.184995675000000 
 S -0.795553159374998 -6.67678881250000 -4.18454232500000 
 S -3.42020915937500 -6.58112881250000 -0.994548325000000 
 S -0.810115159374999 -7.28245881250000 -5.756732499999995E-002
 S -0.917971159374999 -3.07469281250000 -4.11705932500000 
 S -3.83051515937500 -2.44588981250000 -1.22786232500000 
 S -1.46669515937500 -3.54404981250000 -7.463249999999366E-004
