16

 C -2.29036645625000 -6.41200728125000 -2.24753081250000 
 C -1.05392345625000 -6.98717928125000 -1.64955181250000 
 C -2.30827845625000 -2.55624328125000 -2.41225081250000 
 C -1.10648745625000 -3.19760728125000 -1.95137481250000 
 N -0.138728456250001 -7.26710328125000 -2.56254281250000 
 N -2.18974945625000 -6.24773628125000 -3.56914981250000 
 N -2.68511345625000 -6.78433928125000 0.250691187499998 
 N -0.161866456250001 -3.40603528125000 -2.86469781250000 
 N -2.28506545625000 -2.27808828125000 -3.71939481250000 
 N -2.78936145625000 -3.20368728125000 1.069918749999843E-002
 S -0.758194456250001 -6.84648628125000 -4.02879181250000 
 S -3.60150445625000 -6.20136128125000 -1.07078581250000 
 S -1.12901045625000 -7.23267128125000 4.049618749999828E-002
 S -0.771038456250001 -2.76688928125000 -4.24767881250000 
 S -3.59642945625000 -2.38115328125000 -1.30913581250000 
 S -1.16365145625000 -3.54752628125000 -0.254346812500002 
