16

 C -2.27351564687500 -6.44522757187500 -2.45631287187500 
 C -1.03644964687500 -6.74163857187500 -1.75079087187500 
 C -2.55222064687500 -2.67322457187500 -2.53976487187500 
 C -1.45471764687500 -3.22129057187500 -1.83760287187500 
 N -2.822564687499618E-002 -6.95909757187500 -2.60162187187500 
 N -2.21898464687500 -6.26146657187500 -3.78177687187500 
 N -2.83773564687500 -6.75020757187500 7.180612812499798E-002
 N -0.406518646874996 -3.55031157187500 -2.57833487187500 
 N -2.33520764687500 -2.66592657187500 -3.83657587187500 
 N -3.27550064687500 -2.93537457187500 -0.117124871875002 
 S -0.611703646874997 -6.62510457187500 -4.13630587187500 
 S -3.60048964687500 -6.29976357187500 -1.34391487187500 
 S -1.17509764687500 -6.88363757187500 -4.111387187500193E-002
 S -0.794484646874997 -3.25910857187500 -4.16759587187500 
 S -3.95029664687500 -2.45159357187500 -1.55658487187500 
 S -1.69568864687500 -3.35863457187500 -0.103050871875002 
