16

 C -2.39205616875000 -6.58781576250000 -2.25437458125000 
 C -1.23344816875000 -7.03683576250000 -1.50490658125000 
 C -2.42089316875000 -2.71299576250000 -2.39015958125000 
 C -1.21677916875000 -3.19785676250000 -1.78192158125000 
 N -0.139057168750001 -7.19391076250000 -2.26124358125000 
 N -2.09565516875000 -6.38940176250000 -3.55617158125000 
 N -3.07420816875000 -6.72676276250000 0.221046418750001 
 N -0.145499168750001 -3.13609276250000 -2.53609158125000 
 N -2.29367416875000 -2.46032576250000 -3.68760158125000 
 N -3.03412316875000 -3.25992476250000 6.828241875000063E-002
 S -0.532322168750000 -6.75787576250000 -3.79667258125000 
 S -3.74581616875000 -6.19745976250000 -1.21469258125000 
 S -1.48982216875000 -7.21480876250000 0.167256418750001 
 S -0.672797168750001 -2.66935876250000 -4.02633658125000 
 S -3.76373416875000 -2.71076276250000 -1.30747658125000 
 S -1.41223216875000 -3.62543676250000 -9.233458124999916E-002
