16

 C -2.43990035312500 -6.51354629062501 -2.29654730312500 
 C -1.12491735312500 -6.85154829062501 -1.73340130312500 
 C -2.48133435312500 -3.17048429062501 -2.06666730312500 
 C -1.26843335312500 -3.42751829062501 -1.34113430312500 
 N -0.104958353125004 -6.99899729062501 -2.59785530312500 
 N -2.38929635312500 -6.33389829062501 -3.63337530312500 
 N -2.91725235312500 -6.92786129062501 0.179966696874999 
 N -0.247936353125004 -3.58984829062501 -2.17207430312500 
 N -2.42465135312500 -3.04693529062501 -3.38972030312500 
 N -3.09464335312500 -3.36601129062501 0.403684696874999 
 S -0.799438353125004 -6.65500329062501 -4.09077030312500 
 S -3.77807635312500 -6.49849129062501 -1.18818930312500 
 S -1.28898135312500 -7.15896229062501 5.055769687499878E-002
 S -0.803883353125004 -3.22361829062501 -3.72409030312500 
 S -3.91095135312500 -3.10421629062501 -1.02782730312500 
 S -1.41325135312500 -3.56816929062501 0.426060696874999 
