16

 C -2.25511656562500 -6.22228428437500 -2.53051550625000 
 C -1.12343956562500 -6.82362228437500 -1.85248450625000 
 C -2.26727056562500 -2.91364228437500 -2.36967850625000 
 C -1.06930856562500 -3.57012428437500 -1.86801450625000 
 N -0.149339565625001 -7.10770728437500 -2.68239150625000 
 N -2.08743456562500 -5.96898828437500 -3.81572050625000 
 N -2.95119956562500 -6.73916628437500 -0.116220506250003 
 N -3.350356562500068E-002 -3.61430128437500 -2.71938550625000 
 N -2.20079556562500 -2.47899528437500 -3.63612850625000 
 N -2.60884256562500 -3.21646628437500 0.158879493749998 
 S -0.552301565625001 -6.59049928437500 -4.21189750625000 
 S -3.65054156562500 -6.06895128437500 -1.48913550625000 
 S -1.35105556562500 -7.14590728437500 -0.186347506250002 
 S -0.680203565625001 -2.97297628437500 -4.17201950625000 
 S -3.52343456562500 -2.74677028437500 -1.15832350625000 
 S -1.05513756562500 -3.75099128437500 -8.375050625000258E-002
