16

 C -2.37144652187501 -6.29941922187500 -2.44645675000000 
 C -1.22526552187501 -6.91953522187500 -1.84684175000000 
 C -2.24410052187501 -2.74618822187500 -2.39789075000000 
 C -1.04026152187501 -3.25466022187500 -1.75940775000000 
 N -0.193745521875006 -7.11465822187500 -2.67258075000000 
 N -2.16148352187501 -6.05711922187500 -3.74740775000000 
 N -3.02717352187501 -6.81563022187500 -1.406075000000118E-002
 N -7.532152187500607E-002 -3.50060822187500 -2.62630275000000 
 N -2.23949752187501 -2.66882222187500 -3.73496475000000 
 N -2.68558652187501 -2.95396422187500 0.178011249999999 
 S -0.645005521875007 -6.59498122187500 -4.18566275000000 
 S -3.68918952187501 -6.10656322187500 -1.34837275000000 
 S -1.41041152187501 -7.21489822187500 -8.256075000000118E-002
 S -0.708813521875006 -3.18036422187500 -4.14506475000000 
 S -3.53606352187501 -2.64805422187500 -1.21643475000000 
 S -1.17476452187501 -3.62784022187500 -6.099175000000123E-002
