16

 C -2.58806638125000 -6.59514787500000 -2.24216427187500 
 C -1.29041438125000 -6.80477887500000 -1.61690627187500 
 C -2.39230238125000 -2.71031187500000 -2.45410227187500 
 C -1.21429938125000 -3.26924787500000 -1.71427827187500 
 N -0.214548381250004 -6.86054687500000 -2.44090727187500 
 N -2.52369938125000 -6.52925587500000 -3.56992427187500 
 N -3.17824238125000 -6.87226987500000 0.209754728125001 
 N -0.166208381250004 -3.37966587500000 -2.49511827187500 
 N -2.13780438125000 -2.44153287500000 -3.70530127187500 
 N -3.12882338125000 -3.06703387500000 -1.449327187499883E-002
 S -0.903270381250004 -6.69064787500000 -4.00533427187500 
 S -3.96014938125000 -6.72348787500000 -1.22402727187500 
 S -1.53341538125000 -7.17265987500000 9.896072812500112E-002
 S -0.537402381250003 -2.93583087500000 -4.04068127187500 
 S -3.65927538125000 -2.28756087500000 -1.37929227187500 
 S -1.56016938125000 -3.60236187500000 -0.108798271874999 
