16

 C -2.39245626875000 -6.19691243750000 -2.40144734687500 
 C -1.26721626875000 -6.73225943750000 -1.70836234687500 
 C -2.38199726875000 -2.27270843750000 -2.35542134687500 
 C -1.20879126875000 -2.88874243750000 -1.83551134687500 
 N -0.179270268750001 -6.93929043750000 -2.48093134687500 
 N -2.18123326875000 -6.17176443750000 -3.74526234687500 
 N -3.10332626875000 -6.36614543750000 4.623765312499817E-002
 N -0.278528268750001 -3.15206543750000 -2.75114134687500 
 N -2.31964226875000 -2.00232343750000 -3.63553134687500 
 N -2.96634226875000 -2.84630743750000 7.958565312499810E-002
 S -0.695192268750001 -6.75275243750000 -4.08831034687500 
 S -3.76545826875000 -5.93923343750000 -1.41907334687500 
 S -1.51082126875000 -6.88130743750000 -2.981334687500192E-002
 S -0.814962268750000 -2.49612743750000 -4.18923734687500 
 S -3.76053026875000 -2.27713743750000 -1.24289934687500 
 S -1.39170226875000 -3.24760443750000 -0.182466346875002 
