16

 C -2.16747647187500 -6.16674922812500 -2.12569744375000 
 C -1.03008347187500 -6.84929122812500 -1.47718444375000 
 C -2.40262047187500 -2.64257922812500 -2.62971244375000 
 C -1.20012247187500 -3.05842722812500 -2.00871244375000 
 N -1.768547187499792E-002 -6.91890922812500 -2.30389944375000 
 N -2.02513847187500 -5.90409422812500 -3.41848044375000 
 N -2.84034247187500 -6.60561122812500 0.275276556249997 
 N -0.228922471874998 -3.38467722812500 -2.87015244375000 
 N -2.30283847187500 -2.57948722812500 -3.94062044375000 
 N -2.96096947187500 -3.01911322812500 -0.166038443750003 
 S -0.537446471874999 -6.52326022812500 -3.83467544375000 
 S -3.63158347187500 -6.21926722812500 -1.13814644375000 
 S -1.31012147187500 -7.30994822812500 0.129013556249997 
 S -0.741692471874998 -2.99791222812500 -4.41179144375000 
 S -3.72478247187500 -2.49708822812500 -1.54389144375000 
 S -1.35277347187500 -3.22399922812500 -0.311639443750003 
