16

 C -2.58693024375000 -6.62974792187500 -2.25798521875000 
 C -1.30462324375000 -6.82115692187500 -1.57288621875000 
 C -2.37377424375000 -2.68407292187500 -2.46094021875000 
 C -1.22163624375000 -3.28813092187500 -1.77500621875000 
 N -0.261834243750000 -6.87859292187500 -2.41647321875000 
 N -2.50323724375000 -6.49673692187500 -3.58911621875000 
 N -3.20908724375000 -6.88500492187500 0.220161781250002 
 N -0.127850243750000 -3.35887992187500 -2.51088221875000 
 N -2.11540224375000 -2.43269692187500 -3.73369221875000 
 N -3.10848424375000 -3.04139792187500 -2.637421874999757E-002
 S -0.899388243750000 -6.65786692187500 -3.96353321875000 
 S -3.98932224375000 -6.69935092187500 -1.21229921875000 
 S -1.54659324375000 -7.18359792187500 0.120249781250002 
 S -0.548279243750001 -2.91908892187500 -4.04976821875000 
 S -3.64849724375000 -2.27127092187500 -1.37224921875000 
 S -1.53276824375000 -3.62439492187500 -7.876521874999765E-002
