16

 C -2.21475370000000 -6.33578605000000 -2.35490457812500 
 C -1.03784170000000 -6.87936305000000 -1.73201957812500 
 C -2.85132970000000 -2.54253505000000 -2.53289257812500 
 C -1.60747470000000 -2.91292305000000 -1.94580757812500 
 N -4.218699999997355E-003 -7.00731505000000 -2.56791357812500 
 N -2.04735670000000 -6.12403605000000 -3.64889657812500 
 N -2.77675170000000 -6.67997605000000 0.116593421875000 
 N -0.570189699999998 -2.85597305000000 -2.75903757812500 
 N -2.79059070000000 -2.31427305000000 -3.80836657812500 
 N -3.34744170000000 -2.82110805000000 -3.438557812499932E-002
 S -0.466046699999998 -6.50721105000000 -4.04958957812500 
 S -3.52260870000000 -6.16241405000000 -1.31077957812500 
 S -1.18882970000000 -7.09784005000000 -5.730578124999663E-003
 S -1.16555370000000 -2.52015705000000 -4.18887957812500 
 S -4.16481870000000 -2.45603205000000 -1.41949457812500 
 S -1.73452970000000 -3.13292905000000 -0.241077578125000 
