16

 C -2.69833149062500 -6.67013337187501 -2.38060103125000 
 C -1.44333249062500 -7.14851837187501 -1.76291803125000 
 C -2.23811449062500 -2.98309837187501 -2.26972203125000 
 C -1.02968949062500 -3.39908837187501 -1.56008803125000 
 N -0.450118490624996 -7.29841037187501 -2.63577803125000 
 N -2.60370049062500 -6.57462137187501 -3.70896103125000 
 N -3.09890049062500 -6.87025537187501 0.197342968750001 
 N -9.652490624995735E-003 -3.58175737187501 -2.39896303125000 
 N -2.13630049062500 -2.96185437187501 -3.59609703125000 
 N -2.86365949062500 -3.29088537187501 0.241949968750001 
 S -1.04249749062500 -7.02305237187501 -4.15250803125000 
 S -4.02596749062500 -6.45245937187501 -1.14807403125000 
 S -1.48764949062500 -7.22905137187501 -4.863703124999930E-002
 S -0.527362490624996 -3.25723237187501 -3.94023203125000 
 S -3.55092449062500 -2.73343337187501 -1.20120803125000 
 S -1.30612049062500 -3.80328737187501 9.257196875000084E-002
