16

 C -2.39411589062500 -6.55564736875000 -2.39573781562500 
 C -1.13725489062500 -6.87550736875000 -1.75390181562500 
 C -2.41595989062500 -3.10018436875000 -2.15157081562500 
 C -1.05827389062500 -3.31439836875000 -1.70668681562500 
 N -0.108701890624999 -6.94529736875000 -2.63258281562500 
 N -2.30201289062500 -6.27641436875000 -3.72782781562500 
 N -2.90866589062500 -6.67914236875000 0.196698184374999 
 N -0.165574890625000 -3.42170736875000 -2.68463181562500 
 N -2.53432689062500 -2.98771836875000 -3.48334981562500 
 N -2.59804089062500 -3.35118136875000 0.367703184374999 
 S -0.711087890625000 -6.61025736875000 -4.13873181562500 
 S -3.71294389062500 -6.32246936875000 -1.23071581562500 
 S -1.31551489062500 -7.00561136875000 -3.222281562500084E-002
 S -0.976109890625000 -3.12595336875000 -4.07857181562500 
 S -3.58229089062500 -3.21646336875000 -0.911095815625001 
 S -0.953883890625000 -3.48117436875000 7.231018437499914E-002
