16

 C -2.65231161250000 -6.61449592500000 -2.34871510000000 
 C -1.34672961250000 -6.81776792500000 -1.73367610000000 
 C -2.22692561250000 -2.96871492500000 -2.48122210000000 
 C -1.03768161250000 -3.44376892500000 -1.80642110000000 
 N -0.298047612500002 -6.89568192500000 -2.49289510000000 
 N -2.53931561250000 -6.45654592500000 -3.66387010000000 
 N -3.10414361250000 -7.12485992500000 0.120773900000000 
 N -6.117961250000192E-002 -3.61870792500000 -2.68033210000000 
 N -2.17410561250000 -2.84740392500000 -3.80149910000000 
 N -2.80386861250000 -2.98330392500000 3.032989999999969E-002
 S -0.892256612500002 -6.57758692500000 -3.98543310000000 
 S -3.92407761250000 -6.91907092500000 -1.27610710000000 
 S -1.37517461250000 -7.13793692500000 -2.718010000000026E-002
 S -0.628403612500002 -3.23678192500000 -4.21299210000000 
 S -3.58804661250000 -2.83845292500000 -1.39852010000000 
 S -1.15434061250000 -3.36964792500000 -3.893310000000016E-002
