16

 C -2.66130426875000 -6.33291460000000 -2.36694907812500 
 C -1.49592126875000 -6.99124760000000 -1.90506107812500 
 C -2.46469726875000 -2.73666960000000 -2.30506207812500 
 C -1.31929726875000 -3.43752260000000 -1.63991007812500 
 N -0.544939268750001 -7.21677960000000 -2.82021407812500 
 N -2.54391426875000 -5.97000960000000 -3.63614507812500 
 N -3.06828426875000 -6.67613560000000 9.824192187500036E-002
 N -0.327478268750001 -3.73424460000000 -2.48857607812500 
 N -2.27750626875000 -2.46885160000000 -3.62520807812500 
 N -3.13093526875000 -3.06629160000000 0.261438921875000 
 S -1.10130826875000 -6.49297960000000 -4.20576307812500 
 S -3.86061526875000 -5.98668960000000 -1.20503807812500 
 S -1.54724426875000 -7.32033060000000 -0.176838078124999 
 S -0.831216268750001 -3.17459760000000 -3.96340307812500 
 S -3.76465826875000 -2.42714560000000 -1.15094907812500 
 S -1.58834026875000 -3.77215860000000 5.444592187500041E-002
