16

 C -2.33811682500000 -6.63516807500000 -2.22073350937500 
 C -1.05358782500000 -7.03720407500000 -1.61864050937500 
 C -2.36475882500000 -2.83372507500000 -2.44673250937500 
 C -1.15138082500000 -3.11553907500000 -1.73445450937500 
 N -7.608182500000193E-002 -7.07818307500000 -2.51247450937500 
 N -2.27523982500000 -6.34730407500000 -3.52339350937500 
 N -2.93370482500000 -7.00644507500000 0.241546490624999 
 N -0.126266825000002 -3.32633807500000 -2.54497350937500 
 N -2.18159182500000 -2.71330007500000 -3.75110650937500 
 N -3.08611882500000 -2.98599507500000 4.600349062499909E-002
 S -0.704945825000001 -6.67853807500000 -4.05124350937500 
 S -3.75034882500000 -6.67123107500000 -1.18610250937500 
 S -1.25077182500000 -7.31656607500000 8.246349062499925E-002
 S -0.568775825000001 -3.08665907500000 -4.11400850937500 
 S -3.75624682500000 -2.58906907500000 -1.45832050937500 
 S -1.41856782500000 -3.12047707500000 5.833049062499907E-002
