16

 C -2.30070203437500 -6.43965162500000 -2.21416000937500 
 C -1.11746503437500 -6.97133662500000 -1.67300800937500 
 C -2.32639203437500 -2.65731062500000 -2.45124200937500 
 C -1.10227003437500 -3.19178662500000 -1.94223100937500 
 N -0.143618034375000 -7.23147962500000 -2.52481700937500 
 N -2.24961203437500 -6.21396662500000 -3.52074100937500 
 N -2.77527703437500 -6.72948462500000 0.238104990624998 
 N -0.236149034374999 -3.39777662500000 -2.89777900937500 
 N -2.30284403437500 -2.24820262500000 -3.68813800937500 
 N -2.76907603437500 -3.18694262500000 -1.945400937500197E-002
 S -0.768915034375000 -6.80312762500000 -4.01789700937500 
 S -3.56344303437500 -6.33243562500000 -1.11389900937500 
 S -1.17824603437500 -7.19877062500000 6.526099062499813E-002
 S -0.830600034374999 -2.77747862500000 -4.31292900937500 
 S -3.51398803437500 -2.40973962500000 -1.27630800937500 
 S -1.17094303437500 -3.50422462500000 -0.277218009375002 
