16

 C -2.71257823750000 -6.35410384375000 -2.73236317187500 
 C -1.47244623750000 -6.70764884375000 -2.05486117187500 
 C -2.42636823750000 -2.88656384375000 -2.44908317187500 
 C -1.14723923750000 -3.15430984375000 -1.89912917187500 
 N -0.433674237499999 -6.71890184375000 -2.87463517187500 
 N -2.60855123750000 -6.07745084375000 -4.06338317187500 
 N -3.36115723750000 -6.94100684375000 -0.229825171875001 
 N -8.963723749999897E-002 -3.28431284375000 -2.73114317187500 
 N -2.41592623750000 -2.70476784375000 -3.76977917187500 
 N -2.78939123750000 -2.98985484375000 9.300282812499927E-002
 S -0.961650237499999 -6.26304984375000 -4.39931917187500 
 S -4.04833523750000 -6.23850284375000 -1.58473317187500 
 S -1.67534823750000 -6.98325284375000 -0.324186171875001 
 S -0.844468237499998 -2.99822184375000 -4.19756117187500 
 S -3.71588123750000 -2.65558884375000 -1.24777117187500 
 S -1.19093223750000 -3.21113384375000 -9.338917187500084E-002
