16

 C -2.55949451875000 -6.65152018125000 -2.33473315937500 
 C -1.32193751875000 -7.12903518125000 -1.73583015937500 
 C -2.47055951875000 -2.89459518125000 -2.35910915937500 
 C -1.25260351875000 -3.48812018125000 -1.85221115937500 
 N -0.271846518749998 -7.31520418125000 -2.55582315937500 
 N -2.45438251875000 -6.44691918125000 -3.64950515937500 
 N -3.11048451875000 -6.77107018125000 0.155218840625000 
 N -0.299758518749997 -3.69502618125000 -2.73708915937500 
 N -2.45470351875000 -2.66179518125000 -3.69756215937500 
 N -2.84105151875000 -3.34952218125000 0.156176840625000 
 S -0.942353518749997 -6.94648118125000 -4.07829215937500 
 S -3.94301951875000 -6.60534618125000 -1.28579115937500 
 S -1.54936051875000 -7.30761018125000 2.026684062500017E-002
 S -0.951651518749998 -3.16526418125000 -4.19955515937500 
 S -3.69854051875000 -2.71777318125000 -1.14841915937500 
 S -1.21425151875000 -3.65430818125000 -0.133996159375000 
