16

 C -2.42489571562501 -6.53675084375000 -2.35805712500000 
 C -1.15948471562501 -6.91443784375000 -1.74772412500000 
 C -2.14881971562501 -2.55852184375000 -2.23397512500000 
 C -1.08613671562501 -3.31861884375000 -1.62363112500000 
 N -0.128619715625012 -7.11198984375000 -2.58069412500000 
 N -2.35054571562501 -6.39421884375000 -3.68385712500000 
 N -2.91249071562501 -6.72532984375000 9.777687500000032E-002
 N -6.218171562501240E-002 -3.47255984375000 -2.46217712500000 
 N -1.91513771562501 -2.12931084375000 -3.48693412500000 
 N -2.80954771562501 -3.20736084375000 0.221531875000000 
 S -0.759325715625013 -6.65875884375000 -4.08910512500000 
 S -3.73891271562501 -6.50328984375000 -1.38677012500000 
 S -1.33569871562501 -7.16248484375000 -8.100124999999680E-003
 S -0.377857715625012 -2.70692084375000 -3.85104712500000 
 S -3.60206371562501 -2.53890784375000 -1.16893412500000 
 S -1.23844071562501 -3.73816884375000 2.605387500000034E-002
