16

 C -2.39706858437499 -6.53696550625000 -2.34177915000000 
 C -1.20077658437499 -7.16196350625000 -1.82636615000000 
 C -2.62741658437499 -2.82163050625000 -2.55077315000000 
 C -1.46789658437499 -3.22848850625000 -1.80733615000000 
 N -0.252283584374991 -7.45357750625000 -2.69015015000000 
 N -2.28918658437499 -6.37938950625000 -3.68665715000000 
 N -2.83464058437499 -7.03669150625000 0.109294850000000 
 N -0.441441584374991 -3.54037950625000 -2.62861515000000 
 N -2.48368558437499 -2.69711850625000 -3.86526415000000 
 N -3.40871058437499 -2.70138350625000 -0.129917150000000 
 S -0.819735584374992 -6.92292350625000 -4.11519515000000 
 S -3.67949158437499 -6.39849650625000 -1.23669915000000 
 S -1.26972758437499 -7.75301650625000 -0.142470150000000 
 S -0.842181584374991 -3.11594450625000 -4.17974015000000 
 S -4.10937158437499 -2.56190850625000 -1.60737215000000 
 S -1.86607758437499 -3.37020850625000 -0.120352150000000 
