16

 C -2.32426646875000 -6.27594913750001 -2.59579715625000 
 C -1.22173946875000 -6.89101813750001 -1.90738815625000 
 C -2.24255546875000 -2.89294713750001 -2.32227715625000 
 C -1.02991746875000 -3.42384013750001 -1.85941915625000 
 N -0.164447468749998 -7.03669313750001 -2.68351515625000 
 N -2.09813746875000 -6.03880013750001 -3.88619015625000 
 N -3.02114946875000 -6.59134713750001 -7.140815624999997E-002
 N -8.123046874999762E-002 -3.63262413750001 -2.77327115625000 
 N -2.18590046875000 -2.52839913750001 -3.60565815625000 
 N -2.59531646875000 -3.32374913750001 0.211330843750000 
 S -0.560402468749998 -6.55733213750001 -4.21569715625000 
 S -3.69019346875000 -5.99585413750001 -1.45475915625000 
 S -1.43731246875000 -7.08755813750001 -0.199964156250000 
 S -0.654601468749997 -2.87501313750001 -4.11054815625000 
 S -3.45184946875000 -2.87665813750001 -1.14049315625000 
 S -1.06523946875000 -3.84556113750001 -0.170286156250000 
