16

 C -2.41590666249999 -6.37784978750000 -2.55970321250000 
 C -1.28920866249999 -6.85042178750000 -1.82579221250000 
 C -2.54527166249999 -2.45061278750000 -2.46466521250000 
 C -1.32729466249999 -2.85377678750000 -1.75537121250000 
 N -0.123053662499993 -7.07412178750000 -2.46962721250000 
 N -2.14657966249999 -6.24573278750000 -3.86453621250000 
 N -3.24205166249999 -6.57560778750000 -9.670621249999733E-002
 N -0.268976662499993 -2.93420478750000 -2.52606421250000 
 N -2.44683866249999 -2.42252078750000 -3.77804021250000 
 N -3.16768066249999 -2.61501278750000 9.493578750000276E-002
 S -0.545778662499993 -6.69684978750000 -4.06049121250000 
 S -3.85719666249999 -6.10760278750000 -1.54749521250000 
 S -1.61948766249999 -6.96803478750000 -9.532421249999734E-002
 S -0.821983662499993 -2.69709478750000 -4.09741721250000 
 S -3.96785766249999 -2.33153378750000 -1.34982521250000 
 S -1.54185266249999 -3.05517778750000 -1.227212499997243E-003
