16

 C -2.24334738437501 -6.49505837500000 -2.62563567187500 
 C -1.06893138437501 -7.03829337500000 -1.94729767187500 
 C -2.71371338437501 -2.43016137500000 -2.32361167187500 
 C -1.53396938437501 -2.93126137500000 -1.61187967187500 
 N -7.326238437500709E-002 -7.30748037500000 -2.78763167187500 
 N -2.04915838437501 -6.22689437500000 -3.90153267187500 
 N -2.80898638437501 -6.47976137500000 -0.119301671875001 
 N -0.517293384375007 -3.26048837500000 -2.43549867187500 
 N -2.51419738437501 -2.43823837500000 -3.64267667187500 
 N -3.44486638437501 -2.69451737500000 9.036732812499904E-002
 S -0.586647384375007 -6.79220637500000 -4.28456267187500 
 S -3.59836538437501 -6.11854837500000 -1.52684567187500 
 S -1.23446138437501 -7.04003037500000 -0.229229671875001 
 S -0.979160384375007 -2.91350437500000 -3.94972567187500 
 S -4.08320238437501 -2.20213437500000 -1.32790167187500 
 S -1.82615438437501 -3.08574237500001 5.024332812499899E-002
