16

 C -2.34054715937499 -6.48507309687500 -2.39399657500000 
 C -1.12524215937499 -6.93688609687500 -1.72831857500000 
 C -2.59268815937499 -2.68645909687500 -2.59001557500000 
 C -1.30237115937499 -3.01137409687500 -1.95708757500000 
 N -6.631115937498677E-002 -7.27733609687500 -2.54941557500000 
 N -2.13787215937499 -6.26138909687500 -3.68934557500000 
 N -2.87825615937499 -6.27007309687500 0.108785425000000 
 N -0.252079159374987 -3.20482909687500 -2.76255257500000 
 N -2.51222115937499 -2.63571109687500 -3.91888857500000 
 N -3.15211215937499 -2.90114909687500 -6.650857499999963E-002
 S -0.648433159374988 -6.85610409687500 -4.08305657500000 
 S -3.60694315937499 -6.03609409687500 -1.36051357500000 
 S -1.35806315937499 -6.80176409687500 2.540042500000039E-002
 S -0.912752159374987 -2.82177709687500 -4.24802857500000 
 S -3.97662415937499 -2.56567909687500 -1.47688757500000 
 S -1.47175615937499 -3.09733709687500 -0.217411575000000 
