16

 C -2.59981280312500 -6.61038022187500 -2.07997126875000 
 C -1.32538880312500 -7.18225022187500 -1.64531226875000 
 C -2.40559880312500 -2.71538822187500 -2.43880726875000 
 C -1.25913780312500 -3.25695022187500 -1.80744126875000 
 N -0.435022803124996 -7.37423622187500 -2.58999426875000 
 N -2.54439780312500 -6.30581322187500 -3.36122726875000 
 N -2.79659580312500 -6.88885922187500 0.386082731249999 
 N -0.269518803124996 -3.55919522187500 -2.61729326875000 
 N -2.26470580312500 -2.58529322187500 -3.74985826875000 
 N -2.93554380312500 -2.92153422187500 8.965073124999945E-002
 S -1.10617280312500 -6.78881722187500 -3.98098326875000 
 S -3.77794080312500 -6.44018722187500 -0.872233268750001 
 S -1.31259280312500 -7.60692722187500 5.428373124999930E-002
 S -0.764096803124996 -3.17804122187500 -4.16986426875000 
 S -3.70234880312500 -2.41393222187500 -1.32569426875000 
 S -1.40747480312500 -3.56617022187500 -8.299226875000043E-002
