16

 C -2.40441384062501 -6.62328206249999 -2.24551714687500 
 C -1.12604084062501 -6.77179406249999 -1.54670714687500 
 C -2.32009284062501 -2.68937606249999 -2.50043114687500 
 C -1.08475184062501 -3.23428606249999 -1.98209314687500 
 N -0.109146840625007 -6.73994606249999 -2.42179914687500 
 N -2.33171384062501 -6.54335706249999 -3.58520214687500 
 N -3.04233184062501 -6.92983506249999 0.269921853125001 
 N -0.141183840625007 -3.42155206249999 -2.89950214687500 
 N -2.36795984062501 -2.65158406249999 -3.84433414687500 
 N -2.72128784062501 -2.90304406249999 -7.781468749992193E-004
 S -0.756937840625007 -6.63459006249999 -3.95724314687500 
 S -3.78230884062501 -6.69263106249999 -1.19820114687500 
 S -1.33457584062501 -7.05509906249999 0.157776853125001 
 S -0.790992840625006 -3.05739206249999 -4.36811614687500 
 S -3.56100984062501 -2.42092706249999 -1.35206014687500 
 S -1.18147284062501 -3.43978106249999 -0.243103146874999 
