16

 C -2.29011342812501 -6.30216212812500 -2.32552648750000 
 C -1.24890442812501 -6.92938712812500 -1.64784648750000 
 C -2.52032442812501 -2.58097612812500 -2.49292748750000 
 C -1.28810042812501 -3.04482912812500 -1.97691348750000 
 N -0.153647428125010 -7.17957012812500 -2.37675548750000 
 N -2.05186142812501 -6.17474312812500 -3.65007048750000 
 N -2.91670442812501 -6.23542112812500 0.136988512499999 
 N -0.283955428125010 -3.03328912812500 -2.84239248750000 
 N -2.43763342812501 -2.27167112812500 -3.75194648750000 
 N -2.92565042812501 -2.84028112812500 -2.557248750000096E-002
 S -0.529239428125011 -6.69881412812500 -3.93994148750000 
 S -3.65845742812501 -5.91150712812500 -1.36718948750000 
 S -1.42810942812501 -6.93199912812500 3.349051249999913E-002
 S -0.854678428125010 -2.48923612812500 -4.29584448750000 
 S -3.77743642812501 -2.36848612812500 -1.33262148750000 
 S -1.36951142812501 -3.39294712812500 -0.306046487500001 
