16

 C -2.22799513125001 -6.39546712500000 -2.39089929062500 
 C -0.950088131250006 -6.75735312500000 -1.79567929062500 
 C -2.50014413125001 -2.64022812500000 -2.41306129062500 
 C -1.32334213125001 -2.98085712500000 -1.70726329062500 
 N 8.731386874999369E-002 -6.73367112500000 -2.63159029062500 
 N -2.11823513125001 -6.28421812500000 -3.70155329062500 
 N -2.65678913125001 -6.82414212500000 0.121464709374999 
 N -0.293397131250005 -3.21955312500000 -2.52170929062500 
 N -2.44422913125001 -2.61154612500000 -3.76362629062500 
 N -3.15767213125001 -2.98201712500000 0.103730709374999 
 S -0.553303131250006 -6.50889112500000 -4.14526329062500 
 S -3.49822813125001 -6.33282912500000 -1.23572029062500 
 S -1.01581913125001 -7.07498212500000 -5.614729062500090E-002
 S -0.871042131250006 -2.98014412500000 -4.06204029062500 
 S -3.91229613125001 -2.52597212500000 -1.30740429062500 
 S -1.55167013125001 -3.37094912500000 1.805770937499895E-002
