16

 C -2.39867368750000 -6.69433806562500 -2.31058300625000 
 C -1.26038968749999 -7.15710606562500 -1.60471400625000 
 C -2.46152768749999 -2.47376906562500 -2.41909400625000 
 C -1.29010768749999 -3.00014106562500 -1.79907300625000 
 N -0.294274687499995 -7.48225406562500 -2.45017200625000 
 N -2.33792868750000 -6.56247306562500 -3.65658600625000 
 N -3.07968968749999 -6.46111106562500 0.214387993750001 
 N -0.275589687499995 -3.19740006562500 -2.61710100625000 
 N -2.34769868749999 -2.41016706562500 -3.71164900625000 
 N -3.16005268750000 -3.01911906562500 -6.674300624999918E-002
 S -0.855678687499995 -7.24173706562500 -4.02322000625000 
 S -3.73891168749999 -6.22629706562500 -1.30734900625000 
 S -1.60465068750000 -7.25528606562500 8.989999375000091E-002
 S -0.775060687499995 -2.72654106562500 -4.13597900625000 
 S -3.76473568749999 -2.18723406562500 -1.35793100625000 
 S -1.52462368749999 -3.36718006562500 -0.127412006249999 
