16

 C -2.21036427499999 -6.34020254687500 -2.37602247500000 
 C -0.976291274999987 -6.84843954687500 -1.76470847500000 
 C -2.60041627499999 -2.73197454687500 -2.27006847500000 
 C -1.37357127499999 -3.14307754687500 -1.71663247500000 
 N 1.940272500001239E-002 -6.95820454687500 -2.63501747500000 
 N -2.14488327499999 -6.15474954687500 -3.69369547500000 
 N -2.80248827499999 -6.73799554687500 0.115765525000000 
 N -0.341396274999987 -3.26093154687500 -2.55903447500000 
 N -2.46544027499999 -2.37764954687500 -3.54333947500000 
 N -3.04910527499999 -2.99863254687500 0.232247525000000 
 S -0.592525274999987 -6.52909454687500 -4.17096447500000 
 S -3.61203727499999 -6.30037554687500 -1.26016447500000 
 S -1.14052227499999 -6.96900454687500 -2.427947499999972E-002
 S -0.908303274999987 -2.72246254687500 -4.02387347500000 
 S -3.87279827499999 -2.54821154687500 -1.11534947500000 
 S -1.38909527499999 -3.22178254687500 4.017752500000027E-002
