16

 C -2.50946041562500 -6.65032800625000 -2.50831854687500 
 C -1.20478641562500 -6.80526000625000 -1.88115154687500 
 C -2.29872341562500 -3.17197400625000 -2.21013054687500 
 C -1.13647641562500 -3.65118300625000 -1.55190254687500 
 N -0.142969415624997 -6.97488100625000 -2.71477354687500 
 N -2.40952041562500 -6.55182400625000 -3.82873154687500 
 N -3.01494141562500 -6.59853000625000 5.629445312500025E-002
 N -9.985241562499603E-002 -3.91798600625000 -2.36991354687500 
 N -2.20107841562500 -2.89915100625000 -3.53510954687500 
 N -2.89429241562500 -3.50345800625000 0.310042453125000 
 S -0.820454415624996 -6.84884400625000 -4.28159554687500 
 S -3.85616241562500 -6.40829300625000 -1.40006154687500 
 S -1.38597741562500 -6.79256400625000 -0.115448546875000 
 S -0.605322415624997 -3.29605900625000 -3.82643054687500 
 S -3.71413841562500 -3.22003500625000 -1.11826154687500 
 S -1.27060041562500 -3.77089200625000 0.219240453125000 
