16

 C -2.32400328125000 -6.42551338124999 -2.62159231250000 
 C -1.15115628125000 -6.88212438124999 -1.96499531250000 
 C -2.28071528125000 -2.55539038124999 -2.53287631250000 
 C -1.01856528125000 -3.01553838124999 -2.01260731250000 
 N -0.133262281250002 -7.13355238124999 -2.76494931250000 
 N -2.21332628125000 -6.42450338124999 -3.94600231250000 
 N -3.01141328125000 -6.59094338124999 -0.112234312499999 
 N -9.783228125000143E-002 -2.98110438124999 -2.97965331250000 
 N -2.30036828125000 -2.18551438124999 -3.79565331250000 
 N -2.76581928125000 -3.25423338124999 -0.175881312499999 
 S -0.641009281250001 -6.76634238124999 -4.33246231250000 
 S -3.75121128125000 -6.07253838124999 -1.50353431250000 
 S -1.36346128125000 -6.91240538124999 -0.181697312499999 
 S -0.750151281250002 -2.50892638124999 -4.40141931250000 
 S -3.58490128125000 -2.62822838124999 -1.45547331250000 
 S -1.14959728125000 -3.59522538124999 -0.355228312499999 
