16

 C -2.47972482187500 -6.27917047187500 -2.29871184687500 
 C -1.21391982187500 -6.65677647187500 -1.66445384687500 
 C -2.43434182187500 -2.52897447187500 -2.89104984687500 
 C -1.21098882187500 -2.75594647187500 -2.18265484687500 
 N -0.203292821875005 -6.73093047187500 -2.55411284687500 
 N -2.41512582187500 -6.05342547187500 -3.60845184687500 
 N -3.00187882187500 -6.90283447187500 0.168671153125000 
 N -0.169717821875004 -2.86130047187500 -2.99572584687500 
 N -2.36088082187500 -2.43546247187500 -4.21968884687500 
 N -3.13698182187500 -2.86131847187500 -0.411665846875000 
 S -0.880301821875005 -6.39424647187500 -4.02836784687500 
 S -3.85772382187500 -6.38927647187500 -1.27763584687500 
 S -1.37706382187500 -6.94442547187500 3.867315312500019E-002
 S -0.744696821875005 -2.57112647187500 -4.56260484687500 
 S -3.86979882187500 -2.53933747187500 -1.89010084687500 
 S -1.42987382187500 -3.09782447187500 -0.443174846875000 
