16

 C -2.45326411562501 -6.74454495937499 -2.41002370937500 
 C -1.10434011562501 -7.03886295937499 -1.94393670937500 
 C -2.56816911562501 -2.91650095937499 -2.48308070937500 
 C -1.34097011562501 -3.42060795937499 -1.76885870937500 
 N -0.209094115625006 -7.11873995937499 -2.90141170937500 
 N -2.55593611562501 -6.56067695937499 -3.72916870937500 
 N -2.63491811562501 -7.11571595937499 0.119899290624998 
 N -0.315014115625006 -3.60033495937499 -2.58348370937500 
 N -2.37332711562501 -2.73941795937499 -3.79269170937500 
 N -3.18774911562501 -3.12558695937499 -3.049709375001708E-003
 S -1.01466711562501 -6.75750195937499 -4.35109670937500 
 S -3.68812511562501 -6.74457495937499 -1.15535570937500 
 S -1.01610611562501 -7.36696695937499 -0.235223709375002 
 S -0.759146115625006 -3.15755095937499 -4.06338770937500 
 S -3.90525411562501 -2.58000595937499 -1.42889370937500 
 S -1.61743911562501 -3.76356695937499 -7.570070937500173E-002
