16

 C -2.49857549375000 -6.62501023125000 -2.33729510312500 
 C -1.19885249375000 -7.00690123125000 -1.77711410312500 
 C -2.15758449375000 -3.15904223125000 -2.23903410312500 
 C -0.966285493749997 -3.68061123125000 -1.66026210312500 
 N -0.264593493749997 -7.17184923125000 -2.67590810312500 
 N -2.45552549375000 -6.55528823125000 -3.66378810312500 
 N -2.82392949375000 -6.74873023125000 0.208622896875000 
 N 3.669850625000315E-002 -3.91130523125000 -2.53338510312500 
 N -2.09662949375000 -3.04437123125000 -3.60129210312500 
 N -2.77271549375000 -3.30401823125000 0.263032896875000 
 S -0.930262493749996 -7.04012723125000 -4.15597810312500 
 S -3.75047349375000 -6.38322023125000 -1.14134710312500 
 S -1.21288549375000 -7.01050723125000 -6.142110312500026E-002
 S -0.561472493749997 -3.55193723125000 -3.96746910312500 
 S -3.51250949375000 -3.04212723125000 -1.21218310312500 
 S -1.15347049375000 -3.70066523125000 0.125497896875000 
