16

 C -2.53104601874999 -6.31925983437500 -2.52561290625000 
 C -1.26220601874999 -6.60565383437500 -1.84280390625000 
 C -2.44604601874999 -2.81043583437500 -2.55748290625000 
 C -1.22164601874999 -3.05774083437500 -1.81811590625000 
 N -0.213449018749993 -6.78397083437500 -2.70200190625000 
 N -2.37256501874999 -6.25204483437500 -3.84552590625000 
 N -3.11441501874999 -6.57227883437500 -2.755690624999962E-002
 N -0.190588018749994 -3.29640783437500 -2.63470690625000 
 N -2.31324001874999 -2.98864983437500 -3.90252490625000 
 N -2.97843001874999 -2.69277883437500 2.908093750000340E-003
 S -0.778562018749994 -6.42457783437500 -4.20951490625000 
 S -3.88539301874999 -6.11042783437500 -1.41268590625000 
 S -1.39664001874999 -6.77035883437500 -0.129910906250000 
 S -0.669453018749993 -3.30607083437500 -4.20824190625000 
 S -3.80825901874999 -2.59383483437500 -1.49041890625000 
 S -1.36550001874999 -3.15847483437500 -9.936290624999966E-002
