16

 C -2.53693778750000 -6.52552525000000 -2.46094425312500 
 C -1.30782578750000 -7.00675625000000 -1.80242225312500 
 C -2.39160278750000 -2.63338825000000 -2.25713125312500 
 C -1.19428478750000 -3.18750825000000 -1.73562725312500 
 N -0.324932787500002 -7.16498725000000 -2.67118425312500 
 N -2.48452778750000 -6.39727625000000 -3.77277225312500 
 N -3.12665478750000 -6.82040325000000 0.113838746875001 
 N -0.184574787500002 -3.42643925000000 -2.55034025312500 
 N -2.34110478750000 -2.47559125000000 -3.58794125312500 
 N -2.81272278750000 -3.11372325000000 0.240850746875001 
 S -0.870255787500001 -6.74310725000000 -4.20823425312500 
 S -3.79006278750000 -6.39612925000000 -1.29224125312500 
 S -1.51991778750000 -7.23358825000000 -8.850625312499893E-002
 S -0.827045787500001 -2.91782625000000 -4.01011525312500 
 S -3.58116878750000 -2.42434025000000 -1.04333425312500 
 S -1.22925678750000 -3.53400225000000 -3.827325312499896E-002
