16

 C -2.45423316562500 -6.62194952812500 -2.46742562500000 
 C -1.28154516562500 -7.17370852812500 -1.84061762500000 
 C -2.70791616562500 -2.75730552812500 -2.51359962500000 
 C -1.57858816562500 -3.34461852812500 -1.85182962500000 
 N -0.248611165624997 -7.26786952812500 -2.70596562500000 
 N -2.30820616562500 -6.26723352812500 -3.73031762500000 
 N -3.05213316562500 -6.87495452812500 2.211637499999952E-002
 N -0.549437165624997 -3.71727052812500 -2.59321662500000 
 N -2.52632416562500 -2.66433152812500 -3.83445762500000 
 N -3.44921616562500 -3.20466252812500 -0.135136625000001 
 S -0.749951165624997 -6.64537752812500 -4.15114062500000 
 S -3.80166216562500 -6.36341152812500 -1.39882362500000 
 S -1.39251316562500 -7.47856852812500 -0.135234625000000 
 S -0.979881165624996 -3.15672652812500 -4.09714962500000 
 S -4.07460116562500 -2.46763752812500 -1.50853362500000 
 S -1.83222016562500 -3.56060852812500 -0.175442625000001 
