16

 C -2.18398146562501 -6.53337102499999 -2.29154070000000 
 C -0.967937465625011 -6.98375102499999 -1.68968870000000 
 C -2.55401046562501 -2.64256002499999 -2.48451470000000 
 C -1.27822046562501 -2.93517802499999 -1.80679570000000 
 N 0.112643534374990 -7.05915802499999 -2.49820970000000 
 N -2.03310346562501 -6.38541402499999 -3.62319870000000 
 N -2.63159746562501 -6.75079502499999 0.260889300000000 
 N -0.313418465625011 -3.06798402499999 -2.68532770000000 
 N -2.47258946562501 -2.48186702499999 -3.79213770000000 
 N -3.03056146562501 -2.73030702499999 7.974229999999993E-002
 S -0.489025465625010 -6.75312002499999 -3.99184770000000 
 S -3.45027646562501 -6.43017402499999 -1.14368970000000 
 S -1.06604446562501 -7.23980202499999 4.835729999999994E-002
 S -0.924520465625011 -2.80249802499999 -4.19932370000000 
 S -3.86042146562501 -2.45693002499999 -1.36228070000000 
 S -1.42913346562501 -3.03505102499999 -7.472870000000031E-002
