16

 C -2.57312794062500 -6.73387336875000 -2.38341399062500 
 C -1.26623994062500 -6.82096036875000 -1.79025999062500 
 C -2.33902994062500 -2.61296536875000 -2.39412299062500 
 C -1.27678094062500 -3.23960836875000 -1.70145699062500 
 N -0.224848940625000 -6.86348336875000 -2.59374799062500 
 N -2.51941394062500 -6.58824636875000 -3.69939399062500 
 N -2.94161994062500 -6.89590536875000 0.168215009375001 
 N -0.229150940625000 -3.50053136875000 -2.48036399062500 
 N -2.18376794062500 -2.47486236875000 -3.72122399062500 
 N -3.20558394062500 -3.05981736875000 -3.885399062499850E-002
 S -0.894516940625000 -6.76989736875000 -4.10805699062500 
 S -3.82993394062500 -6.78450636875000 -1.21609399062500 
 S -1.26345794062500 -7.09277536875000 -3.392399062499862E-002
 S -0.632018940625000 -3.01765836875000 -4.02435099062500 
 S -3.82450094062500 -2.41114236875000 -1.43870299062500 
 S -1.59970694062500 -3.54855636875000 -1.062399062499852E-002
