16

 C -2.54639025000000 -6.61930123125001 -2.50278971562500 
 C -1.26788825000000 -7.04273923125001 -1.97444071562500 
 C -2.58327625000000 -2.66765023125001 -2.21023471562500 
 C -1.34218825000000 -3.11594123125001 -1.55704571562500 
 N -0.279398250000001 -7.13929123125001 -2.90381771562500 
 N -2.60933025000000 -6.45694323125001 -3.84199471562500 
 N -2.86366125000000 -6.69805123125001 9.228437500019560E-005
 N -0.402172250000000 -3.40406123125001 -2.46487971562500 
 N -2.52755525000000 -2.64004123125001 -3.55457471562500 
 N -3.14653525000000 -3.00487023125001 0.247011284375000 
 S -1.05897125000000 -6.79641823125001 -4.31561071562500 
 S -3.78902025000000 -6.41233223125001 -1.31797471562500 
 S -1.22901725000000 -7.05395323125001 -0.231071715625000 
 S -0.992910250000000 -3.07222423125001 -3.96879571562500 
 S -3.92174525000000 -2.54746423125001 -1.14972771562500 
 S -1.58914625000000 -3.65289923125001 9.389628437500019E-002
