16

 C -2.35814621562500 -6.80277063437500 -2.36394838437500 
 C -1.03043021562500 -6.98732563437500 -1.88594538437500 
 C -2.50352421562500 -2.76443263437500 -2.40305538437500 
 C -1.39582421562500 -3.27306663437500 -1.74583038437500 
 N -0.104055215625003 -6.99082363437500 -2.84569938437500 
 N -2.48699121562500 -6.58364463437500 -3.66271338437500 
 N -2.55519221562500 -7.03458963437500 0.183859615625000 
 N -0.383156215625003 -3.60047063437500 -2.51366138437500 
 N -2.34193121562500 -2.56778063437500 -3.69003238437500 
 N -3.18411121562500 -2.97105163437500 5.428861562499998E-002
 S -0.940403215625003 -6.68876463437500 -4.29750038437500 
 S -3.53940321562500 -6.78434363437500 -1.15237038437500 
 S -0.939597215625003 -7.05289663437500 -0.135299384375000 
 S -0.734653215625003 -3.07885063437500 -4.05616438437500 
 S -3.92675221562500 -2.51204763437500 -1.40118538437500 
 S -1.61112121562500 -3.41153863437500 -2.384738437500000E-002
