16

 C -2.55742695000000 -6.50703079375000 -2.14489853437500 
 C -1.41556995000000 -7.20640479375000 -1.65642353437500 
 C -2.35727095000000 -2.74000779375000 -2.44482653437500 
 C -1.17515795000000 -3.35385579375000 -1.81437653437500 
 N -0.503744949999997 -7.46540879375000 -2.57155853437500 
 N -2.62376195000000 -6.30956079375000 -3.48118453437500 
 N -2.84904695000000 -6.89425179375000 0.469373465624999 
 N -0.140314949999998 -3.60149679375000 -2.65701053437500 
 N -2.23225095000000 -2.47134479375000 -3.74772453437500 
 N -2.90752895000000 -2.89632579375000 0.125362465624999 
 S -1.10222395000000 -6.87286279375000 -4.00035853437500 
 S -3.78297495000000 -6.50201579375000 -0.815537534375001 
 S -1.40319895000000 -7.57767879375000 5.126146562499923E-002
 S -0.761863949999998 -3.17823779375000 -4.14613653437500 
 S -3.69785095000000 -2.44749379375000 -1.26076453437500 
 S -1.33207795000000 -3.50808379375000 -6.614653437500051E-002
