16

 C -2.56797025312500 -6.64882832812500 -2.31819796562500 
 C -1.31054225312500 -7.13814932812500 -1.72523396562500 
 C -2.47647125312500 -2.91000132812500 -2.36193796562500 
 C -1.22694225312500 -3.47467332812500 -1.87959296562500 
 N -0.280112253124996 -7.30601332812500 -2.57582996562500 
 N -2.45078325312500 -6.44197632812500 -3.63698696562500 
 N -3.11872025312500 -6.76879032812500 0.146600034375000 
 N -0.298653253124996 -3.69954132812500 -2.76754296562500 
 N -2.46073325312500 -2.66802732812500 -3.68960096562500 
 N -2.82141725312500 -3.35028432812500 0.151276034375000 
 S -0.948365253124996 -6.96434532812500 -4.08649096562500 
 S -3.93900325312500 -6.60585832812500 -1.28346196562500 
 S -1.54532425312500 -7.30529132812500 2.164203437500012E-002
 S -0.947526253124996 -3.17068932812500 -4.18048296562500 
 S -3.68774125312500 -2.72260832812500 -1.14996096562500 
 S -1.22052525312500 -3.67285332812500 -0.134730965625000 
