16

 C -2.41264682500000 -6.43951823750000 -2.18646244062500 
 C -1.21324082500000 -6.89610223750000 -1.58608144062500 
 C -2.18384882500000 -2.57085323750000 -2.55346644062500 
 C -1.03077282500000 -2.98413323750000 -1.85277144062500 
 N -0.232588825000000 -7.01289023750000 -2.44539944062500 
 N -2.30965182500000 -6.08547823750000 -3.47091744062500 
 N -2.86013782500000 -6.78861823750000 0.360831559375003 
 N 2.112917500000044E-002 -3.27209923750000 -2.60097144062500 
 N -1.99575382500000 -2.55466923750000 -3.86478644062500 
 N -2.95938682500000 -2.88746023750000 -0.157793440624997 
 S -0.793017825000000 -6.66181823750000 -3.95593844062500 
 S -3.74697882500000 -6.44359423750000 -0.980293440624997 
 S -1.33283682500000 -7.43323923750000 1.320755937500273E-002
 S -0.407538825000000 -2.92450523750000 -4.19558044062500 
 S -3.60501782500000 -2.31959123750000 -1.61872144062500 
 S -1.33450282500000 -3.10164323750000 -0.188283440624997 
