16

 C -2.26125423750001 -6.12269866562499 -2.19695241875000 
 C -1.03371823750001 -6.72958966562499 -1.66687941875000 
 C -2.72047423750001 -2.39652466562499 -2.67131041875000 
 C -1.46341323750001 -2.70477366562499 -2.01760941875000 
 N -8.875623750000905E-002 -7.01764666562499 -2.55075941875000 
 N -2.21774023750001 -5.91571366562500 -3.49923541875000 
 N -2.68231123750001 -6.33977266562500 0.309844581250002 
 N -0.451849237500009 -3.01538366562500 -2.85964341875000 
 N -2.66150723750001 -2.36218366562500 -4.03797041875000 
 N -3.20848823750001 -2.49661066562499 -0.128406418749998 
 S -0.735026237500009 -6.42190166562500 -3.99009441875000 
 S -3.45577323750001 -5.74130366562500 -1.04643441875000 
 S -1.13379623750001 -6.93521866562500 6.434858125000198E-002
 S -1.09792523750001 -2.77428966562499 -4.34283441875000 
 S -4.00235623750001 -2.05661266562499 -1.55413041875000 
 S -1.58197123750001 -2.84356866562499 -0.312429418749998 
