16

 C -2.58956829687500 -6.23828462187500 -2.53656814687500 
 C -1.44930529687500 -6.76201662187500 -1.82436814687500 
 C -2.17634529687500 -2.91683062187500 -2.24751214687500 
 C -0.939385296875002 -3.38572162187500 -1.73575114687500 
 N -0.391147296875003 -7.02104262187500 -2.59107914687500 
 N -2.39067329687500 -6.03673462187500 -3.84502114687500 
 N -3.32595129687500 -6.50397162187500 -4.483314687500006E-002
 N 4.479770312499731E-002 -3.39005862187500 -2.62808314687500 
 N -2.16107029687500 -2.70707262187500 -3.55898414687500 
 N -2.61577029687500 -3.46689662187500 0.188231853125000 
 S -0.856568296875003 -6.60949462187500 -4.13630214687500 
 S -3.96044629687500 -5.90725562187500 -1.43218114687500 
 S -1.75325129687500 -6.99080062187500 -0.151903146875000 
 S -0.597783296875003 -2.81556062187500 -4.02428914687500 
 S -3.47069129687500 -2.99563462187500 -1.11697814687500 
 S -1.01556229687500 -3.81336162187500 -6.439914687500026E-002
