16

 C -2.36026130312500 -6.62741072500001 -2.23050929375000 
 C -1.11770730312500 -7.04426072500001 -1.63892129375000 
 C -2.34460430312500 -2.79580972500001 -2.46597429375000 
 C -1.16921930312500 -3.15395172500001 -1.76873829375000 
 N -0.102112303125002 -7.16674172500001 -2.48658629375000 
 N -2.25873430312500 -6.36423572500001 -3.54361029375000 
 N -2.85497930312500 -6.93763072500001 0.267082706250000 
 N -9.494030312500268E-002 -3.34608072500001 -2.51346929375000 
 N -2.24092830312500 -2.66960772500001 -3.79318829375000 
 N -3.04047830312500 -3.05773072500001 3.653770624999986E-002
 S -0.724235303125003 -6.73930272500001 -3.96483029375000 
 S -3.72281330312500 -6.71947372500001 -1.11410029375000 
 S -1.26414030312500 -7.33406772500001 0.123332706250000 
 S -0.689023303125002 -3.07692672500001 -4.12718729375000 
 S -3.75931930312500 -2.63528972500001 -1.38238729375000 
 S -1.37548430312500 -3.12135072500001 -2.029375000001110E-005
