16

 C -2.56557752812500 -6.50542765937500 -2.41481767187500 
 C -1.36715252812500 -6.95613465937500 -1.79626067187500 
 C -2.54788052812500 -2.69317865937500 -2.56013467187500 
 C -1.35068052812500 -3.19146365937500 -1.85021367187500 
 N -0.343369528125003 -7.18233165937500 -2.62795367187500 
 N -2.42664752812500 -6.25376965937500 -3.73341767187500 
 N -3.06930252812500 -6.88662165937500 8.864332812499831E-002
 N -0.218355528125003 -3.31675465937500 -2.56088767187500 
 N -2.32081452812500 -2.54206165937500 -3.86324567187500 
 N -3.20238052812500 -2.91752065937500 -4.933767187500182E-002
 S -0.837681528125003 -6.71030865937500 -4.10116867187500 
 S -3.91047752812500 -6.44875965937500 -1.29777667187500 
 S -1.44121152812500 -7.18533665937500 -9.350067187500155E-002
 S -0.773450528125004 -2.95884365937500 -4.13646967187500 
 S -3.97532452812500 -2.61122665937500 -1.51492367187500 
 S -1.57394752812500 -3.30501865937500 -9.881367187500167E-002
