16

 C -2.76478333125000 -6.39666863750000 -2.46979169375000 
 C -1.60760433125000 -6.86228163750000 -1.77402569375000 
 C -2.21570933125000 -2.87335963750000 -2.23369369375000 
 C -1.00179533125000 -3.25605663750000 -1.64827269375000 
 N -0.560703331250000 -7.01547663750000 -2.57836269375000 
 N -2.60405633125000 -6.08599463750000 -3.75371869375000 
 N -3.43014533125000 -6.50298463750000 3.093730625000002E-002
 N 2.112066875000007E-002 -3.45031263750000 -2.47009169375000 
 N -2.17692133125000 -2.71752263750000 -3.54333769375000 
 N -2.74185233125000 -3.21059763750000 0.241099306250000 
 S -1.03640533125000 -6.48481963750000 -4.08346769375000 
 S -4.10880433125000 -6.06046363750000 -1.41872969375000 
 S -1.87443533125000 -7.01233663750000 -8.971969374999977E-002
 S -0.591204331250000 -3.00555463750000 -3.97434969375000 
 S -3.57544333125000 -2.95945063750000 -1.15792869375000 
 S -1.12756533125000 -3.54108963750000 8.407530625000015E-002
