16

 C -2.79814609687500 -6.40180263125000 -2.44012748750000 
 C -1.62439809687500 -6.90234463125000 -1.79910248750000 
 C -2.24375609687500 -2.85744163125000 -2.23906048750000 
 C -0.941005096874996 -3.21494463125000 -1.60112948750000 
 N -0.538110096874996 -6.98817363125000 -2.58120948750000 
 N -2.63804709687500 -6.11940963125000 -3.72980448750000 
 N -3.43518309687500 -6.52563763125000 4.298751250000055E-002
 N 4.591890312500446E-002 -3.47500863125000 -2.46105248750000 
 N -2.20063309687500 -2.71788663125000 -3.56616548750000 
 N -2.80024009687500 -3.17541163125000 0.239694512500001 
 S -1.01985509687500 -6.47091463125000 -4.09645748750000 
 S -4.11562309687500 -6.06843963125000 -1.39082648750000 
 S -1.87049409687500 -6.99986763125000 -0.102195487500000 
 S -0.616673096874996 -3.03657363125000 -3.98047248750000 
 S -3.62937309687500 -2.93844963125000 -1.16783648750000 
 S -1.13211409687500 -3.53177663125000 9.422551250000044E-002
