16

 C -2.34772984062500 -6.23408697187500 -2.26878750312500 
 C -1.13363084062500 -6.79768197187500 -1.67485650312500 
 C -2.48676584062500 -2.78804497187500 -2.70205950312500 
 C -1.19000684062500 -3.00632197187500 -2.05795550312500 
 N -0.177096840624997 -7.00280297187500 -2.54910450312500 
 N -2.20232484062500 -5.79846597187500 -3.54189050312500 
 N -2.90276684062500 -6.76921597187500 0.243152496874999 
 N -0.161702840624996 -2.92765797187500 -2.85861950312500 
 N -2.41525484062500 -2.53662197187500 -3.99607050312500 
 N -2.89290784062500 -3.03891997187500 -0.183756503125001 
 S -0.679162840624996 -6.32404097187500 -3.96646650312500 
 S -3.67742084062500 -6.17729197187500 -1.08926350312500 
 S -1.26663984062500 -7.08723497187500 4.547249687499888E-002
 S -0.773356840624997 -2.57353997187500 -4.40000450312500 
 S -3.83552584062500 -2.95676197187500 -1.54248550312500 
 S -1.24528584062500 -3.36252297187500 -0.317277503125001 
