16

 C -2.34438105937500 -6.47792623437501 -2.66467955625000 
 C -1.19666405937500 -6.91094323437501 -1.95700855625000 
 C -2.31981405937500 -2.59129723437501 -2.58302555625000 
 C -1.04059005937500 -3.09754323437501 -2.12102655625000 
 N -0.197959059375002 -7.14834823437501 -2.76510055625000 
 N -2.31388105937500 -6.29635223437501 -3.96864855625000 
 N -2.95634305937500 -6.60067923437501 -0.134075556249999 
 N -5.277605937500152E-002 -3.07980723437501 -3.01489355625000 
 N -2.25549505937500 -2.20482823437501 -3.84707955625000 
 N -2.70917105937500 -3.26125723437501 -5.730355624999861E-002
 S -0.757809059375002 -6.84845023437501 -4.30483655625000 
 S -3.62377505937500 -6.16679323437501 -1.54851255625000 
 S -1.33381005937500 -7.04063123437501 -0.252534556249999 
 S -0.709064059375001 -2.34603723437501 -4.34334955625000 
 S -3.54847705937500 -2.59769223437501 -1.31267055625000 
 S -1.15399405937500 -3.61425023437501 -0.442636556249999 
