16

 C -2.27322602812500 -6.55032072187500 -2.51551585937500 
 C -1.01092602812500 -6.93975372187500 -1.91577985937500 
 C -2.50253602812500 -2.53015972187500 -2.53186485937500 
 C -1.31820002812500 -3.07861872187500 -1.94886885937500 
 N -0.109005028125003 -7.34064872187500 -2.78338685937500 
 N -2.30527602812500 -6.55687672187501 -3.82990585937500 
 N -2.66682702812500 -6.36528672187500 -3.547085937499772E-002
 N -0.354511028125003 -3.39320972187500 -2.81898485937500 
 N -2.43000802812500 -2.37560072187500 -3.84414485937500 
 N -2.98219702812500 -2.96661672187500 -1.314685937499771E-002
 S -0.880114028125004 -7.30367272187500 -4.27265385937500 
 S -3.53916402812500 -6.32107772187500 -1.42716485937500 
 S -1.03741002812500 -6.91074272187501 -0.217553859374998 
 S -0.995383028125003 -3.04307972187500 -4.33167085937500 
 S -3.74334402812500 -2.22348772187500 -1.28800085937500 
 S -1.36819002812500 -3.48178672187500 -0.236933859374998 
