16

 C -2.57864167187499 -6.59518614062500 -2.46925018750000 
 C -1.29958367187499 -6.76380414062500 -1.76987318750000 
 C -2.61185967187499 -2.64836114062500 -2.57859718750000 
 C -1.33963067187499 -3.03615114062500 -2.04467718750000 
 N -0.220066671874991 -6.54486814062500 -2.52995918750000 
 N -2.44378167187499 -6.31409414062500 -3.78641418750000 
 N -3.02581267187499 -6.61462214062500 0.131935812500002 
 N -0.408990671874991 -3.04420314062500 -2.97953918750000 
 N -2.66284667187499 -2.49642214062500 -3.86891318750000 
 N -3.05811867187499 -3.15901414062500 -7.073718749999802E-002
 S -0.799777671874991 -6.36403714062500 -4.08621318750000 
 S -3.90545267187499 -6.45510414062500 -1.29458918750000 
 S -1.41749467187499 -6.94932414062500 -4.524618749999831E-002
 S -1.13756767187499 -2.68869414062500 -4.42507618750000 
 S -3.90903767187499 -2.64689014062500 -1.39990118750000 
 S -1.42560867187499 -3.34930614062500 -0.304747187499998 
