16

 C -2.49390760312500 -6.79577551562501 -2.19385021875000 
 C -1.17574760312500 -7.14243551562501 -1.67340421875000 
 C -2.59668460312500 -2.77431051562501 -2.37762021875000 
 C -1.43409760312500 -3.30212551562501 -1.82942221875000 
 N -0.240421603124996 -7.30543851562501 -2.58804121875000 
 N -2.49441760312500 -6.71845951562501 -3.52246221875000 
 N -2.78165160312500 -7.13251251562501 0.311986781250001 
 N -0.443911603124996 -3.41815751562501 -2.71916321875000 
 N -2.53538260312500 -2.51572251562501 -3.67953521875000 
 N -3.05377260312500 -3.09522251562501 7.916778125000068E-002
 S -0.934169603124996 -7.09181051562501 -4.08774921875000 
 S -3.78075160312500 -6.67730851562501 -0.991558218749999 
 S -1.12488660312500 -7.31927951562501 7.671781250000675E-003
 S -0.976068603124996 -2.93187251562501 -4.16622321875000 
 S -3.87731560312500 -2.55875651562501 -1.23521821875000 
 S -1.41307160312500 -3.44293651562501 -8.574621874999933E-002
