16

 C -2.56407196874999 -6.38905923437500 -2.48366377500000 
 C -1.42353096874999 -6.84471923437500 -1.70987877500000 
 C -2.46467496874999 -2.99744023437500 -2.34945877500000 
 C -1.18613296874999 -3.20598923437500 -1.69825077500000 
 N -0.426793968749993 -7.25061523437500 -2.47381677500000 
 N -2.46247896874999 -6.42868823437500 -3.82439777500000 
 N -3.24216996874999 -6.25149223437500 2.402922500000071E-002
 N -0.161285968749993 -3.34754923437500 -2.55263277500000 
 N -2.39237396874999 -2.97188123437500 -3.68074777500000 
 N -3.06147096874999 -3.10729323437500 0.149761225000001 
 S -0.860968968749993 -6.96103723437500 -4.08455277500000 
 S -3.91057696874999 -5.79538423437500 -1.48564077500000 
 S -1.64981496874999 -6.71826523437500 -3.266177499999934E-002
 S -0.774716968749993 -3.18729323437500 -4.03585377500000 
 S -3.76368296874999 -2.87431923437500 -1.29404377500000 
 S -1.41099496874999 -3.39994823437500 7.326522500000077E-002
