16

 C -2.31721001562500 -6.66038488437500 -2.49876841250000 
 C -1.13510601562500 -7.12195888437500 -1.82753041250000 
 C -2.38320901562500 -2.95328288437500 -2.48197441250000 
 C -1.23719701562500 -3.49067588437500 -1.82094141250000 
 N -0.111411015625000 -7.11138588437500 -2.67711541250000 
 N -2.19653101562500 -6.27532688437500 -3.75731241250000 
 N -2.95636201562500 -6.92577288437500 -3.301841250000037E-002
 N -0.171901015625000 -3.62453188437500 -2.59733341250000 
 N -2.19521401562500 -2.79144488437500 -3.79055241250000 
 N -3.05930001562500 -3.21440988437500 -7.824841250000047E-002
 S -0.605503015625001 -6.60223288437500 -4.14363441250000 
 S -3.66585801562500 -6.55744288437500 -1.45076141250000 
 S -1.34329601562500 -7.37479588437500 -0.136989412500000 
 S -0.656117015625000 -3.23393988437500 -4.16640241250000 
 S -3.73186101562500 -2.63861888437500 -1.46082541250000 
 S -1.47215601562500 -3.73055788437500 -0.142066412500000 
