16

 C -2.39158946562500 -6.34358850937500 -2.41673351875000 
 C -1.14089146562500 -6.75376750937500 -1.78766051875000 
 C -2.34160846562500 -2.96753750937500 -2.44114751875000 
 C -1.07214046562500 -3.21468250937500 -1.82529051875000 
 N -0.168989465625001 -6.97900050937500 -2.66010651875000 
 N -2.40145246562500 -6.34475950937500 -3.72864151875000 
 N -2.91056846562500 -6.40256350937500 0.105442481250000 
 N -4.831346562500016E-002 -3.36633750937500 -2.63716451875000 
 N -2.26818646562500 -2.86747250937500 -3.76006551875000 
 N -2.75148446562500 -3.07990350937500 8.241348124999948E-002
 S -0.844898465625000 -6.72463650937500 -4.23382351875000 
 S -3.77713246562500 -6.27840650937500 -1.30573751875000 
 S -1.30211446562500 -6.90636550937500 -4.673951875000060E-002
 S -0.686386465625000 -3.21023750937500 -4.19441651875000 
 S -3.59087546562500 -2.70470050937500 -1.27442551875000 
 S -1.15205746562500 -3.49422150937500 -8.985451875000039E-002
