16

 C -2.57939720624999 -6.24475241875000 -2.46284256875000 
 C -1.44986320624999 -7.05856341875000 -2.06407456875000 
 C -2.58272620624999 -2.57986641875000 -2.34296356875000 
 C -1.43514620624999 -3.19419641875000 -1.71460056875000 
 N -0.517234206249992 -7.26413841875000 -2.96631756875000 
 N -2.48234220624999 -5.87055941875000 -3.73386656875000 
 N -3.10486020624999 -7.05737841875000 -9.171656874999945E-002
 N -0.458182206249992 -3.45609541875000 -2.56355656875000 
 N -2.42633820624999 -2.19149241875000 -3.60375856875000 
 N -3.16195020624999 -3.02715041875000 0.134165431250000 
 S -1.10399320624999 -6.53950141875000 -4.33872156875000 
 S -3.73302620624999 -5.96915141875000 -1.27498056875000 
 S -1.55958720624999 -7.61590541875000 -0.373435568750000 
 S -0.945514206249991 -2.80255841875000 -4.07475556875000 
 S -3.87238820624999 -2.40721641875000 -1.19173356875000 
 S -1.57022620624999 -3.42634341875000 -4.076456874999956E-002
