16

 C -2.43203743750000 -6.55433840937500 -2.40804305312500 
 C -1.24164143750000 -7.17060540937500 -1.88179305312500 
 C -2.70260443750000 -2.81250940937500 -2.59873505312500 
 C -1.61222843750000 -3.34551840937500 -1.83785405312500 
 N -0.156860437500004 -7.31607140937500 -2.71685605312500 
 N -2.28498543750000 -6.26784340937500 -3.68961505312500 
 N -2.91944343750000 -6.96598940937500 0.147304946874998 
 N -0.533119437500004 -3.56639240937500 -2.55752905312500 
 N -2.44874843750000 -2.54788940937500 -3.89795205312500 
 N -3.43267143750000 -2.99553240937500 -8.001605312500160E-002
 S -0.780104437500005 -6.78227240937500 -4.19960705312500 
 S -3.69633543750000 -6.45144340937500 -1.21718805312500 
 S -1.49518843750000 -7.57171240937500 -0.164969053125002 
 S -0.919167437500004 -3.19313840937500 -4.14077405312500 
 S -4.08936043750000 -2.53881940937500 -1.56587105312500 
 S -1.83665343750000 -3.46505340937500 -0.121509053125002 
