16

 C -2.49585018437500 -6.36202247187500 -2.56527269687500 
 C -1.32667818437500 -6.70648547187500 -1.79771669687500 
 C -2.27272318437500 -2.59928147187500 -2.37660469687500 
 C -1.14489618437500 -3.30093747187500 -1.73351469687500 
 N -0.166782184374997 -6.94091947187500 -2.43215269687500 
 N -2.20737418437500 -6.28270447187500 -3.85363969687500 
 N -3.24711118437500 -6.58338647187500 -0.116899696874999 
 N -0.218283184374997 -3.63342947187500 -2.65162569687500 
 N -2.20448218437500 -2.49734147187500 -3.70530669687500 
 N -3.00659918437500 -2.86176247187500 4.892330312500115E-002
 S -0.587716184374997 -6.77222047187500 -4.06476769687500 
 S -3.86904618437500 -6.12954547187500 -1.63290469687500 
 S -1.63556618437500 -6.81100647187500 -9.746269687499876E-002
 S -0.675756184374997 -3.04861147187500 -4.12452269687500 
 S -3.70745318437500 -2.31407547187500 -1.36689369687500 
 S -1.43547618437500 -3.38790147187500 -1.100569687499897E-002
