16

 C -2.64414553749999 -6.49393810937501 -2.31188813437500 
 C -1.38017353749999 -6.94946710937500 -1.76502713437500 
 C -2.35024253749999 -2.95081410937500 -2.38377613437500 
 C -1.19051253749999 -3.51360510937500 -1.74957813437500 
 N -0.446806537499991 -7.10405210937500 -2.70415813437500 
 N -2.62224553749999 -6.30377710937501 -3.62486113437500 
 N -3.01040253749999 -6.76804810937500 0.218353865624999 
 N -0.132343537499991 -3.67829910937501 -2.54662113437500 
 N -2.17963153749999 -2.70498910937500 -3.68090113437500 
 N -2.96476253749999 -3.05176810937500 6.809486562499911E-002
 S -1.08430553749999 -6.61224210937501 -4.11659713437500 
 S -3.91459253749999 -6.22246010937500 -1.11100613437500 
 S -1.39282253749999 -7.09093510937501 -5.340913437500072E-002
 S -0.641277537499991 -3.21197910937500 -4.04736213437500 
 S -3.70602453749999 -2.79910610937500 -1.36843413437500 
 S -1.39060853749999 -3.66016010937500 1.328686562499914E-002
