16

 C -2.17974716562500 -6.86149419687500 -2.50976512812500 
 C -0.983480165625003 -7.30663719687500 -1.84334912812500 
 C -2.55763316562500 -2.62016119687500 -2.55661712812500 
 C -1.34147816562500 -3.09834119687500 -1.91976612812500 
 N -3.139716562500272E-002 -7.70832919687500 -2.64349812812500 
 N -2.14862016562500 -6.91135519687500 -3.85869412812500 
 N -2.74822616562500 -6.61198519687500 -4.030112812500097E-002
 N -0.379637165625002 -3.50114219687500 -2.76862212812500 
 N -2.44391716562500 -2.55786519687500 -3.86186512812500 
 N -3.06438716562500 -2.71028819687500 1.394287187499899E-002
 S -0.619316165625003 -7.44283019687500 -4.20984112812500 
 S -3.49797216562500 -6.31007919687500 -1.54949212812500 
 S -1.19411616562500 -7.30771319687500 -7.661612812500107E-002
 S -0.880942165625003 -3.04721419687500 -4.28616112812500 
 S -3.85385116562500 -2.38653619687500 -1.41094312812500 
 S -1.51574516562500 -3.15343319687500 -0.214675128125001 
