16

 C -2.45112866562499 -6.38798516250000 -2.58858749375000 
 C -1.25619666562499 -6.81030916250000 -1.88215149375000 
 C -2.72853966562499 -2.85803716250000 -2.46548449375000 
 C -1.58005566562499 -3.49070516250000 -1.86575549375000 
 N -0.168465665624995 -6.96964816250000 -2.65111849375000 
 N -2.24350866562499 -6.26887216250000 -3.89884849375000 
 N -3.14807166562499 -6.64893016250000 -8.638149374999871E-002
 N -0.565065665624994 -3.72483716250000 -2.67250749375000 
 N -2.61842866562499 -2.68025116250000 -3.76388049375000 
 N -3.37052166562499 -3.23430116250000 -4.365949374999878E-002
 S -0.658585665624994 -6.69246816250000 -4.21550849375000 
 S -3.89510366562499 -6.27850716250000 -1.53777949375000 
 S -1.55991266562499 -7.15475016250000 -0.119614493749999 
 S -1.02197266562499 -3.10535716250000 -4.12986549375000 
 S -4.03922366562499 -2.55739516250000 -1.40234549375000 
 S -1.80631766562499 -3.85204716250000 -0.228854493749999 
