16

 C -2.15963369374999 -6.33727967500000 -2.30196057187500 
 C -0.933387693749993 -6.82918567500000 -1.78322957187500 
 C -2.82798569374999 -2.52329967500000 -2.50319257187500 
 C -1.58552769374999 -2.96622767500000 -1.93317157187500 
 N 6.374730625000691E-002 -6.97030767500000 -2.63759157187500 
 N -2.11519669374999 -6.05918767500000 -3.59413957187500 
 N -2.66394269374999 -6.69124967500000 0.203272428124999 
 N -0.530181693749993 -2.97603267500000 -2.79971957187500 
 N -2.75649669374999 -2.35785467500000 -3.86464657187500 
 N -3.40384769374999 -2.88112667500000 4.144428124998933E-003
 S -0.586732693749993 -6.49421967500000 -4.10062657187500 
 S -3.47289469374999 -6.18821067500000 -1.17852157187500 
 S -1.07404669374999 -7.16653167500000 -4.842357187500124E-002
 S -1.13080969374999 -2.58999967500000 -4.23126357187500 
 S -4.17385269374999 -2.35714767500000 -1.40051457187500 
 S -1.77743669374999 -3.32146867500000 -0.174644571875001 
