16

 C -2.58983733437500 -6.59177053437500 -2.34415470000000 
 C -1.35226433437500 -6.94361753437500 -1.69369970000000 
 C -2.61254933437500 -2.84710653437500 -2.46514370000000 
 C -1.35957533437500 -3.23645353437500 -1.89484170000000 
 N -0.328281334375000 -7.17628553437500 -2.49040570000000 
 N -2.45122833437500 -6.52954653437500 -3.65538770000000 
 N -3.19092533437500 -6.47724553437500 0.123223300000001 
 N -0.328834334375000 -3.39412453437500 -2.74385070000000 
 N -2.59506733437500 -2.61120253437500 -3.79088970000000 
 N -3.02943433437500 -2.89384553437500 9.336330000000093E-002
 S -0.879105334375000 -6.85253053437500 -4.02382870000000 
 S -3.91640833437500 -6.18508253437500 -1.33482770000000 
 S -1.57798033437500 -6.83029353437500 2.635130000000108E-002
 S -1.05889933437500 -3.05217753437500 -4.23289970000000 
 S -3.91280733437500 -2.51076453437500 -1.29699670000000 
 S -1.43950433437500 -3.36481753437500 -0.198560699999999 
