16

 C -2.56182000937500 -6.54753040937500 -2.38011115625000 
 C -1.27859800937500 -6.85289740937500 -1.79299515625000 
 C -2.30627800937500 -2.93161240937500 -2.38509415625000 
 C -1.12651900937500 -3.37106440937500 -1.79304915625000 
 N -0.318060009375001 -7.01271840937500 -2.69943115625000 
 N -2.52263100937500 -6.29217940937500 -3.69929915625000 
 N -2.95225800937500 -6.60173340937500 0.177743843749998 
 N -0.101126009375002 -3.54487740937500 -2.59588515625000 
 N -2.22684400937500 -2.86391540937500 -3.69727015625000 
 N -2.90744300937500 -3.20847840937500 0.112851843749998 
 S -0.986891009375001 -6.69838440937500 -4.15987315625000 
 S -3.77572700937500 -6.26386640937500 -1.19951915625000 
 S -1.34926500937500 -6.95012740937500 -4.864415625000240E-002
 S -0.622326009375001 -3.19394040937500 -4.16006215625000 
 S -3.63808900937500 -2.72551940937500 -1.30019415625000 
 S -1.24076200937500 -3.51188240937500 -7.019015625000224E-002
