16

 C -2.60962094062501 -6.45827219375000 -2.46963050625000 
 C -1.46598194062501 -7.06628719375000 -1.76408850625000 
 C -2.15893794062501 -2.89646619375000 -2.42208350625000 
 C -0.988343940625007 -3.49025819375000 -1.77891250625000 
 N -0.437332940625007 -7.27718719375000 -2.53815250625000 
 N -2.48491694062501 -6.34074519375000 -3.78649850625000 
 N -3.24206694062501 -6.80471519375000 2.380149374999996E-002
 N 0.107547059374993 -3.65713919375000 -2.53700150625000 
 N -1.92957194062501 -2.47440419375000 -3.66018750625000 
 N -2.90903394062501 -3.34566319375000 3.060549374999999E-002
 S -0.891946940625007 -6.80780019375000 -4.08226050625000 
 S -3.97544994062501 -6.20708419375000 -1.36036250625000 
 S -1.66493394062501 -7.20077519375000 -4.148250624999994E-002
 S -0.408622940625007 -3.03894719375000 -4.01210750625000 
 S -3.59107194062501 -2.79974919375000 -1.40085750625000 
 S -1.30054394062501 -3.73815919375000 -2.105150625000007E-002
