16

 C -2.31411804687500 -6.79826010312500 -2.38576154687500 
 C -1.14781704687500 -7.42155910312500 -1.85708254687500 
 C -2.68135904687500 -2.86363310312500 -2.62414454687500 
 C -1.49778704687500 -3.23940710312500 -1.83133954687500 
 N -0.137952046874998 -7.62914010312500 -2.76323254687500 
 N -2.19102304687500 -6.47969310312500 -3.64116654687500 
 N -2.89327804687500 -7.09603410312500 0.183808453125000 
 N -0.406346046874999 -3.28245410312500 -2.54599854687500 
 N -2.47059304687500 -2.77365310312500 -3.94022654687500 
 N -3.35510404687500 -2.69727610312500 -0.149443546875000 
 S -0.741872046874999 -7.03111410312500 -4.19090154687500 
 S -3.48016304687500 -6.39281010312500 -1.16141954687500 
 S -1.32961804687500 -7.61945010312500 -7.664754687500031E-002
 S -0.821735046874998 -3.13782210312500 -4.12279354687500 
 S -4.03389204687500 -2.43044810312500 -1.63387654687500 
 S -1.72513304687500 -3.22294110312500 -0.126431546875000 
