16

 C -2.43007832812499 -6.48397085000000 -2.58388008750000 
 C -1.24849032812499 -6.90322185000000 -1.84686408750000 
 C -2.71942832812499 -2.85185485000000 -2.50995308750000 
 C -1.61399432812499 -3.50328185000000 -1.87665308750000 
 N -0.184241328124992 -7.00674285000000 -2.62540108750000 
 N -2.24407032812499 -6.23893285000000 -3.89478408750000 
 N -3.14252132812499 -6.69640185000000 1.896912500000569E-003
 N -0.531913328124992 -3.66906985000000 -2.63556108750000 
 N -2.56960432812499 -2.63919685000000 -3.81692408750000 
 N -3.38994732812499 -3.22307885000000 -2.112608749999922E-002
 S -0.634548328124992 -6.67306985000000 -4.24544708750000 
 S -3.87322532812499 -6.30133885000000 -1.49818708750000 
 S -1.59065432812499 -7.16167485000000 -0.181214087499999 
 S -1.06594032812499 -3.12550185000000 -4.14994008750000 
 S -3.97840732812499 -2.54499685000000 -1.40740608750000 
 S -1.86011132812499 -3.82579485000000 -0.184164087499999 
