16

 C -2.36786227812500 -6.47865012812500 -2.15933532187500 
 C -1.14072327812500 -7.08635612812500 -1.66884532187500 
 C -2.26959927812500 -2.75782012812500 -2.62889632187500 
 C -1.09072827812500 -3.16553912812500 -1.96163332187500 
 N -4.219827812500476E-002 -6.96840012812500 -2.41550532187500 
 N -2.23528627812501 -6.03167812812500 -3.40580132187500 
 N -2.94571227812501 -7.06486212812500 0.270903678124999 
 N -4.093727812500525E-002 -3.42288212812500 -2.76755632187500 
 N -2.14606127812500 -2.66182112812500 -3.93752032187500 
 N -2.85467527812501 -2.59607812812500 -0.176109321875001 
 S -0.598510278125005 -6.23826012812500 -3.80204432187500 
 S -3.64524427812500 -6.32183812812500 -0.998612321875001 
 S -1.26518427812500 -7.34100612812500 0.130359678124999 
 S -0.598629278125005 -3.09500912812500 -4.31928632187500 
 S -3.65222927812500 -2.38998912812500 -1.62642332187500 
 S -1.34723127812500 -3.21916512812500 -0.283205321875001 
