16

 C -2.35255051562500 -6.62727575312500 -2.30970865000000 
 C -1.12450051562500 -6.98924675312500 -1.70021865000000 
 C -2.33685151562500 -2.77520875312500 -2.46860665000000 
 C -1.13747451562500 -3.15821375312500 -1.69662465000000 
 N -4.975451562500144E-002 -7.03523175312500 -2.51152965000000 
 N -2.27796251562500 -6.39096475312500 -3.61141365000000 
 N -2.90923751562500 -7.06845375312500 0.219069349999998 
 N -3.143051562500077E-002 -3.32029375312500 -2.45506465000000 
 N -2.21273151562500 -2.76714375312500 -3.80118065000000 
 N -3.06723151562500 -2.88666375312500 4.233499999979351E-004
 S -0.729767515625001 -6.62467275312500 -3.99921165000000 
 S -3.69623751562500 -6.63977275312500 -1.22700265000000 
 S -1.27302251562500 -7.30191275312500 3.169334999999807E-002
 S -0.571280515625001 -3.06627275312500 -4.01906365000000 
 S -3.76220451562500 -2.54771775312500 -1.47718765000000 
 S -1.46168551562500 -3.13789375312500 2.515434999999799E-002
