16

 C -2.39646633125001 -6.54710642812500 -2.37309091562500 
 C -1.21167733125001 -7.14822142812500 -1.85510191562500 
 C -2.70364933125001 -2.77944742812500 -2.61719491562500 
 C -1.59296133125001 -3.36231942812500 -1.85969491562500 
 N -0.210697331250008 -7.34806842812500 -2.68299491562500 
 N -2.30576533125001 -6.28285342812500 -3.70466991562500 
 N -2.90889833125001 -6.97528742812500 0.157235084375001 
 N -0.459922331250008 -3.54234042812500 -2.56873191562500 
 N -2.39769133125001 -2.57833042812500 -3.91006691562500 
 N -3.42278933125001 -2.90980142812500 -5.997691562499941E-002
 S -0.782087331250009 -6.82406842812500 -4.19753591562500 
 S -3.67853733125001 -6.45602542812500 -1.20170891562500 
 S -1.44828533125001 -7.62638042812500 -0.177095915624999 
 S -0.908794331250008 -3.17794442812500 -4.17376091562500 
 S -4.11630433125001 -2.55419242812500 -1.57613691562500 
 S -1.84788433125001 -3.44069842812500 -9.085891562499948E-002
