16

 C -2.33171326562499 -6.37796940937500 -2.18333971562500 
 C -1.06030426562499 -6.81539740937500 -1.70747271562500 
 C -2.47859026562499 -2.78569540937500 -2.49568871562500 
 C -1.32487326562499 -3.27941540937500 -1.78803771562500 
 N -0.104502265624994 -6.92299740937500 -2.63606971562500 
 N -2.35776726562499 -6.17678040937500 -3.48904871562500 
 N -2.61994526562499 -6.65224640937500 0.404748284375000 
 N -0.208510265624994 -3.43608540937500 -2.50004971562500 
 N -2.27212026562499 -2.61658640937500 -3.79003071562500 
 N -3.02181126562499 -2.74309940937500 5.933428437499977E-002
 S -0.829648265624994 -6.41115840937500 -4.06348971562500 
 S -3.47671426562499 -6.08592940937500 -0.948955715625000 
 S -1.07550726562499 -7.15241040937500 0.108006284375000 
 S -0.731541265624994 -3.06014640937500 -4.04432271562500 
 S -3.76092126562499 -2.34045740937500 -1.39138271562500 
 S -1.49659726562499 -3.39845340937500 -0.143373715625000 
