16

 C -2.34099741249999 -6.42546554375000 -2.42709035000000 
 C -1.09630941249999 -6.73300454375000 -1.77838035000000 
 C -2.53105041249999 -2.65044054375000 -2.59317135000000 
 C -1.38197341249999 -3.11264954375000 -1.81026435000000 
 N -7.288341249999153E-002 -6.89537354375000 -2.58319635000000 
 N -2.19906441249999 -6.34374454375000 -3.74890335000000 
 N -2.86960141249999 -6.67058254375000 4.951865000000022E-002
 N -0.426814412499992 -3.56186954375000 -2.60648535000000 
 N -2.37060041249999 -2.64769254375000 -3.93381135000000 
 N -3.29546641249999 -2.93554854375000 -4.244034999999990E-002
 S -0.648383412499991 -6.69262454375000 -4.12274235000000 
 S -3.66935741249999 -6.27310254375000 -1.37914735000000 
 S -1.21327841249999 -6.89577654375000 -7.508349999999941E-003
 S -0.854921412499992 -3.24278154375000 -4.16893135000000 
 S -3.94972041249999 -2.46048554375000 -1.53953835000000 
 S -1.67987041249999 -3.40132254375000 -9.743334999999997E-002
