16

 C -2.35037411562500 -6.40606769687501 -2.24963299687500 
 C -1.13275211562500 -6.87010469687501 -1.63090199687500 
 C -2.39000911562500 -2.57280069687501 -2.40057899687500 
 C -1.15974611562500 -3.12792069687501 -1.81918699687500 
 N -0.114635115624997 -6.91565869687501 -2.49992599687500 
 N -2.25433311562500 -6.23958769687501 -3.54079399687500 
 N -2.84676511562500 -6.64130569687501 0.267030003125001 
 N -0.159267115624997 -3.33493969687501 -2.67055299687500 
 N -2.27447711562500 -2.41339669687501 -3.70508199687500 
 N -3.03176911562500 -3.09313069687501 5.579500312500074E-002
 S -0.706621115624996 -6.55010469687501 -4.02851399687500 
 S -3.70151511562500 -6.32863369687501 -1.16344999687500 
 S -1.34573511562500 -7.31061469687501 2.663800312500086E-002
 S -0.724071115624996 -2.74805769687501 -4.12975399687500 
 S -3.75960611562500 -2.44342969687501 -1.32568799687500 
 S -1.37477311562500 -3.49938369687501 -0.106169996874999 
