16

 C -2.26580230937500 -6.25099987187501 -2.39143469375000 
 C -1.15830830937500 -6.84976887187501 -1.62918069375000 
 C -2.53193730937500 -2.53339287187501 -2.51668069375000 
 C -1.27558330937500 -3.03888787187501 -1.95058969375000 
 N -0.177460309374998 -7.17157587187501 -2.43827869375000 
 N -2.10684230937500 -6.18726787187501 -3.67965869375000 
 N -2.97924830937500 -6.18620987187501 7.041230625000172E-002
 N -0.256815309374999 -3.02809687187501 -2.80243869375000 
 N -2.42555630937500 -2.09099687187501 -3.79251169375000 
 N -2.89083030937500 -2.80518887187501 1.319130625000176E-002
 S -0.583110309374999 -6.70792087187501 -4.00319969375000 
 S -3.66946230937500 -5.94703087187501 -1.38763069375000 
 S -1.49024730937500 -6.93024687187501 7.448630625000163E-002
 S -0.876528309374999 -2.47353987187501 -4.24002569375000 
 S -3.77582630937500 -2.35277287187501 -1.33400969375000 
 S -1.34271330937500 -3.38985787187501 -0.228678693749998 
