16

 C -2.46557262812500 -6.30904602500000 -2.55066084062500 
 C -1.33126262812500 -6.82796302500000 -1.82225884062500 
 C -2.42537362812500 -2.46329402500000 -2.43270584062500 
 C -1.24570062812500 -3.05073702500000 -1.75260584062500 
 N -0.284458628125002 -7.15152202500000 -2.58648284062500 
 N -2.34138862812500 -6.22035902500000 -3.89548084062500 
 N -3.21670362812500 -6.53636102500000 -7.103084062500065E-002
 N -0.203478628125001 -3.28146802500000 -2.50188384062500 
 N -2.25658062812500 -2.40062802500000 -3.72631084062500 
 N -3.08317462812500 -2.55473002500000 4.759159374999156E-003
 S -0.792516628125002 -6.70753702500000 -4.15788784062500 
 S -3.87527062812500 -5.98368502500000 -1.53547484062500 
 S -1.63380662812500 -6.97800302500000 -9.477584062500100E-002
 S -0.744232628125001 -2.82473902500000 -4.09397684062500 
 S -3.79406862812500 -2.15194602500000 -1.44799284062500 
 S -1.43489362812500 -3.00885802500000 -8.438840625000665E-003
