16

 C -2.34199936875000 -6.32196360937500 -2.34123833750000 
 C -1.24286136875000 -6.94244860937500 -1.67438833750000 
 C -2.50740936875000 -2.58771560937500 -2.50074933750000 
 C -1.26928136875000 -3.04733860937500 -1.99214933750000 
 N -0.127379368750001 -7.18843260937500 -2.36767733750000 
 N -2.04860436875000 -6.15232560937500 -3.62751933750000 
 N -2.91836736875000 -6.25563960937500 0.148307662500002 
 N -0.279248368750000 -3.04390260937500 -2.85138033750000 
 N -2.44596036875000 -2.32496260937500 -3.78020233750000 
 N -2.93143636875000 -2.86720760937500 -1.873833749999831E-002
 S -0.506665368750000 -6.70079860937500 -3.91181233750000 
 S -3.65219236875000 -5.89730760937500 -1.34979433750000 
 S -1.40219136875000 -6.93722660937500 3.461366250000175E-002
 S -0.858357368750000 -2.50081760937500 -4.30347433750000 
 S -3.78168436875000 -2.37255860937500 -1.33394433750000 
 S -1.38234636875000 -3.39017560937500 -0.325443337499998 
