16

 C -2.41130282812500 -6.54519100312500 -2.42317913125000 
 C -1.12447782812500 -6.84658200312500 -1.79663613125000 
 C -2.39615482812500 -3.12555100312500 -2.19275313125000 
 C -1.07561382812500 -3.31973400312500 -1.72343413125000 
 N -5.911882812500036E-002 -6.94165900312500 -2.62537313125000 
 N -2.28487282812500 -6.27554000312500 -3.72083713125000 
 N -2.93388282812500 -6.65038600312500 0.196372868750000 
 N -0.142653828125000 -3.40406900312500 -2.67685613125000 
 N -2.58131782812500 -3.05330500312500 -3.50859513125000 
 N -2.60280582812500 -3.35575400312500 0.392902868750000 
 S -0.679111828125000 -6.60923400312500 -4.14567213125000 
 S -3.71855882812500 -6.31001200312500 -1.22736213125000 
 S -1.31080882812500 -7.00488400312500 -5.301213125000026E-002
 S -1.01162082812500 -3.13662300312500 -4.06401013125000 
 S -3.58781782812500 -3.23661700312500 -0.885273131250000 
 S -0.939689828125000 -3.47654600312500 9.551186874999984E-002
