16

 C -2.41524340937500 -6.48873195625000 -2.61170060625000 
 C -1.20509440937500 -6.93775195625000 -2.00850760625000 
 C -2.59794340937500 -2.54535795625000 -2.35893260625000 
 C -1.48363840937500 -3.09761695625000 -1.69058160625000 
 N -0.123142409374998 -7.06292895625000 -2.77547360625000 
 N -2.22076340937500 -6.20009495625000 -3.90753860625000 
 N -2.98632540937500 -6.85991895625000 -7.058460624999796E-002
 N -0.466742409374999 -3.50578895625000 -2.44065460625000 
 N -2.44002040937500 -2.34488195625000 -3.68483760625000 
 N -3.39652240937500 -2.91279595625000 0.173819393750002 
 S -0.661218409374999 -6.58988495625000 -4.26206460625000 
 S -3.74007540937500 -6.45954895625000 -1.44981360625000 
 S -1.36154740937500 -7.14913095625000 -0.262334606249998 
 S -0.886823409374998 -3.01049695625000 -3.97769660625000 
 S -3.95414640937500 -2.22315495625000 -1.22954760625000 
 S -1.74812640937500 -3.25780895625000 5.517639375000183E-002
