16

 C -2.45442545000000 -6.68477720000000 -2.29051800937500 
 C -1.20667045000000 -6.91822420000000 -1.63275200937500 
 C -2.35700545000000 -2.61088620000000 -2.51368800937500 
 C -1.11138045000000 -3.18845720000000 -2.03533600937500 
 N -0.116222449999999 -6.85393620000000 -2.39266600937500 
 N -2.31550845000000 -6.47092520000000 -3.61034000937500 
 N -2.91809345000000 -6.81224320000000 0.290101990625000 
 N -0.163598449999999 -3.30286920000000 -2.93675300937500 
 N -2.42314745000000 -2.46520120000000 -3.84201900937500 
 N -2.59058345000000 -2.92243920000000 3.880199062500012E-002
 S -0.722320449999998 -6.57944120000000 -3.88300900937500 
 S -3.73189045000000 -6.61827420000000 -1.18588400937500 
 S -1.28759545000000 -7.07865520000000 6.494699062500020E-002
 S -0.898701449999998 -2.97595320000000 -4.35579700937500 
 S -3.51584545000000 -2.42718420000000 -1.28237900937500 
 S -1.09901845000000 -3.48541820000000 -0.347069009375000 
