16

 C -2.29680255937500 -6.31063913437500 -2.42186122500000 
 C -1.06967255937500 -6.88409013437500 -1.80258822500000 
 C -2.27638755937500 -2.60079013437500 -2.43960622500000 
 C -1.09884355937500 -3.09584013437500 -1.73445222500000 
 N -9.592155937500024E-002 -7.15347313437500 -2.68262322500000 
 N -2.17530455937500 -6.07730113437500 -3.72488022500000 
 N -2.93909455937500 -6.70572613437500 -4.372622500000145E-002
 N -5.085955937499964E-002 -3.46131613437500 -2.49030122500000 
 N -2.06710855937500 -2.48198413437500 -3.75315922500000 
 N -3.06117055937500 -2.92297513437500 -2.844222500000160E-002
 S -0.679770559375000 -6.68338513437500 -4.17278122500000 
 S -3.71096355937500 -6.24490113437500 -1.38590322500000 
 S -1.29596055937500 -7.11975313437500 -8.471422500000170E-002
 S -0.553813559375000 -2.98866013437500 -4.01488822500000 
 S -3.75063455937500 -2.39116613437500 -1.43907022500000 
 S -1.34066655937500 -3.16307613437500 2.554277499999835E-002
