16

 C -2.47435907187499 -6.45425447500000 -2.32543696250000 
 C -1.18928507187499 -6.85071647500000 -1.71794296250000 
 C -2.53323307187499 -2.80187747500000 -2.36962596250000 
 C -1.36576707187499 -3.26166947500000 -1.69095296250000 
 N -0.185403071874994 -7.01144547500000 -2.59161996250000 
 N -2.41986707187499 -6.36692247500000 -3.65402696250000 
 N -2.96573107187499 -6.91382047500000 0.177892037500002 
 N -0.263523071874994 -3.36994447500000 -2.44613596250000 
 N -2.40080607187499 -2.75778247500000 -3.69961096250000 
 N -3.09413007187499 -2.91434547500000 0.182137037500002 
 S -0.861417071874994 -6.64599747500000 -4.09938196250000 
 S -3.74995207187499 -6.49776247500000 -1.20461996250000 
 S -1.29049107187499 -7.20942047500000 1.788903750000204E-002
 S -0.835134071874994 -3.09137547500000 -4.09566696250000 
 S -3.83409807187499 -2.48178747500000 -1.23628296250000 
 S -1.54333007187499 -3.49908347500000 -3.608696249999799E-002
