16

 C -2.47128259062499 -6.14005857812500 -2.38758922187500 
 C -1.27823359062499 -6.78808857812500 -1.82275322187500 
 C -2.55008259062499 -2.51537757812500 -2.44309422187500 
 C -1.38855059062499 -3.09494357812500 -1.73975522187500 
 N -0.253168590624995 -6.99619057812500 -2.66831322187500 
 N -2.34800259062499 -5.95966157812500 -3.72796922187500 
 N -2.87292259062499 -6.36562457812500 0.109680778125000 
 N -0.347357590624995 -3.31280657812500 -2.52398522187500 
 N -2.40541759062500 -2.32179957812500 -3.76813822187500 
 N -3.03759359062499 -2.46331457812500 0.111639778125000 
 S -0.777128590624995 -6.41832857812500 -4.12361122187500 
 S -3.77874059062499 -6.10603457812500 -1.30125422187500 
 S -1.33223559062499 -7.09194257812500 -0.116572221875000 
 S -0.888221590624995 -2.94042557812500 -4.04360422187500 
 S -3.78179359062499 -1.98357357812500 -1.31137522187500 
 S -1.58538459062499 -3.28524257812500 2.159277812500027E-002
