16

 C -2.43099382500000 -6.37523445937499 -2.56723418437500 
 C -1.24727182500000 -6.70510645937499 -1.88773118437500 
 C -2.37352082500000 -2.90538645937499 -2.49201518437500 
 C -1.13070282500000 -3.22065045937499 -1.88360218437500 
 N -0.127546825000001 -6.82855645937499 -2.63021918437500 
 N -2.24593282500000 -6.21168745937499 -3.86619218437500 
 N -3.14329682500000 -6.37424945937499 -7.135218437500068E-002
 N -0.121927825000002 -3.22805345937499 -2.74599318437500 
 N -2.32654382500000 -2.74411445937499 -3.80128318437500 
 N -2.93161282500000 -2.83718845937499 -4.417618437500082E-002
 S -0.670927825000001 -6.56171745937499 -4.18007318437500 
 S -3.81613982500000 -6.22315745937499 -1.54559118437500 
 S -1.48289782500000 -6.79274945937499 -0.135495184375001 
 S -0.747446825000002 -2.98672245937499 -4.24990818437500 
 S -3.74286682500000 -2.52167045937499 -1.49765418437500 
 S -1.29641282500000 -3.16443045937499 -0.176944184375001 
