16

 C -2.37133857500000 -6.21462756562500 -2.21754590312500 
 C -1.20655957500000 -6.76347356562500 -1.56906790312500 
 C -2.29016857500000 -2.57598056562500 -2.14148190312500 
 C -1.10887557500000 -3.07681756562500 -1.53958590312500 
 N -0.117241575000004 -6.98544256562500 -2.29054290312500 
 N -2.14742357500000 -5.99206056562500 -3.49655590312500 
 N -2.98501557500000 -6.44331356562500 0.325326096874998 
 N -0.145905575000004 -3.16702756562500 -2.43279390312500 
 N -2.23003157500000 -2.19183356562500 -3.40919290312500 
 N -2.97300957500000 -3.09964456562500 0.226561096874998 
 S -0.514624575000004 -6.40354256562500 -3.84360190312500 
 S -3.73855057500000 -6.12794956562499 -1.11749290312500 
 S -1.46676157500000 -7.15162356562500 0.147733096874998 
 S -0.627349575000004 -2.49537456562500 -3.82979790312500 
 S -3.70664457500000 -2.44635856562500 -1.14208290312500 
 S -1.36889557500000 -3.68879556562500 9.763409687499824E-002
