16

 C -2.38035344687499 -6.28650132812500 -2.20367399375000 
 C -1.19686044687499 -6.90188432812500 -1.65214399375000 
 C -2.41993844687499 -2.74284232812500 -2.58409599375000 
 C -1.19012244687499 -3.03628732812500 -1.97036199375000 
 N -0.190608446874993 -7.00287232812500 -2.49480799375000 
 N -2.21197044687499 -5.99291132812500 -3.46213099375000 
 N -2.86354544687499 -6.92921732812500 0.196987006249999 
 N -0.155308446874993 -2.99790932812500 -2.79263799375000 
 N -2.36515544687499 -2.50469632812500 -3.89525699375000 
 N -2.96077844687499 -3.10927132812500 -5.760799375000047E-002
 S -0.687757446874993 -6.36861232812500 -3.95790999375000 
 S -3.68510644687499 -6.11943232812500 -1.12240399375000 
 S -1.24324244687499 -7.06318032812500 2.804900624999940E-002
 S -0.765513446874992 -2.61872632812500 -4.23601699375000 
 S -3.77282944687499 -2.80755632812500 -1.44693299375000 
 S -1.32934644687499 -3.40430232812500 -0.319357993750000 
