16

 C -2.58462642812500 -6.35181942812500 -2.24833668125000 
 C -1.34274242812500 -6.84519342812500 -1.74784968125000 
 C -2.51433042812500 -2.93217542812500 -2.44874468125000 
 C -1.21269942812500 -3.25185242812500 -1.85394168125000 
 N -0.369442428124997 -7.00366842812500 -2.64758168125000 
 N -2.56568042812500 -6.16086642812500 -3.56621668125000 
 N -3.06631242812500 -6.75559242812500 0.186141318750001 
 N -0.173602428124997 -3.31046242812500 -2.67697568125000 
 N -2.39854242812500 -2.65408542812500 -3.76865868125000 
 N -2.95281842812500 -3.20202542812500 7.711331875000083E-002
 S -1.02166142812500 -6.55299442812500 -4.08385768125000 
 S -3.87992442812500 -6.18913142812500 -1.10874968125000 
 S -1.47089142812500 -7.19023542812500 -2.067968124999897E-002
 S -0.818853428124997 -2.96445942812500 -4.16298668125000 
 S -3.82550942812500 -2.86652042812500 -1.31525468125000 
 S -1.41811142812500 -3.73776642812500 -0.162665681249999 
