16

 C -2.34468812187500 -6.36022089062500 -2.29943224687500 
 C -1.10010912187500 -6.92188489062500 -1.77991724687500 
 C -2.38076712187500 -2.95204889062500 -2.44412324687500 
 C -1.13229212187500 -3.30733989062500 -1.82190824687500 
 N -0.132387121875000 -7.04910789062500 -2.67122924687500 
 N -2.29283012187500 -6.15261589062500 -3.60029024687500 
 N -2.81453412187500 -6.83398289062500 0.146173753124999 
 N -9.041112187500033E-002 -3.32079889062500 -2.62215024687500 
 N -2.34615712187500 -2.77418089062500 -3.78624824687500 
 N -3.00631512187500 -3.39905789062500 -1.863246875000613E-003
 S -0.739872121875000 -6.46429289062500 -4.09486724687500 
 S -3.66209412187500 -6.37926989062500 -1.23405124687500 
 S -1.23026512187500 -7.26610589062500 -7.055624687500051E-002
 S -0.770696121875000 -3.00969889062500 -4.23335124687500 
 S -3.73240712187500 -2.91551789062500 -1.36707424687500 
 S -1.35360812187500 -3.64216089062500 -0.147197246875001 
