16

 C -2.19448077187500 -6.79516883125000 -2.53888705937500 
 C -0.996617771875000 -7.28208183125000 -1.85078905937500 
 C -2.49799277187500 -2.58587683125000 -2.53565505937500 
 C -1.34783177187500 -3.11172383125000 -1.89658305937500 
 N -3.196877187500036E-002 -7.76260983125000 -2.68992905937500 
 N -2.06984677187500 -6.88290183125000 -3.83396905937500 
 N -2.72253677187500 -6.62016083125000 2.728794062500373E-002
 N -0.383799771875000 -3.43003383125000 -2.73032005937500 
 N -2.45259377187500 -2.53043883125000 -3.87704905937500 
 N -3.12679377187500 -2.75934483125000 -5.638059374996063E-003
 S -0.596251771875000 -7.44921183125000 -4.23909505937500 
 S -3.50141977187500 -6.35689883125000 -1.49052305937500 
 S -1.24859077187500 -7.37438883125000 -6.103059374996223E-003
 S -0.873823771875000 -3.12105583125000 -4.27439805937500 
 S -3.90424677187500 -2.40829883125000 -1.46817505937500 
 S -1.51043177187500 -3.11759783125000 -0.185481059374996 
