16

 C -2.52913714062501 -6.65924862187500 -2.31111767187500 
 C -1.31241514062501 -7.12844862187500 -1.69484967187500 
 C -2.46451714062501 -2.96039762187500 -2.36831767187500 
 C -1.19988014062501 -3.44045862187500 -1.87094167187500 
 N -0.352957140625008 -7.29121962187500 -2.60647667187500 
 N -2.45499014062501 -6.44936862187500 -3.59839367187500 
 N -3.12576914062501 -6.77615562187500 0.136957328125002 
 N -0.282324140625008 -3.70793962187500 -2.83419367187500 
 N -2.45807014062501 -2.70341062187500 -3.64493967187500 
 N -2.78477114062501 -3.33856362187500 0.135335328125002 
 S -0.958919140625007 -7.00218862187500 -4.10943367187500 
 S -3.92526014062501 -6.59904662187500 -1.26980967187500 
 S -1.52321214062501 -7.29277762187500 2.069832812500216E-002
 S -0.934629140625007 -3.18065862187500 -4.16540767187500 
 S -3.65911014062501 -2.73556962187500 -1.14843367187500 
 S -1.23442814062501 -3.72939962187500 -0.142767671874998 
