16

 C -2.50548264375000 -6.50298067500000 -2.52761880000000 
 C -1.36753564375000 -6.83883567500000 -1.70473080000000 
 C -2.47035864375000 -2.83599367500000 -2.38816880000000 
 C -1.24062464375000 -3.23290567500000 -1.73069580000000 
 N -0.285275643749996 -7.06553367500000 -2.43725280000000 
 N -2.33986164375000 -6.44411167500000 -3.83720880000000 
 N -3.25890464375000 -6.20536167500000 -8.158979999999971E-002
 N -0.139535643749996 -3.28961467500000 -2.47601380000000 
 N -2.31556864375000 -2.84519367500000 -3.70596980000000 
 N -3.00766664375000 -2.95566767500000 0.100956200000000 
 S -0.714064643749996 -6.86476767500000 -4.07510980000000 
 S -3.87997864375000 -5.95867467500000 -1.62792880000000 
 S -1.69485364375000 -6.69662367500000 -5.104779999999964E-002
 S -0.656667643749996 -3.17855967500000 -4.01549580000000 
 S -3.78994164375000 -2.53704867500000 -1.26890280000000 
 S -1.42607164375000 -3.51522067500000 -3.108679999999953E-002
