16

 C -2.30950182812500 -6.67732164062500 -2.36152889375000 
 C -0.979422828124999 -6.95376864062500 -1.88278289375000 
 C -2.61278182812500 -2.80965364062500 -2.47380689375000 
 C -1.38608482812500 -3.31248864062500 -1.73595489375000 
 N -0.123133828124999 -6.93549164062500 -2.87548589375000 
 N -2.41889582812500 -6.52231264062500 -3.67195889375000 
 N -2.49384882812500 -6.98004164062500 0.170743106249999 
 N -0.336041828124999 -3.57536864062500 -2.53128389375000 
 N -2.34736182812500 -2.61360564062500 -3.79124489375000 
 N -3.19084682812500 -2.92489764062500 7.702010624999867E-002
 S -0.922517828124999 -6.72004364062500 -4.27704089375000 
 S -3.51137782812500 -6.79456464062500 -1.10501789375000 
 S -0.820896828124999 -7.12662664062500 -0.135633893750001 
 S -0.815295828124999 -3.08399664062500 -4.04042189375000 
 S -3.93214182812500 -2.49430064062500 -1.36007389375000 
 S -1.55053482812500 -3.43168664062500 5.134106249998549E-003
