16

 C -2.38398959062500 -6.62699558437500 -2.32293336562500 
 C -1.13365759062500 -6.97656658437500 -1.71175436562500 
 C -2.35353059062500 -2.76916658437500 -2.47209336562500 
 C -1.13522959062500 -3.15856958437500 -1.67240436562500 
 N -6.443359062499798E-002 -7.01798758437500 -2.51953136562500 
 N -2.28790159062500 -6.40524358437500 -3.64032936562500 
 N -2.90607059062500 -7.07955958437500 0.181749634375000 
 N -2.695459062499861E-002 -3.31447858437500 -2.42313236562500 
 N -2.19185459062500 -2.78103958437500 -3.80007436562500 
 N -3.08435559062500 -2.84989458437500 -1.961336562499993E-002
 S -0.721707590624998 -6.61116758437500 -3.98604636562500 
 S -3.67781259062500 -6.63121858437500 -1.22948036562500 
 S -1.27744859062500 -7.29910158437500 1.413963437500021E-002
 S -0.579973590624999 -3.05939858437500 -3.99538736562500 
 S -3.75677159062500 -2.53593458437500 -1.47685836562500 
 S -1.46638059062500 -3.14544058437500 5.071634375000134E-003
