16

 C -2.17565775312499 -6.88656786562500 -2.51945318750000 
 C -1.00253975312499 -7.32178786562500 -1.80716718750000 
 C -2.57826075312499 -2.64642686562500 -2.55842418750000 
 C -1.34479075312499 -3.10205786562500 -1.94214018750000 
 N -3.155875312499035E-002 -7.67556386562500 -2.63894018750000 
 N -2.17420275312499 -6.91666786562500 -3.85180518750000 
 N -2.76066175312499 -6.61151986562500 -7.595018750000126E-002
 N -0.366905753124991 -3.51808186562500 -2.77115918750000 
 N -2.43736875312499 -2.56141886562500 -3.87761318750000 
 N -3.05015775312499 -2.68945486562500 2.428812499998712E-003
 S -0.625493753124990 -7.44162686562500 -4.20114218750000 
 S -3.48864075312499 -6.29312286562500 -1.55825118750000 
 S -1.17585775312499 -7.27554386562500 -0.118787187500001 
 S -0.897590753124990 -3.01757886562500 -4.28592618750000 
 S -3.83673475312499 -2.37227486562500 -1.39368618750000 
 S -1.50153075312499 -3.17460086562500 -0.213216187500001 
