16

 C -2.40415831875000 -6.57914298125000 -2.31234480000000 
 C -1.23167231875000 -7.17965998125000 -1.76711480000000 
 C -2.66551831875000 -2.47945398125000 -2.35227880000000 
 C -1.66576631875000 -3.25033498125000 -1.64326880000000 
 N -0.332007318750001 -7.37054598125000 -2.72584680000000 
 N -2.35539631875000 -6.22382998125000 -3.59259580000000 
 N -2.91360631875000 -7.04067898125000 0.148398200000003 
 N -0.713161318750001 -3.70327698125000 -2.42682280000000 
 N -2.39278731875000 -2.33548298125000 -3.61953780000000 
 N -3.40219731875000 -2.55390298125000 7.671420000000295E-002
 S -0.917933318750001 -6.70648698125000 -4.15076580000000 
 S -3.71051631875000 -6.46495798125000 -1.20126580000000 
 S -1.34218231875000 -7.48571098125000 -4.486479999999715E-002
 S -0.936647318750001 -3.16101998125000 -3.92648380000000 
 S -3.97149731875000 -2.04359998125000 -1.41419080000000 
 S -1.96278531875000 -3.30141398125000 5.445720000000298E-002
