16

 C -2.38995969062500 -6.34408330625001 -2.55400441250000 
 C -1.12043269062500 -6.63963030625001 -1.94345741250000 
 C -2.78434169062500 -2.77943530625001 -2.34466341250000 
 C -1.58728769062501 -3.28647430625001 -1.70601041250000 
 N -0.146440690625004 -6.84402730625001 -2.82513741250000 
 N -2.40595569062500 -6.34775230625001 -3.87465741250000 
 N -2.80808269062500 -6.33553230625001 2.547587499996951E-003
 N -0.594651690625005 -3.48709530625001 -2.54159641250000 
 N -2.67337069062500 -2.54684430625001 -3.63970641250000 
 N -3.27667069062500 -2.88655230625001 0.211919587499997 
 S -0.826127690625005 -6.65999930625001 -4.34276041250000 
 S -3.65444469062500 -6.09840430625001 -1.39275341250000 
 S -1.16627069062501 -6.66388430625001 -0.165639412500003 
 S -1.14227469062500 -3.14816130625001 -4.05142941250000 
 S -4.04431769062500 -2.59403530625001 -1.22282441250000 
 S -1.66717869062501 -3.28600530625001 2.942587499996874E-003
