16

 C -2.60479376249999 -6.46630459374999 -2.44682001875000 
 C -1.47406376249999 -7.03018359375000 -1.76192301875000 
 C -2.18826276249999 -2.86872459375000 -2.40407801875000 
 C -0.989819762499995 -3.50559359375000 -1.74572101875000 
 N -0.437448762499995 -7.27676359374999 -2.57513601875000 
 N -2.47500476249999 -6.31204959374999 -3.77262501875000 
 N -3.26718176249999 -6.82287659374999 -2.898301875000020E-002
 N 5.299823750000421E-002 -3.59356459374999 -2.57180301875000 
 N -1.95643876250000 -2.49200259375000 -3.66817201875000 
 N -2.88402176250000 -3.35154459375000 7.000898124999999E-002
 S -0.898188762499995 -6.78229659375000 -4.05669001875000 
 S -4.00087676250000 -6.21254559375000 -1.40470301875000 
 S -1.68012676250000 -7.22632959374999 -9.839801874999998E-002
 S -0.440823762499995 -3.03646259375000 -4.04512901875000 
 S -3.58226876249999 -2.78456959375000 -1.40397501875000 
 S -1.27682376249999 -3.69777759375000 -9.248018749999920E-003
