16

 C -2.35966436562500 -6.19632254062500 -2.22124436250000 
 C -1.18602936562500 -6.75886054062500 -1.68420236250000 
 C -2.46626836562500 -2.82680354062500 -2.73467036250000 
 C -1.17387236562500 -3.05663254062500 -2.04998236250000 
 N -0.184226365624999 -6.96129054062500 -2.54921936250000 
 N -2.17342236562500 -5.82504454062500 -3.48017836250000 
 N -2.84902636562500 -6.69968154062500 0.280615637500002 
 N -0.181586365625000 -2.85652254062500 -2.92448236250000 
 N -2.41506536562500 -2.49889554062500 -4.03932136250000 
 N -2.91617736562500 -3.02473154062500 -0.209839362499998 
 S -0.675455365624999 -6.30305954062500 -4.01867636250000 
 S -3.66326436562500 -6.19958054062500 -1.12297436250000 
 S -1.30199736562500 -7.11871254062500 5.678263750000223E-002
 S -0.811341365624999 -2.59188054062500 -4.40980036250000 
 S -3.78775436562500 -2.98404354062500 -1.57929936250000 
 S -1.25215036562500 -3.33154454062500 -0.338757362499998 
