16

 C -2.45765571562499 -6.56504692500001 -2.27053262812500 
 C -1.19732671562499 -6.79964392500001 -1.62507662812500 
 C -2.40416871562499 -2.76093092500001 -2.57259562812500 
 C -1.17768771562499 -3.31170592500001 -1.93657362812500 
 N -0.136380715624994 -6.93191092500001 -2.41613962812500 
 N -2.32086371562499 -6.47023192500001 -3.58848862812500 
 N -2.95843371562499 -6.76937592500001 0.253764371875001 
 N -0.189647715624994 -3.53991692500001 -2.79409962812500 
 N -2.29994571562499 -2.54588692500001 -3.86456362812500 
 N -2.84905171562499 -2.99299592500001 -4.683962812499853E-002
 S -0.740840715624993 -6.71227892500001 -3.92216862812500 
 S -3.83430871562499 -6.72862992500001 -1.14794262812500 
 S -1.25333471562499 -6.98491692500001 0.111674371875001 
 S -0.759234715624994 -3.10134292500001 -4.29738962812500 
 S -3.67611071562499 -2.40266192500001 -1.36998262812500 
 S -1.26836271562499 -3.39556392500001 -0.180022628124999 
