16

 C -2.41553596875000 -6.45926965312500 -2.58626303125000 
 C -1.15570396875000 -6.95941365312500 -1.97414303125000 
 C -2.35808996875000 -2.59242465312501 -2.50999403125000 
 C -1.14817296875000 -3.26531865312500 -2.05979403125000 
 N -0.221743968750000 -7.25515165312500 -2.86840903125000 
 N -2.32843196875000 -6.34991965312500 -3.92732403125000 
 N -2.89070596875000 -6.50842965312500 -4.798103124999931E-002
 N -0.118051968750001 -3.17981665312500 -2.91398603125000 
 N -2.25108996875000 -2.07037165312500 -3.74700103125000 
 N -2.64276296875000 -3.17038565312500 -1.606403124999911E-002
 S -0.774071968750000 -6.84075965312501 -4.41602603125000 
 S -3.77890596875000 -6.26138365312501 -1.48004603125000 
 S -1.34731996875000 -7.22563765312500 -0.290498031249999 
 S -0.740937968750001 -2.41607165312500 -4.25828503125000 
 S -3.55482096875000 -2.52029965312500 -1.27343603125000 
 S -1.07311496875000 -3.63513865312501 -0.371273031249999 
