16

 C -2.35240883124999 -6.83912640625001 -2.38533441562500 
 C -1.01988383124999 -6.98585440625001 -1.88200841562500 
 C -2.51840583124999 -2.71189040625001 -2.38321941562500 
 C -1.38060483124999 -3.29824640625001 -1.73479841562500 
 N -0.104736831249987 -7.00615240625001 -2.82551741562500 
 N -2.50880183124999 -6.59921140625001 -3.67688941562500 
 N -2.58826183124999 -7.04383040625001 0.191460584375003 
 N -0.353701831249987 -3.59462440625001 -2.51522541562500 
 N -2.31883783124999 -2.54826440625001 -3.67787641562500 
 N -3.19842183124999 -2.98047540625001 4.556058437500266E-002
 S -0.938926831249987 -6.68317740625001 -4.29476041562500 
 S -3.56839783124999 -6.78071740625001 -1.14472441562500 
 S -0.984292831249987 -7.03433640625001 -0.145272415624997 
 S -0.726213831249988 -3.07967740625001 -4.05384241562500 
 S -3.90345583124999 -2.52161340625001 -1.40875741562500 
 S -1.63287783124999 -3.40816940625001 -3.383041562499756E-002
