16

 C -2.34399770625000 -6.05239078437500 -2.21350514687500 
 C -1.13505870625000 -6.64817178437500 -1.62081814687500 
 C -2.63788070625000 -2.50101278437500 -2.55014714687500 
 C -1.38640970625000 -2.83510078437500 -1.92050014687500 
 N -0.194603706249995 -6.94803978437500 -2.49962414687500 
 N -2.28713770625000 -5.83043778437500 -3.52469714687500 
 N -2.78008470625000 -6.21473878437500 0.352353853125001 
 N -0.336329706249995 -3.11455978437500 -2.73197314687500 
 N -2.52880570625000 -2.40059678437500 -3.89879514687500 
 N -3.16746370625000 -2.39182378437500 -1.628914687499838E-002
 S -0.806981706249996 -6.43360178437500 -3.97289414687500 
 S -3.62842770625000 -5.86440978437500 -0.987065146874999 
 S -1.21660570625000 -6.87370178437500 9.924785312500162E-002
 S -0.984429706249996 -2.79590478437500 -4.33912214687500 
 S -3.93134670625000 -2.05467878437500 -1.44269514687500 
 S -1.53861970625000 -2.93346578437500 -0.148291146874998 
