16

 C -2.44355004687501 -6.40266286875000 -2.48227373750000 
 C -1.23702404687501 -6.86909186875000 -1.82284573750000 
 C -2.46132704687501 -2.49702086875000 -2.17121373750000 
 C -1.26329304687501 -2.97594986875000 -1.58843073750000 
 N -0.164522046875007 -7.00930086875000 -2.61860873750000 
 N -2.24998004687501 -6.21622086875000 -3.79683473750000 
 N -3.03188304687501 -6.60649786875000 6.031226250000099E-002
 N -0.282726046875007 -3.12712686875000 -2.46846073750000 
 N -2.50038504687501 -2.42760686875000 -3.51842373750000 
 N -2.93993304687501 -2.92950886875000 0.336165262500001 
 S -0.688839046875007 -6.64524486875000 -4.17827073750000 
 S -3.71115104687501 -6.07529486875000 -1.35823573750000 
 S -1.42522004687501 -7.09013886875000 -7.338473749999874E-002
 S -0.959610046875007 -2.83344386875000 -3.96208273750000 
 S -3.74636004687501 -2.34754786875000 -0.947591737499999 
 S -1.35424604687501 -3.38888786875000 0.111349262500001 
