16

 C -2.23407392500001 -6.77802750937500 -2.46128257500000 
 C -1.08001292500001 -7.40054150937500 -1.83288557500000 
 C -2.52275592500001 -2.67189150937500 -2.56731457500000 
 C -1.35037492500000 -2.99334650937500 -1.82608657500000 
 N -3.421192500000547E-002 -7.76606850937500 -2.60052457500000 
 N -2.06411492500001 -6.64964650937500 -3.76768357500000 
 N -2.71512692500001 -6.73885350937500 0.102163425000001 
 N -0.362557925000005 -3.34322850937500 -2.63801657500000 
 N -2.42708492500001 -2.60035450937500 -3.88904657500000 
 N -3.20686992500001 -2.86047950937500 -0.156179574999999 
 S -0.602332925000005 -7.40192350937500 -4.15890657500000 
 S -3.48402792500000 -6.41437250937500 -1.35246157500000 
 S -1.26784392500001 -7.50648250937500 -0.109311574999999 
 S -0.923224925000005 -3.20054450937500 -4.19591557500000 
 S -3.93556792500001 -2.40754450937500 -1.61040357500000 
 S -1.55969092500001 -3.07769250937500 -0.106112574999999 
