16

 C -2.41438059687500 -6.66224090937501 -2.39930729062500 
 C -1.18497459687500 -6.94120090937501 -1.74733629062500 
 C -2.41477059687500 -2.84031390937501 -2.43476529062500 
 C -1.22870259687500 -3.07204790937501 -1.65714929062500 
 N -0.118103596875001 -6.91404190937501 -2.52021629062500 
 N -2.31410059687500 -6.44961090937501 -3.70618529062500 
 N -2.90470859687500 -7.11447790937501 8.192470937499863E-002
 N -0.134727596875002 -3.25230690937501 -2.39317529062500 
 N -2.16080259687500 -2.75704590937501 -3.72769029062500 
 N -3.10690859687500 -2.71114790937501 3.741270937499852E-002
 S -0.648418596875002 -6.55124390937501 -4.06287129062500 
 S -3.74104459687500 -6.57222590937501 -1.25612729062500 
 S -1.25859559687500 -7.29990990937501 -6.393529062500125E-002
 S -0.535118596875002 -3.06179690937501 -3.95667629062500 
 S -3.78769959687500 -2.44969190937501 -1.51708829062500 
 S -1.50948959687500 -3.19153990937501 -2.500290625001345E-003
