16

 C -2.51074680312500 -6.25401034062499 -2.34604333750000 
 C -1.27200580312500 -6.57278234062500 -1.66269033750000 
 C -2.51090280312500 -2.49782634062499 -2.91949533750000 
 C -1.31536880312500 -2.88301334062499 -2.21918933750000 
 N -0.281358803124998 -6.75201834062499 -2.53150233750000 
 N -2.43066380312500 -6.04616934062500 -3.66340233750000 
 N -3.07791480312500 -6.75962734062499 0.123531662500003 
 N -0.194719803124997 -2.85632434062499 -2.92366333750000 
 N -2.31269780312500 -2.22532034062499 -4.18204833750000 
 N -3.15879980312500 -2.76313134062500 -0.430464337499997 
 S -0.834997803124997 -6.43856334062500 -4.07915233750000 
 S -3.88706480312500 -6.51634834062500 -1.24645033750000 
 S -1.37199380312500 -6.92295434062499 1.150466250000259E-002
 S -0.699421803124998 -2.57911034062499 -4.46423733750000 
 S -3.82524680312500 -2.39322534062500 -1.87290533750000 
 S -1.59361980312500 -3.10862934062500 -0.479085337499997 
