16

 C -2.32052303750000 -6.30419235000001 -2.55922253750000 
 C -1.05254703750000 -6.54884935000001 -1.82854253750000 
 C -2.52808103750000 -2.45311035000001 -2.72448153750000 
 C -1.52055803750000 -3.16325835000001 -1.98465053750000 
 N -5.788037500003895E-003 -6.84644135000001 -2.61965753750000 
 N -2.21008403750000 -6.27960935000001 -3.87606253750000 
 N -2.93487803750000 -6.66181635000001 -2.862453749999849E-002
 N -0.351428037500003 -3.20721635000001 -2.57492153750000 
 N -2.16714703750000 -2.00251535000001 -3.90208853750000 
 N -3.41627703750000 -2.64266735000001 -0.340963537499998 
 S -0.645384037500003 -6.64348735000001 -4.14490753750000 
 S -3.71832403750000 -6.39306935000001 -1.53606453750000 
 S -1.32966003750000 -6.74416335000001 -9.492453749999852E-002
 S -0.581513037500003 -2.57300335000001 -4.13802853750000 
 S -3.98583503750000 -2.01409235000001 -1.77031553750000 
 S -1.96301603750000 -3.42163535000001 -0.322906537499999 
