16

 C -2.48353700937500 -6.79021616562501 -2.38617028125000 
 C -1.17718300937501 -6.99789516562501 -1.86523928125000 
 C -2.43153300937501 -2.70006416562501 -2.43100828125000 
 C -1.30975800937501 -3.25475816562501 -1.71249728125000 
 N -0.207547009375006 -6.93969316562501 -2.74824928125000 
 N -2.45483600937501 -6.66832616562501 -3.70386228125000 
 N -2.75380000937500 -6.99581716562501 0.179940718749998 
 N -0.254907009375005 -3.54160016562501 -2.48784728125000 
 N -2.19288200937500 -2.40227316562501 -3.72109728125000 
 N -3.24529200937500 -3.02215116562501 2.858871874999802E-002
 S -0.890454009375005 -6.71214716562501 -4.22558428125000 
 S -3.74578400937501 -6.78295516562501 -1.14854528125000 
 S -1.11778300937500 -7.01847316562501 -0.116872281250002 
 S -0.729573009375005 -3.07428616562501 -4.02542328125000 
 S -3.84766800937501 -2.49468116562501 -1.45194528125000 
 S -1.64338600937501 -3.47075216562501 5.064718749997921E-003
