16

 C -2.50116337812500 -6.17262205937500 -2.47355032500000 
 C -1.39553437812500 -6.83315105937500 -1.86822632500000 
 C -2.66444437812500 -2.62037505937500 -2.43924132500000 
 C -1.50977937812500 -3.13272505937500 -1.71561532500000 
 N -0.343325378124997 -7.09810005937500 -2.65837632500000 
 N -2.37485737812500 -6.03203805937500 -3.79815932500000 
 N -3.24033137812500 -6.62233405937500 -5.198332499999747E-002
 N -0.429606378124997 -3.26748205937500 -2.48486132500000 
 N -2.44083637812500 -2.46987605937500 -3.72423832500000 
 N -3.45916637812500 -2.87788905937500 -5.162332499999733E-002
 S -0.813953378124997 -6.51001005937500 -4.17947432500000 
 S -3.85750837812500 -5.95527805937500 -1.42819432500000 
 S -1.68885337812500 -7.28793705937500 -0.228156324999997 
 S -0.842118378124997 -2.85320805937500 -3.98491232500000 
 S -4.02837337812500 -2.23670105937500 -1.49924532500000 
 S -1.86507137812500 -3.39579605937500 -1.001532499999724E-002
