16

 C -2.60464316250000 -6.23379678125000 -2.66433754375000 
 C -1.36647116250000 -6.55464478125000 -2.00802154375000 
 C -2.48706816250000 -2.71920178125000 -2.49723654375000 
 C -1.25235716250000 -3.05555278125000 -1.87830054375000 
 N -0.333306162500002 -6.68541678125000 -2.83707554375000 
 N -2.53230116250000 -6.03872178125000 -3.97399154375000 
 N -3.25187316250000 -6.84411278125000 -0.313879543749998 
 N -0.182957162500003 -3.22401678125000 -2.66399754375000 
 N -2.38112116250000 -2.66385478125000 -3.83368554375000 
 N -2.91753116250000 -2.90350078125000 9.338345625000222E-002
 S -0.967493162500002 -6.35291878125000 -4.37927654375000 
 S -4.00799816250000 -6.21009278125000 -1.66949754375000 
 S -1.58418316250000 -6.93635678125000 -0.381802543749998 
 S -0.785313162500002 -2.99317178125000 -4.21877854375000 
 S -3.78231716250000 -2.70060978125000 -1.36488454375000 
 S -1.28989016250000 -3.14974678125000 -0.141345543749998 
