16

 C -2.57492148749999 -6.33535477500000 -2.22686069062500 
 C -1.38013848749999 -6.85459277500000 -1.60159269062500 
 C -2.49537348749999 -3.10093177500000 -2.31940469062500 
 C -1.23297048749999 -3.29027077500000 -1.64851469062500 
 N -0.380060487499994 -7.05829377500000 -2.42048369062500 
 N -2.52972448749999 -6.19345577500000 -3.53779869062500 
 N -3.07245348749999 -6.57557577500000 0.256766309375003 
 N -0.197124487499994 -3.40152377500000 -2.48044469062500 
 N -2.44177948749999 -2.96175677500000 -3.64116269062500 
 N -3.02161248749999 -3.16953377500000 0.190157309375003 
 S -0.932511487499994 -6.59931777500000 -3.91614469062500 
 S -3.82740548749999 -6.17309177500000 -1.10543169062500 
 S -1.50475748749999 -7.10320177500000 6.496130937500277E-002
 S -0.894686487499994 -3.23419677500000 -4.01002269062500 
 S -3.77966048749999 -2.86935077500000 -1.23102569062500 
 S -1.35721648749999 -3.35083577500000 8.651230937500265E-002
