16

 C -2.65173634375000 -6.18053086250000 -2.27181595000000 
 C -1.41042034375000 -6.68382986250000 -1.71387895000000 
 C -2.37469634375000 -2.52672486250000 -2.47257495000000 
 C -1.24502834375000 -3.04210986250000 -1.79931995000000 
 N -0.396223343750000 -6.95130586250000 -2.52091495000000 
 N -2.58310034375000 -6.08973486250000 -3.58230395000000 
 N -3.10657134375000 -6.46106986250000 0.242822050000000 
 N -0.196855343750000 -3.33750086250000 -2.59705895000000 
 N -2.29734534375000 -2.45008086250000 -3.82339395000000 
 N -3.08744134375000 -2.72171086250000 4.292905000000014E-002
 S -0.997656343750000 -6.53582986250000 -4.01168695000000 
 S -3.85387934375000 -5.84396686250000 -1.06219095000000 
 S -1.47913134375000 -6.84759186250000 6.536050000000238E-003
 S -0.727484343750000 -2.97458486250000 -4.11706495000000 
 S -3.76074134375000 -2.29230186250000 -1.35940895000000 
 S -1.46011134375000 -3.00414586250000 -3.182994999999966E-002
