16

 C -2.62964393125000 -6.40766361250000 -2.29948666250000 
 C -1.42285393125001 -6.87315661250000 -1.66928766250000 
 C -2.43308793125000 -2.86276061250000 -2.39638766250000 
 C -1.22139993125001 -3.33949561250000 -1.85695466250000 
 N -0.449371931250004 -7.18124861250000 -2.52087266250000 
 N -2.53012793125000 -6.31251361250000 -3.60830966250000 
 N -3.17513793125000 -6.44569461250000 0.205755337500000 
 N -0.185965931250005 -3.46100761250000 -2.70315366250000 
 N -2.36541493125000 -2.68125461250000 -3.71098766250000 
 N -2.85913993125000 -2.94444361250000 6.986133749999990E-002
 S -1.04049293125000 -6.80264561250000 -4.02529866250000 
 S -3.93592493125000 -6.15076061250000 -1.22666966250000 
 S -1.64372393125000 -7.05266161250000 4.662533749999986E-002
 S -0.867055931250005 -3.14366061250000 -4.20043966250000 
 S -3.75714393125000 -2.57778861250000 -1.25960766250000 
 S -1.24388993125000 -3.31913961250000 -0.100471662500000 
