16

 C -2.64643422500000 -6.50579220625000 -2.37408077187500 
 C -1.45053422500000 -6.93476720625000 -1.65914477187500 
 C -2.53215122500000 -2.65540820625000 -2.43160277187500 
 C -1.33400922500000 -3.12317220625000 -1.85771677187500 
 N -0.453318224999997 -7.23690820625000 -2.45954077187500 
 N -2.49238322500000 -6.40407420625000 -3.69648377187500 
 N -3.19768522500000 -6.49111920625000 0.184340228125000 
 N -0.395904224999997 -3.37406920625000 -2.77291177187500 
 N -2.50970822500000 -2.62535320625000 -3.77195877187500 
 N -2.93866022500000 -2.90234720625000 6.173322812500004E-002
 S -0.943429224999996 -6.89770820625000 -4.01527777187500 
 S -3.97576122500000 -6.18747820625000 -1.27529777187500 
 S -1.58320922500000 -6.87141420625000 9.198322812499993E-002
 S -1.02400822500000 -3.13623020625000 -4.26951877187500 
 S -3.84236922500000 -2.60617820625000 -1.27832777187500 
 S -1.35367422500000 -3.37101320625000 -0.110363771875000 
