16

 C -2.46511030937499 -6.60344274062500 -2.36047185312500 
 C -1.23291930937499 -6.97960974062500 -1.75944785312500 
 C -2.15016830937499 -3.21923674062500 -2.24520785312500 
 C -0.943311309374995 -3.62065374062500 -1.57940085312500 
 N -0.254143309374995 -7.16347574062500 -2.65105785312500 
 N -2.43006830937499 -6.52767374062500 -3.69870085312500 
 N -2.78933330937500 -6.71929674062500 0.206042146875000 
 N 2.748869062500514E-002 -3.91396474062500 -2.44941585312500 
 N -2.07492330937500 -3.09620074062500 -3.54729385312500 
 N -2.76217730937499 -3.26765174062500 0.227624146875000 
 S -0.898722309374994 -7.03502874062500 -4.16130785312500 
 S -3.72882830937499 -6.38941074062500 -1.15333685312500 
 S -1.20599730937499 -6.98208474062500 -6.269185312500003E-002
 S -0.534100309374995 -3.57644874062500 -3.96738785312500 
 S -3.53115730937499 -3.07553974062500 -1.21696785312500 
 S -1.14036030937499 -3.67778974062500 0.139953146875000 
