16

 C -2.42069997499999 -6.16583492187500 -2.34464449687500 
 C -1.26454397499999 -6.83072292187500 -1.86317349687500 
 C -2.64665897499999 -2.50665492187500 -2.68653149687500 
 C -1.41780897499999 -2.84197492187500 -2.04703549687500 
 N -0.373241974999994 -7.12720292187500 -2.78892449687500 
 N -2.37757397499999 -5.90018192187500 -3.62935649687500 
 N -2.76318397499999 -6.34443392187500 0.187926503125000 
 N -0.416430974999994 -3.08892292187500 -2.93250649687500 
 N -2.58142097499999 -2.38140192187500 -4.03930049687500 
 N -3.10817097499999 -2.44364992187500 -7.818849687499996E-002
 S -0.965254974999993 -6.56697592187500 -4.22994549687500 
 S -3.57484597499999 -5.75867992187500 -1.17279749687500 
 S -1.30581097499999 -7.10048192187500 -9.218949687499989E-002
 S -0.996517974999994 -2.84616292187500 -4.39712649687500 
 S -3.91659997499999 -2.06454092187500 -1.51421149687500 
 S -1.52817497499999 -2.92334092187500 -0.320430496875000 
