16

 C -2.29908686250000 -6.35328285000000 -2.38747395625000 
 C -1.11485586250000 -6.89684185000000 -1.79975095625000 
 C -2.51181386250000 -3.12792385000000 -2.33517695625000 
 C -1.20900786250000 -3.26547085000000 -1.69226395625000 
 N -0.153241862500001 -7.18873685000000 -2.63271595625000 
 N -2.17178486250000 -6.11572085000000 -3.66026095625000 
 N -2.91478886250000 -6.96284185000000 2.313304375000169E-002
 N -0.166295862500001 -3.23472385000000 -2.55421295625000 
 N -2.38156686250000 -3.10206685000000 -3.66514695625000 
 N -2.99083886250000 -2.67589285000000 9.920604375000175E-002
 S -0.636300862500001 -6.67939285000000 -4.10135695625000 
 S -3.56209586250000 -6.14322885000000 -1.23636195625000 
 S -1.24078186250000 -7.24134985000000 -0.118865956249998 
 S -0.807199862500001 -3.16995585000000 -4.05823095625000 
 S -3.89006286250000 -2.70577685000000 -1.29269095625000 
 S -1.32899286250000 -3.05376185000000 2.103804375000173E-002
