16

 C -2.54824514375000 -6.66357629687500 -2.55888927187500 
 C -1.34846414375000 -7.11969029687500 -1.98808427187500 
 C -2.23997014375000 -2.44697729687500 -2.31073527187500 
 C -1.03160914375000 -3.16538829687500 -1.85730427187500 
 N -0.289527143750000 -7.20216129687500 -2.76303427187500 
 N -2.44042414375000 -6.36996929687500 -3.84080027187500 
 N -2.96481114375000 -6.64961729687500 -4.767227187499956E-002
 N -0.131860143750000 -3.36045429687500 -2.81126427187500 
 N -2.21735614375000 -2.17886529687500 -3.61340527187500 
 N -2.79587414375000 -3.19914429687500 0.128164728125000 
 S -0.851892143750000 -6.77323229687500 -4.27346727187500 
 S -3.79492914375000 -6.32131029687500 -1.45069827187500 
 S -1.35709814375000 -7.30711329687500 -0.249309271874999 
 S -0.828382143750000 -2.70225929687500 -4.26315727187500 
 S -3.61380114375000 -2.44556529687500 -1.12716927187500 
 S -1.18679814375000 -3.61009229687500 -0.140063271875000 
