16

 C -2.54180508437500 -6.70967184375000 -2.50394926875000 
 C -1.21775408437500 -7.08375084375000 -1.94562126875000 
 C -2.54752408437500 -2.67864884375000 -2.23763126875000 
 C -1.36070508437500 -3.15868684375000 -1.61418926875000 
 N -0.253480084374998 -7.16034184375000 -2.83459826875000 
 N -2.51925708437500 -6.53823684375000 -3.80025026875000 
 N -2.89909508437500 -6.80192084375000 1.263273125000119E-002
 N -0.342740084374998 -3.39592084375000 -2.44380326875000 
 N -2.59677908437500 -2.64884784375000 -3.56071726875000 
 N -3.08220408437500 -2.99049284375000 0.274062731250001 
 S -1.01150208437500 -6.85027484375000 -4.31102726875000 
 S -3.78277008437500 -6.39733284375000 -1.33966426875000 
 S -1.20365908437500 -7.06429784375000 -0.131107268749999 
 S -1.01655608437500 -3.03956584375000 -3.95067326875000 
 S -3.81862408437500 -2.53249184375000 -1.10539326875000 
 S -1.56491608437500 -3.61268884375000 3.790673125000121E-002
