16

 C -2.41938968125001 -6.73157990937500 -2.39143931875000 
 C -1.10018468125001 -7.03098390937500 -1.93963531875000 
 C -2.53347668125001 -2.89784090937500 -2.44510631875000 
 C -1.37493468125001 -3.46786290937500 -1.76865331875000 
 N -0.206601681250007 -7.08858990937500 -2.90864031875000 
 N -2.54268368125001 -6.53001290937500 -3.69460631875000 
 N -2.62843368125001 -7.15416490937500 7.473168124999918E-002
 N -0.330496681250007 -3.61498490937500 -2.57411931875000 
 N -2.34295568125001 -2.74272790937500 -3.76521631875000 
 N -3.14316068125001 -3.12392090937500 -3.014131875000103E-002
 S -1.00806568125001 -6.73725090937500 -4.34988731875000 
 S -3.68454368125001 -6.73636190937500 -1.19436431875000 
 S -1.03603868125001 -7.35789990937500 -0.248899318750001 
 S -0.754737681250006 -3.17421890937500 -4.05297531875000 
 S -3.87376168125001 -2.60110690937500 -1.46148931875000 
 S -1.62139268125001 -3.75099490937500 -8.752531875000091E-002
