16

 C -2.27407116875000 -6.07847699375000 -2.27355501562500 
 C -1.10258116875000 -6.74936999375000 -1.75404701562500 
 C -2.70865616875000 -2.44807499375000 -2.73694401562500 
 C -1.48124816875000 -2.81083699375000 -2.08821201562500 
 N -0.125417168750003 -7.03026099375000 -2.63903901562500 
 N -2.22225216875000 -5.84964899375000 -3.59110101562500 
 N -2.69110816875000 -6.38475199375000 0.273796984375000 
 N -0.467552168750003 -3.06751399375000 -2.88367701562500 
 N -2.63809716875000 -2.27514899375000 -4.03431301562500 
 N -3.22357816875000 -2.41364899375000 -0.179884015625000 
 S -0.790900168750003 -6.51571799375000 -4.11526701562500 
 S -3.45931916875000 -5.74569599375000 -1.02128701562500 
 S -1.16121516875000 -7.02406699375000 2.992898437500013E-002
 S -1.12988316875000 -2.75639399375000 -4.46091001562500 
 S -4.01746116875000 -2.16267599375000 -1.59050901562500 
 S -1.63264716875000 -2.81900999375000 -0.327372015625000 
