16

 C -2.22741922500000 -6.44228117812500 -2.62438387500000 
 C -1.10151822500000 -7.04948817812500 -1.94163587500000 
 C -2.69643522500000 -2.48338517812499 -2.33327287500000 
 C -1.56166822500000 -2.93981517812500 -1.65705387500000 
 N -9.514422500000030E-002 -7.31975317812500 -2.75046487500000 
 N -2.06128322500000 -6.21077617812499 -3.93078987500000 
 N -2.80759822500000 -6.48830217812499 -9.791787499999760E-002
 N -0.547631225000000 -3.27893717812500 -2.42706087500000 
 N -2.50140922500000 -2.31298717812500 -3.62931087500000 
 N -3.40183622500000 -2.62939317812500 0.105853125000002 
 S -0.549682225000000 -6.80767217812500 -4.26977987500000 
 S -3.58726722500000 -6.13537217812500 -1.52665787500000 
 S -1.24148222500000 -7.08915717812500 -0.227450874999998 
 S -0.961604225000000 -2.89893917812500 -3.95670187500000 
 S -4.04339022500000 -2.18746717812500 -1.35876387500000 
 S -1.83396822500000 -3.08536117812500 4.240312500000232E-002
