16

 C -2.49894770312500 -6.29120636250000 -2.47002851875000 
 C -1.34301470312500 -6.83411236250000 -1.83380551875000 
 C -2.43454670312500 -2.50321236250000 -2.51162651875000 
 C -1.22442570312500 -2.97324236250000 -1.80159151875000 
 N -0.358460703125003 -7.07371036250000 -2.69149851875000 
 N -2.37903970312500 -6.13545336250000 -3.79065251875000 
 N -3.16177370312500 -6.38696736250000 -1.821151875000071E-002
 N -0.288950703125002 -3.33324436250000 -2.64105251875000 
 N -2.26113170312500 -2.32781836250000 -3.81161551875000 
 N -3.06891470312500 -2.60883936250000 1.731848124999935E-002
 S -0.863117703125003 -6.73236336250000 -4.21922151875000 
 S -3.83596970312500 -5.94608336250000 -1.43703151875000 
 S -1.61858370312500 -7.03718336250000 -0.141441518750001 
 S -0.712116703125003 -2.92299436250000 -4.14541551875000 
 S -3.74448070312500 -2.11310736250000 -1.43118851875000 
 S -1.45501570312500 -2.96882736250000 -5.716651875000078E-002
