16

 C -2.58867784687500 -6.27424215937500 -2.51887327500000 
 C -1.45802284687500 -6.97560415937500 -2.02717727500000 
 C -2.42236384687500 -2.66257715937500 -2.43931027500000 
 C -1.32117784687500 -3.23923115937500 -1.78938827500000 
 N -0.405266846874998 -7.18908315937500 -2.85037227500000 
 N -2.39454684687500 -5.90948815937500 -3.78286427500000 
 N -3.07790084687500 -6.80330315937500 -7.188927500000064E-002
 N -0.275124846874998 -3.28953715937500 -2.61847827500000 
 N -2.37382584687500 -2.47940515937500 -3.76514327500000 
 N -3.04823184687500 -2.73492015937500 7.098172499999955E-002
 S -0.912790846874998 -6.45810515937500 -4.23294727500000 
 S -3.82648584687500 -6.05692815937500 -1.34373727500000 
 S -1.56663884687500 -7.56470515937500 -0.360702275000000 
 S -0.829333846874998 -2.98339915937500 -4.12214627500000 
 S -3.69759084687500 -2.19952415937500 -1.36483327500000 
 S -1.61617284687500 -3.48464715937500 -7.057527500000060E-002
