16

 C -2.43113767812499 -6.60630653437500 -2.26392146562500 
 C -1.15340067812499 -6.89362253437500 -1.58605446562500 
 C -2.40292767812499 -2.66691553437501 -2.48593846562500 
 C -1.22782667812499 -3.28729153437500 -1.90576546562500 
 N -0.169448678124993 -7.03492553437500 -2.46617146562500 
 N -2.35970467812499 -6.46455753437500 -3.59216246562500 
 N -2.94541267812499 -6.72759853437501 0.285262534375000 
 N -0.275695678124992 -3.57198253437500 -2.79304146562500 
 N -2.29032367812499 -2.55826853437500 -3.77659846562500 
 N -3.00313867812499 -2.99532153437500 2.238853437499966E-002
 S -0.736907678124993 -6.72148353437500 -4.03149346562500 
 S -3.79317567812499 -6.65550753437500 -1.15381746562500 
 S -1.26113667812499 -6.93031853437500 0.128493534375000 
 S -0.784366678124993 -3.07208953437500 -4.32318246562500 
 S -3.71401967812499 -2.40407653437500 -1.37200446562500 
 S -1.38564667812499 -3.39605253437500 -0.157339465625000 
