16

 C -2.50678931562499 -6.49513261250000 -2.58283729062500 
 C -1.26959931562499 -6.77764961250000 -1.82676129062500 
 C -2.44296331562499 -2.55476961250000 -2.41264729062500 
 C -1.23495731562499 -3.04383961250000 -1.79432929062500 
 N -0.182911315624993 -6.78403961250000 -2.57483529062500 
 N -2.28988931562499 -6.30001161250000 -3.88299329062500 
 N -3.06894231562499 -6.60949661250000 -4.254929062500024E-002
 N -0.180139315624992 -3.25164861250000 -2.60033229062500 
 N -2.32789831562499 -2.55477761250000 -3.73094729062500 
 N -3.00527631562499 -2.75135761250000 0.126561709375000 
 S -0.621871315624992 -6.46942761250000 -4.15814929062500 
 S -3.94515831562499 -6.33219861250000 -1.49170229062500 
 S -1.49142931562499 -7.00237961250000 -0.147215290625000 
 S -0.762029315624993 -2.95826161250000 -4.18321929062500 
 S -3.78655531562499 -2.24737261250000 -1.32290329062500 
 S -1.39049231562499 -3.17620061250000 -4.515029062500031E-002
