16

 C -2.53940085000000 -6.21832614687500 -2.43957200937500 
 C -1.37084285000000 -6.83014514687500 -1.85996400937500 
 C -2.48117585000000 -2.43960414687500 -2.54412200937500 
 C -1.24404885000000 -2.83731914687500 -1.92967100937500 
 N -0.463141850000005 -7.14356114687500 -2.74855700937500 
 N -2.46268085000000 -6.07120914687500 -3.74828800937500 
 N -2.91711985000000 -6.29033614687500 9.106999062500232E-002
 N -0.301437850000005 -3.22902214687500 -2.79270500937500 
 N -2.42243185000001 -2.39152814687500 -3.86090500937500 
 N -3.06298885000000 -2.57162014687500 -9.239500937499767E-002
 S -0.937847850000004 -6.62821014687500 -4.21234800937500 
 S -3.74971485000000 -5.82390714687500 -1.26078100937500 
 S -1.46205985000000 -7.10399914687500 -0.191396009374998 
 S -0.894625850000004 -2.94611514687500 -4.27355700937500 
 S -3.80834885000000 -2.04265414687500 -1.52335000937500 
 S -1.42761785000000 -2.99413314687500 -0.166338009374998 
