16

 C -2.63926988125000 -6.42097144062500 -2.56038812187500 
 C -1.34582488125000 -6.80480544062500 -2.07877212187500 
 C -2.64209188125000 -2.84654044062500 -2.26102612187500 
 C -1.44313288125000 -3.39502944062500 -1.58706012187500 
 N -0.399731881250001 -7.07368544062500 -2.98963512187500 
 N -2.64364388125000 -6.30953244062500 -3.89952512187500 
 N -2.83655988125000 -6.54863144062500 7.115287812499749E-002
 N -0.349171881250001 -3.51329944062500 -2.39305012187500 
 N -2.49430288125000 -2.60206044062500 -3.57832612187500 
 N -3.31570288125000 -3.13824844062500 0.209750878124997 
 S -1.11312388125000 -6.68827844062500 -4.44444312187500 
 S -3.79994988125000 -6.37880544062500 -1.22748112187500 
 S -1.27685988125000 -7.11629344062500 -0.347063121875002 
 S -0.949481881250001 -3.15447644062500 -3.93971012187500 
 S -4.00719988125000 -2.62837344062500 -1.19980512187500 
 S -1.68245088125000 -3.49942544062500 9.493487812499746E-002
