16

 C -2.37759970000000 -6.31050129062500 -2.24689157500000 
 C -1.16655170000000 -6.73091729062500 -1.62421957500000 
 C -2.49411970000000 -2.75473729062500 -2.81879357500000 
 C -1.16332270000000 -2.89193029062500 -2.23845857500000 
 N -0.169551700000002 -6.73061629062500 -2.48765657500000 
 N -2.28338270000000 -5.97509429062500 -3.51515657500000 
 N -2.79346370000000 -6.53710929062500 0.236249424999999 
 N -0.138374700000002 -2.88226429062500 -3.10396957500000 
 N -2.39274270000000 -2.65889329062500 -4.13018857500000 
 N -2.91057370000000 -3.10713429062500 -0.327022575000001 
 S -0.723058700000002 -6.25715329062500 -3.99013357500000 
 S -3.71709870000000 -6.18041329062500 -1.16590557500000 
 S -1.34640570000000 -7.20281829062500 -2.480957500000058E-002
 S -0.818134700000002 -2.56880329062500 -4.56799757500000 
 S -3.83562070000000 -2.96756929062500 -1.69847657500000 
 S -1.23702370000000 -3.12774129062500 -0.435345575000001 
