16

 C -2.38843699375000 -6.30846465937501 -2.27318133750000 
 C -1.19964899375000 -6.75693065937501 -1.64597633750000 
 C -2.50761899375000 -2.75497265937501 -2.83456233750000 
 C -1.19105999375000 -2.89401465937501 -2.21490533750000 
 N -0.169086993750000 -6.70607165937501 -2.47203733750000 
 N -2.32224799375000 -6.01737765937501 -3.55409733750000 
 N -2.85158799375000 -6.56420965937501 0.230153662500002 
 N -0.168960993749999 -2.84669565937501 -3.09260533750000 
 N -2.40147099375000 -2.63397565937501 -4.18587433750000 
 N -2.89432199375000 -3.12993465937501 -0.306421337499998 
 S -0.709713993749999 -6.25368565937501 -3.99244833750000 
 S -3.71896999375000 -6.17436165937501 -1.14052733750000 
 S -1.33038599375000 -7.19223865937501 -2.158733749999797E-002
 S -0.795191993750000 -2.58527365937501 -4.58769133750000 
 S -3.82894799375000 -2.93995765937501 -1.71859933750000 
 S -1.23871499375000 -3.10032865937501 -0.449686337499998 
