16

 C -2.39535983125000 -6.32858169374999 -2.48001746875000 
 C -1.23423283125000 -6.61364269374999 -1.73807446875000 
 C -2.27260983125000 -2.91449069374999 -2.40486946875000 
 C -1.00822583125000 -3.19264569374999 -1.84192646875000 
 N -0.147375831250001 -6.70509869374999 -2.51150546875000 
 N -2.23822583125000 -6.25005669374999 -3.83334146875000 
 N -3.04639083125000 -6.47359769374999 5.534253124999955E-002
 N 9.152168749999134E-003 -3.28111969374999 -2.71421146875000 
 N -2.20292483125000 -2.71725769374999 -3.72627546875000 
 N -2.68362583125000 -3.25178269374999 6.048053124999964E-002
 S -0.646120831250001 -6.62263169374999 -4.10799646875000 
 S -3.80346983125000 -6.11857569374999 -1.41450746875000 
 S -1.47288683125000 -6.78947069374999 2.789531249999699E-003
 S -0.620959831250000 -3.00420069374999 -4.16808146875000 
 S -3.53671383125000 -2.85366869374999 -1.26821546875000 
 S -1.04572983125000 -3.52642169374999 -0.127628468750000 
