16

 C -2.17895892187500 -6.38025880937500 -2.58653990000000 
 C -1.04844692187500 -6.93829780937500 -1.91335490000000 
 C -2.64154892187500 -2.40875780937500 -2.36942990000000 
 C -1.58409692187500 -3.08912080937500 -1.72660290000000 
 N -4.254292187499775E-002 -7.32358680937500 -2.71145790000000 
 N -1.97984492187500 -6.21790780937500 -3.89838690000000 
 N -2.81877492187500 -6.54271380937500 -7.460989999999978E-002
 N -0.578901921874998 -3.39827580937500 -2.55843590000000 
 N -2.41217192187500 -2.20971880937500 -3.65167090000000 
 N -3.28460092187500 -2.41320980937500 7.603110000000002E-002
 S -0.518961921874998 -6.85924180937500 -4.23165190000000 
 S -3.56467092187500 -6.14117380937500 -1.47902890000000 
 S -1.32666592187500 -7.26211180937500 -0.218437900000000 
 S -0.902232921874998 -2.79333080937500 -4.04177390000000 
 S -4.03636392187500 -2.02159380937500 -1.35161390000000 
 S -1.77883992187500 -3.12836180937500 8.943100000000204E-003
