16

 C -2.11048930625001 -6.46690790312500 -2.31005481250000 
 C -0.871628306250005 -6.91299590312500 -1.73318981250000 
 C -2.58735430625001 -2.53215890312500 -2.40758081250000 
 C -1.39324830625001 -2.99699890312500 -1.80441181250000 
 N 0.133124693749995 -7.21972190312500 -2.56692781250000 
 N -2.01434730625000 -6.33465590312500 -3.62327781250000 
 N -2.65997130625001 -6.77673390312500 0.177980187499999 
 N -0.397046306250005 -3.15152690312500 -2.66765381250000 
 N -2.55171930625001 -2.43015190312500 -3.73049581250000 
 N -3.07742530625000 -2.70015890312500 8.484518749999870E-002
 S -0.516258306250005 -6.88248090312500 -4.09298981250000 
 S -3.44451230625001 -6.32023290312500 -1.22521481250000 
 S -1.05740830625001 -7.18676590312500 2.884818749999885E-002
 S -0.928549306250005 -2.77165890312500 -4.17604081250000 
 S -3.94960030625001 -2.34125890312500 -1.32191481250000 
 S -1.47690630625001 -3.01089390312500 -0.113714812500001 
