16

 C -2.19142577500001 -6.40746976562500 -2.37106357187500 
 C -0.910524775000006 -6.74273276562500 -1.81641357187500 
 C -2.56706677500001 -2.86351576562500 -2.47166857187500 
 C -1.35392777500001 -3.19784276562500 -1.74065057187500 
 N 0.128273224999994 -6.79833576562500 -2.64866557187500 
 N -2.13249477500001 -6.27541276562500 -3.70218557187500 
 N -2.63078677500001 -6.67841976562500 0.128184428124998 
 N -0.291412775000006 -3.32762976562500 -2.51336157187500 
 N -2.35850477500001 -2.72194576562500 -3.76774257187500 
 N -3.22493477500001 -2.83955676562500 4.294142812499824E-002
 S -0.561628775000006 -6.46736576562500 -4.14775557187500 
 S -3.47665777500001 -6.40284876562500 -1.25050857187500 
 S -1.04543177500001 -7.09557476562500 -0.108614571875002 
 S -0.786027775000006 -3.07458876562500 -4.07431857187500 
 S -3.93349277500001 -2.48044876562500 -1.45165757187500 
 S -1.64098277500001 -3.39443976562500 -9.139557187500147E-002
