16

 C -2.63506443437501 -6.49809370000000 -2.50761361562500 
 C -1.33711343437501 -6.83466570000000 -2.03108561562500 
 C -2.59790543437501 -2.78326370000000 -2.23254561562500 
 C -1.40162743437501 -3.28859470000000 -1.61300961562500 
 N -0.418516434375008 -7.11335170000000 -2.95500961562500 
 N -2.61405843437501 -6.37039270000000 -3.83355161562500 
 N -2.79881643437501 -6.58414570000000 9.929638437500254E-002
 N -0.375590434375008 -3.44311170000000 -2.42025161562500 
 N -2.48554443437501 -2.59249970000000 -3.53100561562500 
 N -3.24806243437501 -3.10012270000000 0.240205384375002 
 S -1.08319043437501 -6.71611170000000 -4.41876961562500 
 S -3.77496343437501 -6.40498470000000 -1.28019861562500 
 S -1.29315143437501 -7.08431770000000 -0.355457615624997 
 S -0.957543434375008 -3.13829370000000 -3.96832661562500 
 S -4.02107143437501 -2.58921870000000 -1.19146361562500 
 S -1.65112243437501 -3.57003170000000 0.109694384375002 
