16

 C -2.36809731562501 -6.28398484999999 -2.67174530312500 
 C -1.21223431562501 -6.77694184999999 -1.98568630312500 
 C -2.53955531562501 -2.82485184999999 -2.60995230312500 
 C -1.25272431562501 -3.04087384999999 -1.87535530312500 
 N -0.152917315625007 -6.90693084999999 -2.78240230312500 
 N -2.18683931562501 -6.01292884999999 -3.96967330312500 
 N -3.12034531562501 -6.43748384999999 -0.205630303125000 
 N -0.176940315625006 -3.11659984999999 -2.66336830312500 
 N -2.33770131562501 -2.70365284999999 -3.91526630312500 
 N -3.10663231562501 -2.88814784999999 -8.832930312499965E-002
 S -0.599163315625007 -6.35129584999999 -4.25666630312500 
 S -3.79021031562501 -5.92807384999999 -1.67401030312500 
 S -1.49712131562501 -6.84161184999999 -0.272054303125000 
 S -0.690761315625006 -2.88321184999999 -4.19303430312500 
 S -3.84637731562501 -2.66787384999999 -1.50460330312500 
 S -1.47513631562501 -3.20660984999999 -0.145044303125000 
