16

 C -2.66591066875000 -6.54034686250000 -2.14192834375000 
 C -1.44302666875000 -7.17748986250000 -1.67866734375000 
 C -2.31307466875000 -2.74087386250000 -2.35708134375000 
 C -1.16777266875000 -3.37007786250000 -1.80052034375000 
 N -0.528310668749996 -7.51854186250000 -2.60660234375000 
 N -2.57735666875000 -6.32075586250000 -3.45879134375000 
 N -2.91351066875000 -6.93625586250000 0.508353656249997 
 N -0.195741668749996 -3.63382286250000 -2.64328934375000 
 N -2.19830666875000 -2.50607186250000 -3.65901034375000 
 N -2.84073266875000 -2.94044186250000 0.133933656249997 
 S -1.11458366875000 -6.92656386250000 -4.02879434375000 
 S -3.81060066875000 -6.50124286250000 -0.839636343750003 
 S -1.43765366875000 -7.55182286250000 5.701165624999716E-002
 S -0.730007668749995 -3.15240186250000 -4.14880734375000 
 S -3.64235166875000 -2.47689786250000 -1.25569934375000 
 S -1.30443166875000 -3.46005886250000 -7.118734375000280E-002
