16

 C -2.27794767812501 -6.44998287187500 -2.46240014687500 
 C -1.04705167812501 -6.73399587187500 -1.74728214687500 
 C -2.55616967812501 -2.65863987187501 -2.54546214687500 
 C -1.44867067812500 -3.20092187187501 -1.82137514687500 
 N -3.790967812500501E-002 -6.95178787187500 -2.59526414687500 
 N -2.21691767812501 -6.26969487187501 -3.78011214687500 
 N -2.84116267812501 -6.74067587187500 6.863385312499992E-002
 N -0.418625678125006 -3.55042287187500 -2.58869114687500 
 N -2.33195467812501 -2.66893887187500 -3.85138514687500 
 N -3.27583567812500 -2.93768887187500 -0.104163146875000 
 S -0.619982678125005 -6.63502287187501 -4.13372914687500 
 S -3.60963467812500 -6.29453587187500 -1.35152514687500 
 S -1.17798267812501 -6.88540387187500 -3.422914687500023E-002
 S -0.800796678125005 -3.25905387187500 -4.17157414687500 
 S -3.94895867812501 -2.45368587187501 -1.55661514687500 
 S -1.69335167812500 -3.36582287187500 -0.100779146875000 
