16

 C -2.47300740937499 -6.65831564375000 -2.48038067187500 
 C -1.21648340937499 -6.82133564375000 -1.84175367187500 
 C -2.31999040937499 -3.16330364375000 -2.20895767187500 
 C -1.13074740937499 -3.67967164375000 -1.52748867187500 
 N -0.215712409374994 -7.01025064375000 -2.72772367187500 
 N -2.43056740937499 -6.57868764375000 -3.82873667187500 
 N -3.04615340937499 -6.61219764375000 8.889232812500203E-002
 N -0.108246409374995 -3.88160464375000 -2.35754767187500 
 N -2.14175540937499 -2.90773964375000 -3.49821467187500 
 N -2.92276940937499 -3.47326364375000 0.286564328125002 
 S -0.859305409374994 -6.85747264375000 -4.30921567187500 
 S -3.87128840937499 -6.42520164375000 -1.39858767187500 
 S -1.40084940937499 -6.81370564375000 -8.660367187499785E-002
 S -0.566593409374994 -3.28640664375000 -3.84831767187500 
 S -3.68438640937499 -3.17404764375000 -1.12564367187500 
 S -1.29479540937499 -3.78502264375000 0.190504328125002 
