16

 C -2.47955481562500 -6.87034424375001 -2.31374200625000 
 C -1.12886481562500 -7.20302924375001 -1.84757100625000 
 C -2.63200181562500 -2.82316024375001 -2.43877500625000 
 C -1.38328481562500 -3.30960224375001 -1.75252200625000 
 N -0.249633815625002 -7.31866724375001 -2.85194400625000 
 N -2.57682681562500 -6.69446524375001 -3.62095500625000 
 N -2.63272281562500 -6.88070624375001 0.224294993750001 
 N -0.378884815625002 -3.55824624375001 -2.59410800625000 
 N -2.49029981562500 -2.55809524375001 -3.71223300625000 
 N -3.23043181562500 -3.27473524375001 -1.083800624999931E-002
 S -1.10347981562500 -6.96711124375001 -4.23187500625000 
 S -3.71633281562500 -6.80245424375001 -1.05442200625000 
 S -1.01121681562500 -7.36943224375001 -0.135576006249999 
 S -0.971038815625002 -3.01152024375001 -4.09882300625000 
 S -3.93987381562500 -2.59072824375001 -1.38416900625000 
 S -1.56119081562500 -3.60145824375001 -6.745700624999929E-002
