16

 C -2.27358431562500 -6.13115609374999 -2.03015134062500 
 C -1.06928431562500 -6.67993409374999 -1.48257434062500 
 C -2.34110431562500 -2.70116709374999 -2.36349334062500 
 C -1.19066531562500 -3.15372909374999 -1.66296034062500 
 N -9.619931562499673E-002 -6.76957909374999 -2.37157434062500 
 N -2.21331731562500 -5.78247409374999 -3.32038534062500 
 N -2.68996631562500 -6.79458209374999 0.408955659375001 
 N -5.717531562499634E-002 -3.31808609374999 -2.38410234062500 
 N -2.14964531562500 -2.62114009374999 -3.66962034062500 
 N -3.12671931562500 -2.79890309374999 0.146225659375001 
 S -0.766790315624997 -6.33832309374999 -3.79098434062500 
 S -3.61006031562500 -6.13764709374999 -0.889394340624999 
 S -1.15890231562500 -7.27290109374999 5.860765937500112E-002
 S -0.627724315624996 -3.11182709374999 -3.98632534062500 
 S -3.73816231562500 -2.35528309374999 -1.38281034062500 
 S -1.55600431562500 -3.37580709374999 9.978665937500120E-002
