16

 C -2.18513564375000 -6.40071719687500 -2.37129694687500 
 C -0.922570643750000 -6.75633419687500 -1.81290794687500 
 C -2.58716864375000 -2.86899119687500 -2.48764294687500 
 C -1.35736364375000 -3.20854519687500 -1.75005494687500 
 N 0.113421356249999 -6.79798519687500 -2.64746894687500 
 N -2.12881364375000 -6.27220819687500 -3.70690194687500 
 N -2.62452264375000 -6.67570119687500 0.122113053125001 
 N -0.279998643750001 -3.35062219687500 -2.51906294687500 
 N -2.35419164375000 -2.73165919687500 -3.78450594687500 
 N -3.22354964375000 -2.83656319687500 3.680605312500140E-002
 S -0.564887643750001 -6.46753119687500 -4.14307094687500 
 S -3.47504864375000 -6.40456319687500 -1.25737094687500 
 S -1.04359164375000 -7.09163819687500 -0.107896946874999 
 S -0.785257643750001 -3.07251619687500 -4.06993694687500 
 S -3.93145564375000 -2.47795219687500 -1.46049894687500 
 S -1.64638164375000 -3.39197719687500 -8.237794687499855E-002
