16

 C -2.30377698750000 -6.26359764687500 -2.36449395000000 
 C -1.05419698750000 -6.78600764687500 -1.76871495000000 
 C -2.57968998750000 -2.53551064687500 -2.53092895000000 
 C -1.52208698750000 -3.16106964687500 -1.81948595000000 
 N -0.145429987499998 -6.95448564687500 -2.69532095000000 
 N -2.29931898750000 -6.07459264687500 -3.64394795000000 
 N -2.88807498750000 -6.77323364687500 5.288204999999913E-002
 N -0.540771987499999 -3.54834264687500 -2.64160395000000 
 N -2.35323798750000 -2.35069064687500 -3.82586695000000 
 N -3.19502698750000 -2.57813664687500 -2.028095000000096E-002
 S -0.790125987499999 -6.47088564687500 -4.14328295000000 
 S -3.57723398750000 -5.94409364687500 -1.24500795000000 
 S -1.22988798750000 -7.08172664687500 -2.814095000000094E-002
 S -0.905735987499998 -3.11631764687500 -4.20199195000000 
 S -3.87833198750000 -2.12588464687500 -1.47571495000000 
 S -1.63708798750000 -3.12310464687500 -8.311195000000082E-002
