16

 C -2.41632010312500 -6.28754360625000 -2.39581672812500 
 C -1.29241410312500 -6.89331460625000 -1.70928472812500 
 C -2.37223410312500 -2.30367860625000 -2.44490072812500 
 C -1.25539910312500 -2.97437860625000 -1.80708772812500 
 N -0.213319103125005 -7.09811560625000 -2.43857372812500 
 N -2.14057910312500 -6.03725760625000 -3.66998372812500 
 N -3.11074710312500 -6.58196660625000 0.123426271875002 
 N -0.253018103125005 -3.27711460625000 -2.61807972812500 
 N -2.23496710312500 -2.10809660625000 -3.78539672812500 
 N -3.03722110312500 -2.33292160625000 1.591827187500217E-002
 S -0.604646103125004 -6.60201660625000 -3.94113072812500 
 S -3.77986710312500 -5.95364160625000 -1.30567772812500 
 S -1.59725510312500 -7.22798560625000 -3.188972812499813E-002
 S -0.808564103125004 -2.74724460625000 -4.22395172812500 
 S -3.75336310312500 -1.93628760625000 -1.43136872812500 
 S -1.47467210312500 -2.97931360625000 -6.702772812499802E-002
