16

 C -2.58312673437500 -6.61785383437499 -2.29193190937500 
 C -1.37237073437500 -7.05564183437499 -1.62648490937500 
 C -2.73505573437500 -2.47321383437499 -2.39631990937500 
 C -1.61795373437500 -3.04006383437499 -1.68608390937500 
 N -0.332928734374996 -7.14686983437499 -2.45690490937500 
 N -2.55347173437500 -6.46682783437499 -3.62664090937500 
 N -3.13704573437500 -6.84262683437499 0.244826090625000 
 N -0.498192734374997 -3.31494683437499 -2.39014490937500 
 N -2.52367973437500 -2.28059083437499 -3.70932790937500 
 N -3.44367573437500 -2.67748183437499 7.335809062499976E-002
 S -0.915231734374997 -6.77239483437499 -3.96748090937500 
 S -3.90090973437500 -6.48738583437499 -1.20055490937500 
 S -1.53930073437500 -7.34564183437499 5.445009062499961E-002
 S -1.01202373437500 -2.79747383437499 -3.92290890937500 
 S -3.98946173437500 -2.03585783437499 -1.33172390937500 
 S -1.96047873437500 -3.39539183437499 7.539090624999689E-003
