16

 C -2.59430411562500 -6.64716495937500 -2.28369131875000 
 C -1.35329011562500 -7.05951795937500 -1.63378831875000 
 C -2.69134211562500 -2.42780995937500 -2.37760931875000 
 C -1.59968811562500 -3.03317495937500 -1.70325531875000 
 N -0.313143115624999 -7.12605595937500 -2.45682831875000 
 N -2.54158911562500 -6.47126195937500 -3.61297831875000 
 N -3.14995711562500 -6.83907695937500 0.236646681250001 
 N -0.507460115624998 -3.27504495937500 -2.42478431875000 
 N -2.54802911562500 -2.28424595937500 -3.69434031875000 
 N -3.45168611562500 -2.73432195937500 9.252468125000068E-002
 S -0.941006115624998 -6.74642595937500 -3.96701131875000 
 S -3.89916311562500 -6.49945195937500 -1.21121531875000 
 S -1.59007911562500 -7.29609895937500 6.370168125000064E-002
 S -1.00234811562500 -2.78418495937500 -3.94619031875000 
 S -3.99830711562500 -2.04150895937500 -1.32643731875000 
 S -1.94924411562500 -3.37318695937500 2.598681250000734E-003
