16

 C -2.51334340625000 -6.24181086250000 -2.36473845937500 
 C -1.26370840625000 -6.58782886250000 -1.66323245937500 
 C -2.50790240625000 -2.49284186250000 -2.90249145937500 
 C -1.32923240625000 -2.89588686250000 -2.22209845937500 
 N -0.265542406249998 -6.75142786250000 -2.53661945937500 
 N -2.43840740625000 -6.05314086250000 -3.69953745937500 
 N -3.07533340625000 -6.73263686250000 0.124353540625001 
 N -0.191603406249998 -2.87225486250000 -2.89806245937500 
 N -2.30878640625000 -2.19897786250000 -4.17123045937500 
 N -3.18495340625000 -2.74987486250000 -0.432037459374999 
 S -0.834808406249998 -6.44041186250000 -4.07098545937500 
 S -3.89462240625000 -6.53016286250000 -1.24092045937500 
 S -1.37708940625000 -6.91848086250000 3.954540625001002E-003
 S -0.687443406249998 -2.57404386250000 -4.46023945937500 
 S -3.84044040625000 -2.36433186250000 -1.87125845937500 
 S -1.60081540625000 -3.11249186250000 -0.490977459374999 
