16

 C -2.36632300625000 -6.62386217812501 -2.30003516875000 
 C -1.13290500625000 -6.91667217812501 -1.67557316875000 
 C -2.53182900625000 -2.59691217812501 -2.39927516875000 
 C -1.38087600625000 -3.24514517812501 -1.82139716875000 
 N -0.147104006250001 -7.04195517812501 -2.54023216875000 
 N -2.38007900625000 -6.51812717812501 -3.61763316875000 
 N -2.89365400625000 -6.66936817812501 0.209964831250000 
 N -0.396952006250001 -3.43249717812501 -2.67513316875000 
 N -2.43192900625000 -2.43526417812501 -3.71252516875000 
 N -3.06927100625000 -2.88112817812501 -2.563616874999974E-002
 S -0.809054006250001 -6.80156917812501 -4.07261716875000 
 S -3.72028900625000 -6.43073217812501 -1.23804916875000 
 S -1.23102000625000 -6.98294317812501 2.382283125000018E-002
 S -0.906457006250001 -3.05337817812501 -4.16888016875000 
 S -3.82609100625000 -2.34642117812501 -1.38528116875000 
 S -1.51795700625000 -3.48323117812501 -0.115178168750000 
