16

 C -2.49539185312500 -6.41256713750001 -2.51471288125000 
 C -1.25290585312500 -6.78014313750001 -1.88098588125000 
 C -2.71135185312500 -2.91234413750001 -2.54016288125000 
 C -1.59177585312500 -3.56623013750001 -1.90038288125000 
 N -0.172939853125001 -6.98111213750001 -2.62176488125000 
 N -2.32568185312500 -6.28634413750001 -3.82419488125000 
 N -3.16802285312500 -6.66140213750001 -4.862988124999723E-002
 N -0.525579853125001 -3.61339613750001 -2.68506788125000 
 N -2.54956385312500 -2.55070713750001 -3.81236888125000 
 N -3.36350585312500 -3.31254413750001 6.275118750002751E-003
 S -0.760420853125002 -6.68295013750001 -4.14235488125000 
 S -3.82429685312500 -6.18942613750001 -1.50100288125000 
 S -1.55293185312500 -7.01301613750001 -0.166008881249997 
 S -0.999472853125002 -3.11553913750001 -4.21716988125000 
 S -4.01613485312500 -2.78733613750001 -1.38547888125000 
 S -1.76780785312500 -3.77655513750001 -0.166962881249997 
