16

 C -2.51197799062501 -6.29783314687500 -2.50484270937500 
 C -1.32622899062501 -6.80885314687500 -1.85041670937500 
 C -2.40585099062501 -2.50021114687500 -2.44171870937500 
 C -1.28793599062501 -2.99382214687500 -1.73903470937500 
 N -0.310731990625009 -7.12491214687500 -2.66678170937500 
 N -2.34898499062501 -6.18836714687500 -3.80174670937500 
 N -3.20929599062501 -6.45553614687500 -2.929370937499876E-002
 N -0.262245990625009 -3.33364614687500 -2.54233670937500 
 N -2.24635699062501 -2.37154214687500 -3.75371970937500 
 N -3.07337299062501 -2.59081714687500 1.644229062500147E-002
 S -0.834021990625009 -6.72068314687500 -4.20119470937500 
 S -3.85123899062501 -5.96676314687500 -1.49383770937500 
 S -1.63955099062501 -7.00641614687500 -0.114389709374999 
 S -0.717566990625008 -2.86849414687500 -4.14766970937500 
 S -3.77318399062501 -2.12331314687500 -1.45614070937500 
 S -1.42437899062501 -2.98980814687500 -3.452970937499877E-002
