16

 C -2.36624115312500 -6.62531843437501 -2.46356803437500 
 C -1.11606015312500 -6.89994143437501 -1.82645203437500 
 C -2.44945315312500 -2.67726943437501 -2.44162603437500 
 C -1.27094515312500 -3.09887043437501 -1.64682803437500 
 N -7.593815312499963E-002 -6.81813143437501 -2.64744603437500 
 N -2.30201915312500 -6.39112143437501 -3.78368103437500 
 N -2.98165515312500 -7.02191343437501 6.226965624999803E-003
 N -0.173502153125000 -3.25935043437501 -2.37385903437500 
 N -2.18753915312500 -2.69265143437501 -3.75949503437500 
 N -3.21847515312500 -2.67044943437501 3.731896562499992E-002
 S -0.668733153124999 -6.51607443437501 -4.15980103437500 
 S -3.74724715312500 -6.56224543437501 -1.34914703437500 
 S -1.33643115312500 -7.29652143437501 -0.145005034375000 
 S -0.617703153124999 -3.04713643437501 -4.00605203437500 
 S -3.82832715312500 -2.35180543437501 -1.42567103437500 
 S -1.64124415312500 -3.19757643437501 9.497096562499996E-002
