16

 C -2.50666895312500 -6.50171940312500 -2.37547540625000 
 C -1.28965795312500 -6.89518340312500 -1.75612040625000 
 C -2.51400095312500 -3.18499840312500 -2.35628640625000 
 C -1.26777995312500 -3.57262740312500 -1.77193140625000 
 N -0.228981953125001 -7.09894940312500 -2.54776940625000 
 N -2.32550295312500 -6.36259840312500 -3.69089140625000 
 N -3.06889895312500 -6.78334140312500 9.289859374999865E-002
 N -0.281218953125001 -3.55218540312500 -2.65724140625000 
 N -2.51142695312500 -2.95907340312500 -3.66165440625000 
 N -3.01397895312500 -3.30878840312500 0.179566593749999 
 S -0.714007953125002 -6.66125640312500 -4.06980440625000 
 S -3.83937095312500 -6.31351340312500 -1.29299540625000 
 S -1.38505895312500 -6.97892540312500 -4.979340625000139E-002
 S -0.919239953125001 -3.17404140312500 -4.09853040625000 
 S -3.84905195312500 -3.22967240312500 -1.26681640625000 
 S -1.40852295312500 -3.65334440312500 -1.685640625000140E-002
