16

 C -2.50626035937500 -6.61591248437501 -2.42636085000000 
 C -1.21855335937500 -6.96469848437501 -1.95375785000000 
 C -2.59177035937500 -2.74397348437501 -2.56156985000000 
 C -1.41935435937500 -3.28374548437501 -1.77002585000000 
 N -0.227902359375000 -6.98417148437501 -2.87726585000000 
 N -2.59517635937500 -6.33930848437501 -3.73155185000000 
 N -2.91709735937500 -6.92308948437501 7.176614999999953E-002
 N -0.317613359375001 -3.49656448437501 -2.51072285000000 
 N -2.41042635937500 -2.75467648437501 -3.89406685000000 
 N -3.29526835937500 -2.69753748437501 -4.812185000000047E-002
 S -1.03182135937500 -6.57419848437501 -4.29889085000000 
 S -3.74070335937500 -6.47516648437501 -1.26928185000000 
 S -1.36615335937500 -7.33191048437501 -0.252972850000001 
 S -0.862103359375000 -3.20617248437501 -4.09548985000000 
 S -3.91523535937500 -2.22574648437501 -1.50267885000000 
 S -1.70718435937500 -3.23765848437501 -9.645785000000040E-002
