16

 C -2.57527915000000 -6.50359766875000 -2.14725153750000 
 C -1.42390615000000 -7.20017566875000 -1.67405453750000 
 C -2.33906715000000 -2.74382966875000 -2.43464253750000 
 C -1.17470915000000 -3.36020966875000 -1.81741053750000 
 N -0.508270150000001 -7.47746766875000 -2.57511353750000 
 N -2.61993715000000 -6.31230566875000 -3.48131453750000 
 N -2.85880415000000 -6.90078866875000 0.483824462500000 
 N -0.142282150000001 -3.60673766875000 -2.65612353750000 
 N -2.22920615000000 -2.46974166875000 -3.73319353750000 
 N -2.89665315000000 -2.90131566875000 0.127393462500000 
 S -1.10269715000000 -6.88350766875000 -4.00444953750000 
 S -3.78515715000000 -6.50503866875000 -0.816953537500000 
 S -1.41269815000000 -7.57291066875000 5.354746249999986E-002
 S -0.757696150000001 -3.17510566875000 -4.14557953750000 
 S -3.69162515000000 -2.45238866875000 -1.25711253750000 
 S -1.32634115000000 -3.49816166875000 -6.701253750000014E-002
