16

 C -2.44082325625000 -6.25305065937500 -2.69291559062500 
 C -1.22772025625000 -6.67531165937500 -2.02581559062500 
 C -2.47845225625000 -2.80298465937500 -2.61076859062500 
 C -1.23761525625000 -3.07098665937500 -1.87863959062500 
 N -0.150762256249998 -6.90388965937500 -2.78842959062500 
 N -2.24099325625000 -6.01690065937500 -3.97443459062500 
 N -3.15349125625000 -6.46424865937500 -0.184364590624997 
 N -0.151276256249998 -3.09629465937500 -2.65588859062500 
 N -2.36316725625000 -2.65169465937500 -3.94914159062500 
 N -3.12576825625000 -2.84403865937500 -5.813359062499757E-002
 S -0.628107256249998 -6.36206765937500 -4.30698959062500 
 S -3.81557325625000 -6.00125165937500 -1.63999259062500 
 S -1.53507125625000 -6.86565365937500 -0.299383590624998 
 S -0.726613256249999 -2.90238365937500 -4.19096959062500 
 S -3.85367325625000 -2.68032865937500 -1.51390259062500 
 S -1.45642325625000 -3.19939965937500 -0.121872590624998 
