16

 C -2.51705375625000 -6.65912363749999 -2.27429155312500 
 C -1.34712775625000 -7.12696463749999 -1.65182355312500 
 C -2.34357875625000 -2.46050263749999 -2.54054655312500 
 C -1.18511175625000 -2.98713363749999 -1.84017755312500 
 N -0.284520756249997 -7.34048963749999 -2.43805755312500 
 N -2.33448975625000 -6.53026063749999 -3.57843055312500 
 N -3.01545175625000 -6.72240163749999 0.256798446875000 
 N -0.127410756249997 -3.13266363749999 -2.61780555312500 
 N -2.15010575625000 -2.24329963749999 -3.84060955312500 
 N -2.95522475625000 -2.68331063749999 -4.210055312500027E-002
 S -0.803547756249998 -7.07947963749999 -3.98763055312500 
 S -3.71910075625000 -6.23170163749999 -1.14038955312500 
 S -1.39309675625000 -7.24562663749999 5.075844687499975E-002
 S -0.525235756249997 -2.57380763749999 -4.13038455312500 
 S -3.74817775625000 -2.39366463749999 -1.50188155312500 
 S -1.43243375625000 -3.31022763749999 -0.116217553125000 
