16

 C -2.63555590937500 -6.48994910312500 -2.48237996562500 
 C -1.47000790937500 -6.97786210312500 -1.79933996562500 
 C -2.23074890937500 -2.84552610312500 -2.37752596562500 
 C -1.01971490937500 -3.36450710312500 -1.74446496562500 
 N -0.417544909375000 -7.19097010312500 -2.58709696562500 
 N -2.42229490937500 -6.20489210312500 -3.74713196562500 
 N -3.35255890937500 -6.79627910312500 -4.484796562500093E-002
 N -2.667890937499973E-002 -3.54868310312500 -2.57476596562500 
 N -2.07276090937500 -2.60944310312500 -3.66174396562500 
 N -2.85121690937500 -3.26843010312500 4.256203437499884E-002
 S -0.917081909375000 -6.70542310312500 -4.13144096562500 
 S -4.02386690937500 -6.26069310312500 -1.49503496562500 
 S -1.73637290937500 -7.27685210312500 -0.163795965625001 
 S -0.512264909374999 -3.01520110312500 -4.10396996562500 
 S -3.56186390937500 -2.76227910312500 -1.32269596562500 
 S -1.20680990937500 -3.63826610312500 -3.217596562500113E-002
