16

 C -2.65258495000000 -6.22454041250000 -2.64716969687500 
 C -1.38250595000000 -6.59068141250000 -2.05239569687500 
 C -2.46012995000000 -2.76428241250000 -2.48499869687500 
 C -1.26830095000000 -3.09278441250000 -1.86239769687500 
 N -0.346987949999997 -6.69051741250000 -2.87063469687500 
 N -2.53593795000000 -6.08237141250000 -3.96587069687500 
 N -3.26211495000000 -6.88374141250000 -0.324545696874999 
 N -0.228129949999997 -3.20883841250000 -2.66645269687500 
 N -2.37815595000000 -2.65999241250000 -3.80153669687500 
 N -2.90189995000000 -2.93065441250000 9.532130312500087E-002
 S -0.980448949999997 -6.32263441250000 -4.38464669687500 
 S -4.00863695000000 -6.21933541250000 -1.64683969687500 
 S -1.62614695000000 -6.93374941250000 -0.372649696874999 
 S -0.783054949999997 -3.00320141250000 -4.23370869687500 
 S -3.76032495000000 -2.68910641250000 -1.33387969687500 
 S -1.25628295000000 -3.14973741250000 -0.140024696874999 
