16

 C -2.61989439375001 -6.44770135937500 -2.32534149062500 
 C -1.40461139375001 -6.92106335937500 -1.69608049062500 
 C -2.44185939375001 -2.94415235937500 -2.44174049062500 
 C -1.16704339375001 -3.34368035937500 -1.77715249062500 
 N -0.402578393750008 -7.11258235937500 -2.54384849062500 
 N -2.54721539375001 -6.27860435937500 -3.64507049062500 
 N -3.13851139375001 -6.47762135937500 0.206906509374999 
 N -0.193478393750008 -3.54203635937500 -2.66336849062500 
 N -2.37278939375001 -2.76054435937500 -3.77206549062500 
 N -2.82350739375001 -2.94792135937500 0.146721509374999 
 S -0.978921393750008 -6.72675835937500 -4.08017549062500 
 S -3.90114039375001 -6.10516135937500 -1.25119049062500 
 S -1.60611539375001 -7.13702535937500 8.379550937499913E-002
 S -0.769176393750008 -3.10621035937500 -4.17885849062500 
 S -3.67254939375001 -2.55458735937500 -1.28118849062500 
 S -1.21131339375001 -3.35054035937500 -5.338249062500067E-002
