16

 C -2.31564371249999 -6.48949911250000 -2.51882921562500 
 C -1.13760671249999 -6.89469711250000 -1.82393221562500 
 C -2.53483271249999 -2.54627211250000 -2.60437121562500 
 C -1.42330071249999 -3.01680811250000 -1.81560921562500 
 N -9.542071249999484E-002 -6.96389411250000 -2.65146721562500 
 N -2.17653571249999 -6.31934111250000 -3.86011121562500 
 N -2.89776171250000 -6.46271711250000 -3.906221562499956E-002
 N -0.301973712499994 -3.22095411250000 -2.51011921562500 
 N -2.21294471249999 -2.35727411250000 -3.89533021562500 
 N -3.38407971249999 -2.87830411250000 -0.185224215625000 
 S -0.508805712499995 -6.49981011250000 -4.16759021562500 
 S -3.67492271249999 -6.25556411250000 -1.41022321562500 
 S -1.26581071250000 -6.95210811250000 -0.146964215625000 
 S -0.686510712499995 -2.96071511250000 -4.07076021562500 
 S -4.02662971249999 -2.47926411250000 -1.64825321562500 
 S -1.73402071250000 -3.16677411250000 -9.427821562499950E-002
