16

 C -2.45382687187500 -6.46814112187499 -2.33189870000000 
 C -1.20066087187500 -6.89426412187499 -1.72093270000000 
 C -2.36226187187500 -3.00968912187499 -2.20963070000000 
 C -1.06203387187500 -3.36856612187499 -1.72759070000000 
 N -0.188770871875000 -7.03195512187499 -2.58371870000000 
 N -2.41379187187500 -6.35519812187499 -3.66455970000000 
 N -2.90783387187500 -6.73041412187499 9.172230000000159E-002
 N -7.183387187499957E-002 -3.44395612187499 -2.61350570000000 
 N -2.37131287187500 -2.74048712187499 -3.53095170000000 
 N -2.65315287187500 -3.36863412187499 0.348515300000002 
 S -0.846491871874999 -6.62524812187499 -4.07033870000000 
 S -3.72950887187500 -6.34797612187499 -1.27462770000000 
 S -1.23779487187500 -7.02002112187499 1.679730000000168E-002
 S -0.861259871874999 -3.11303112187499 -4.06742570000000 
 S -3.61451387187500 -3.11670712187499 -0.988803699999999 
 S -1.01310787187500 -3.56794912187499 -5.099699999998375E-003
