16

 C -2.29610490000000 -6.17973695000001 -2.02445485625000 
 C -1.09479890000000 -6.80055495000001 -1.51906685625000 
 C -2.32020390000000 -2.54250495000000 -2.30769285625000 
 C -1.23739290000000 -3.20580295000001 -1.55012585625000 
 N -8.570390000000039E-002 -6.93951795000001 -2.42058085625000 
 N -2.11513890000000 -5.75675495000000 -3.29537585625000 
 N -2.93049990000000 -6.85636195000001 0.421814143750000 
 N -0.205988900000001 -3.53704395000001 -2.32137685625000 
 N -2.06862290000000 -2.38066995000001 -3.62062985625000 
 N -3.08386690000000 -2.99665595000001 0.176628143750000 
 S -0.616978900000001 -6.15828995000001 -3.78987485625000 
 S -3.62786990000000 -6.15622295000001 -0.941378856250000 
 S -1.35000590000000 -7.19878795000001 0.243480143750000 
 S -0.515804900000001 -2.89045595000001 -3.84488485625000 
 S -3.78381390000000 -2.45263795000001 -1.30590485625000 
 S -1.41906690000000 -3.28083695000001 0.136731143750000 
