16

 C -2.36707834687500 -6.51546238437501 -2.46017978750000 
 C -1.16555834687500 -6.87437738437501 -1.76286678750000 
 C -2.52741234687500 -3.21663738437501 -2.31558278750000 
 C -1.28333134687500 -3.46154838437501 -1.64221278750000 
 N -6.044434687499756E-002 -7.00925338437501 -2.52274278750000 
 N -2.25154134687500 -6.42789238437501 -3.77372078750000 
 N -3.04202334687500 -6.71411938437500 2.287421249999966E-002
 N -0.235076346874997 -3.66530938437501 -2.46351478750000 
 N -2.41314134687500 -3.09956738437501 -3.63160578750000 
 N -2.98104934687500 -3.32392938437501 0.204292212500000 
 S -0.693482346874998 -6.79151138437501 -4.09812978750000 
 S -3.73187334687500 -6.35027838437501 -1.42121578750000 
 S -1.40428034687500 -6.95594138437501 3.337021249999950E-002
 S -0.845744346874998 -3.37959438437501 -4.05819478750000 
 S -3.86240234687500 -3.34788438437501 -1.19854878750000 
 S -1.29849734687500 -3.58233438437501 4.805021249999952E-002
