16

 C -2.58301583750000 -6.37666178750001 -2.23821350312500 
 C -1.36738083750000 -6.84361378750001 -1.72683350312500 
 C -2.49362083750000 -2.90631478750001 -2.44300150312500 
 C -1.17404983750000 -3.23866778750001 -1.86381450312500 
 N -0.401961837499996 -6.98137578750001 -2.63814350312500 
 N -2.56786683750000 -6.13452778750001 -3.55940150312500 
 N -3.06126583750000 -6.75934578750001 0.191753496875002 
 N -0.175804837499996 -3.30987578750001 -2.71240650312500 
 N -2.39493183750000 -2.63108778750001 -3.75092950312500 
 N -2.95648883750000 -3.19275278750001 6.943649687500164E-002
 S -1.02313883750000 -6.56070078750001 -4.08664250312500 
 S -3.88380583750000 -6.17854278750001 -1.09831450312500 
 S -1.47487683750000 -7.19787378750001 -4.248550312499821E-002
 S -0.803514837499996 -2.95736478750001 -4.16218050312500 
 S -3.83019383750000 -2.83947278750001 -1.32139150312500 
 S -1.41376183750000 -3.72505978750001 -0.145602503124998 
