16

 C -2.78541496562500 -6.42976330625000 -2.75134406875000 
 C -1.55088596562500 -6.74577230625000 -2.07843806875000 
 C -2.39524496562500 -2.85598130625000 -2.38182006875000 
 C -1.07064196562500 -3.19627430625000 -1.80701306875000 
 N -0.442851965624997 -6.73407730625000 -2.82532206875000 
 N -2.57616796562500 -6.06572330625000 -4.00318506875000 
 N -3.34498796562500 -6.88950630625000 -0.207257068750002 
 N -0.118238965624998 -3.31236430625000 -2.72580906875000 
 N -2.40057096562500 -2.78623030625000 -3.71425406875000 
 N -2.78288796562500 -2.98761830625000 0.137763931249998 
 S -0.956256965624998 -6.27884330625000 -4.36896306875000 
 S -4.07269996562500 -6.25681130625000 -1.60061906875000 
 S -1.67215396562500 -7.04160830625000 -0.324354068750002 
 S -0.849474965624998 -2.98406830625000 -4.22111706875000 
 S -3.66675396562500 -2.65975230625000 -1.25173906875000 
 S -1.15833096562500 -3.27435430625000 -0.113122068750002 
