16

 C -2.37030255000000 -6.43629669062500 -2.30804471875000 
 C -1.06879355000000 -6.85350869062500 -1.80227671875000 
 C -2.55470755000000 -2.68804669062501 -2.41497371875000 
 C -1.41125555000000 -3.28596669062501 -1.76343871875000 
 N -0.147266549999999 -6.93966169062501 -2.73626271875000 
 N -2.33890455000000 -6.20166169062501 -3.60750271875000 
 N -2.64466255000000 -6.77504369062501 0.246720281249999 
 N -0.372718549999998 -3.45987569062501 -2.57406571875000 
 N -2.38335255000000 -2.47254969062501 -3.71782471875000 
 N -3.29345855000000 -2.98425669062501 3.631228124999941E-002
 S -0.770555549999998 -6.43399969062501 -4.14877771875000 
 S -3.55567355000000 -6.37364569062500 -1.11995071875000 
 S -1.06465455000000 -7.17259869062500 -6.222371875000077E-002
 S -0.831405549999999 -2.98954269062501 -4.03954171875000 
 S -3.93309355000000 -2.40146569062501 -1.42326471875000 
 S -1.68170855000000 -3.36688869062501 -3.133871875000072E-002
