16

 C -2.16068921250000 -6.13594465000000 -2.58751340000000 
 C -1.03009521250000 -6.62572665000000 -1.81341740000000 
 C -2.36213421250000 -2.81375465000000 -2.46838140000000 
 C -1.14453921250000 -3.13383865000000 -1.87760240000000 
 N 2.340278749999669E-002 -6.87662865000000 -2.56011740000000 
 N -1.93283821250000 -6.02280565000000 -3.88124540000000 
 N -2.99751321250000 -6.41791165000000 -0.187534399999999 
 N -0.155818212500003 -3.40243365000000 -2.71044340000000 
 N -2.28376121250000 -2.69312465000000 -3.76887140000000 
 N -2.84582721250000 -2.88093065000000 2.320560000000116E-002
 S -0.428534212500003 -6.62231465000000 -4.10542740000000 
 S -3.56438121250000 -5.88073865000000 -1.67411240000000 
 S -1.36737221250000 -6.80753165000000 -0.132650399999999 
 S -0.711320212500003 -3.05724965000000 -4.24935240000000 
 S -3.72773921250000 -2.79440665000000 -1.39639740000000 
 S -1.25653121250000 -3.29192665000000 -0.148901399999999 
