16

 C -2.41773920937500 -6.62157515000000 -2.24023042500000 
 C -1.13755520937500 -6.76993915000000 -1.55008542500000 
 C -2.32271220937500 -2.69374415000000 -2.49993642500000 
 C -1.09133220937500 -3.24433215000000 -1.96993342500000 
 N -0.111521209374995 -6.74283715000000 -2.41323742500000 
 N -2.33870020937500 -6.53404915000000 -3.57789742500000 
 N -3.04322120937500 -6.92098515000000 0.262412574999999 
 N -0.161177209374996 -3.42396015000000 -2.88847442500000 
 N -2.36571320937500 -2.65179815000000 -3.83577742500000 
 N -2.73724120937500 -2.90520915000000 2.425749999985793E-004
 S -0.756592209374996 -6.64312015000000 -3.95156842500000 
 S -3.77056720937500 -6.69864415000000 -1.19779142500000 
 S -1.33340320937500 -7.05207215000000 0.149712574999999 
 S -0.783604209374996 -3.06226315000000 -4.35767142500000 
 S -3.55600320937500 -2.42315815000000 -1.36105642500000 
 S -1.18184620937500 -3.43505715000000 -0.253417425000001 
