16

 C -2.51193262812500 -6.79883240625000 -2.22430808125000 
 C -1.19022362812500 -7.14139840625000 -1.73188108125000 
 C -2.65366562812500 -2.78550040625000 -2.40986608125000 
 C -1.40752562812500 -3.29257140625000 -1.80631508125000 
 N -0.241830628125001 -7.31532340625000 -2.64225208125000 
 N -2.49143062812500 -6.71270140625000 -3.54843008125000 
 N -2.75008262812500 -7.12373940625000 0.360713918750000 
 N -0.443263628125001 -3.47232640625000 -2.67872108125000 
 N -2.47987562812500 -2.46968740625000 -3.70755608125000 
 N -3.09640262812500 -3.17055040625000 0.133375918750000 
 S -0.968259628125001 -7.10143440625000 -4.11015908125000 
 S -3.75023362812500 -6.70510340625000 -0.990090081250000 
 S -1.13810862812500 -7.30841240625000 -5.608081249999897E-003
 S -0.984528628125001 -2.93335640625000 -4.19255308125000 
 S -3.88154962812500 -2.58148340625000 -1.22145408125000 
 S -1.47354362812500 -3.43416740625000 -0.105280081250000 
