16

 C -2.14476583437500 -6.46385006874999 -2.38167601562500 
 C -0.863647834375004 -6.69787006875000 -1.77289201562500 
 C -2.57850483437500 -2.70155606875000 -2.41540901562500 
 C -1.33098583437500 -3.10843606874999 -1.74113401562500 
 N 0.127752165624996 -6.76552106874999 -2.66304301562500 
 N -2.15239583437500 -6.27270506874999 -3.71251901562500 
 N -2.64764983437500 -6.74599306874999 0.174439984375001 
 N -0.236127834375004 -3.22195006874999 -2.51273401562500 
 N -2.42458283437500 -2.66412606874999 -3.72923501562500 
 N -3.18700483437500 -2.89657106874999 4.922998437500126E-002
 S -0.535973834375004 -6.48333506874999 -4.17311801562500 
 S -3.51726783437500 -6.36811806874999 -1.22013601562500 
 S -1.03887783437500 -7.10299706874999 -9.497601562499858E-002
 S -0.812161834375003 -3.05947406874999 -4.07734301562500 
 S -3.92510083437500 -2.50835106874999 -1.37249001562500 
 S -1.61010383437500 -3.40025106874999 -4.795501562499860E-002
