16

 C -2.53531885312500 -6.49178074062500 -2.37395228437500 
 C -1.30428285312500 -6.91325874062500 -1.72850928437500 
 C -2.18872985312500 -2.96252974062500 -2.31384228437500 
 C -1.00757485312500 -3.46062174062500 -1.72369928437500 
 N -0.270292853124996 -7.01730574062500 -2.56934928437500 
 N -2.48329885312500 -6.35488574062500 -3.72674828437500 
 N -2.94968685312500 -6.62395274062500 0.242326715625000 
 N 6.781614687500337E-002 -3.56068974062500 -2.51299928437500 
 N -2.10979885312500 -2.69842074062500 -3.63154328437500 
 N -2.85122385312500 -3.39069074062500 0.165832715625000 
 S -0.885998853124996 -6.77839174062500 -4.12832528437500 
 S -3.81602185312500 -6.30632374062500 -1.12288028437500 
 S -1.37723485312500 -6.99735074062500 9.014715625000003E-003
 S -0.520824853124997 -3.01517074062500 -3.97195728437500 
 S -3.58606885312500 -2.85918874062500 -1.21802828437500 
 S -1.22221585312500 -3.88269374062500 -8.083284375000055E-003
