16

 C -2.25435190312499 -6.70952745312500 -2.22116330625000 
 C -1.03795990312499 -7.11710845312500 -1.57905930625000 
 C -2.47830190312499 -2.61347645312500 -2.45828230625000 
 C -1.19000690312499 -2.89192845312500 -1.87043430625000 
 N 1.545109687500901E-002 -7.00292745312500 -2.40140130625000 
 N -2.19234090312499 -6.32555945312500 -3.50921130625000 
 N -2.83016290312499 -6.84383345312500 0.297169693750000 
 N -0.204719903124992 -3.06707245312500 -2.71107730625000 
 N -2.42645490312499 -2.64045745312500 -3.76687930625000 
 N -2.93233790312499 -2.89148645312500 5.203469375000003E-002
 S -0.573264903124991 -6.48655345312500 -3.89294530625000 
 S -3.62168790312499 -6.56537645312500 -1.13749530625000 
 S -1.23746990312499 -7.33068345312500 0.127565693750000 
 S -0.790186903124991 -2.85199745312500 -4.22564330625000 
 S -3.73225790312499 -2.44826945312500 -1.31514230625000 
 S -1.32397390312499 -3.17311445312500 -0.181173306250000 
