16

 C -2.26048114687500 -6.22115280625000 -2.08858896250000 
 C -1.01349014687500 -6.72280080625000 -1.59987896250000 
 C -2.41549614687500 -2.74343180625000 -2.43753196250000 
 C -1.25094214687500 -3.11263280625000 -1.70956296250000 
 N -8.696914687500001E-002 -6.82019580625000 -2.56354096250000 
 N -2.31646114687500 -6.02496980625000 -3.43243596250000 
 N -2.70295314687500 -6.67829880625000 0.453347037500002 
 N -0.205157146875000 -3.40138280625000 -2.47960496250000 
 N -2.29587714687500 -2.74678180625000 -3.76319496250000 
 N -3.03053714687500 -2.72359380625000 4.911103750000168E-002
 S -0.784802146875000 -6.36420480625000 -4.01168996250000 
 S -3.51528214687500 -6.13402280625000 -0.838508962499998 
 S -1.15616914687500 -7.22700080625000 0.107190037500002 
 S -0.630446146874999 -3.07639380625000 -4.02248396250000 
 S -3.75489214687500 -2.32372680625000 -1.38088696250000 
 S -1.54224514687500 -3.42346680625000 -1.175896249999830E-002
