16

 C -2.62764689999999 -6.32708795000001 -2.24118390312500 
 C -1.40168489999999 -6.90841195000001 -1.74708090312500 
 C -2.37266090000000 -2.62693795000001 -2.46568890312500 
 C -1.20069690000000 -3.21559995000001 -1.86459390312500 
 N -0.460455899999995 -7.17776595000001 -2.64671590312500 
 N -2.56691490000000 -6.05757195000001 -3.51779290312500 
 N -3.08292690000000 -6.72611995000001 0.240964096875000 
 N -0.172103899999995 -3.39644395000001 -2.70448290312500 
 N -2.19421190000000 -2.31140095000001 -3.71960090312500 
 N -2.92926990000000 -3.01227695000001 3.561096874999947E-003
 S -1.06637490000000 -6.49348695000001 -4.08972590312500 
 S -3.90470490000000 -6.11369295000001 -1.11106590312500 
 S -1.54001990000000 -7.25356695000001 -2.668290312500021E-002
 S -0.653458899999995 -2.80607395000001 -4.17098790312500 
 S -3.68268590000000 -2.43294695000001 -1.34026490312500 
 S -1.30122590000000 -3.37639095000001 -0.149023903125000 
