16

 C -2.35839169375001 -6.53915962812500 -2.39554150937500 
 C -1.19389569375001 -7.14015062812500 -1.78484650937500 
 C -2.68261969375001 -2.76910462812500 -2.60391150937500 
 C -1.53990569375001 -3.34105762812500 -1.87654850937500 
 N -0.264997693750009 -7.37989862812500 -2.68218150937500 
 N -2.31703669375001 -6.31249362812500 -3.70368750937500 
 N -2.90943169375001 -6.98042162812500 0.150828490625000 
 N -0.428472693750009 -3.53559462812500 -2.59403150937500 
 N -2.40211069375001 -2.62246562812500 -3.89304750937500 
 N -3.42657769375001 -2.82162962812500 -7.210750937499966E-002
 S -0.790945693750009 -6.86146462812500 -4.17312050937500 
 S -3.67903669375001 -6.44343762812500 -1.20393450937500 
 S -1.37055669375001 -7.68605762812500 -0.181429509375000 
 S -0.882705693750009 -3.15752262812500 -4.19213550937500 
 S -4.13246969375001 -2.56326462812500 -1.58404350937500 
 S -1.85705069375001 -3.41855062812500 -8.226750937499960E-002
