16

 C -2.48049134375001 -6.34525262187500 -2.35589507812500 
 C -1.22825434375001 -6.74710062187500 -1.71479507812500 
 C -2.50940634375001 -2.78619662187500 -2.91465107812500 
 C -1.23516134375001 -2.86827762187500 -2.25138307812500 
 N -0.133529343750006 -6.69971462187500 -2.51634307812500 
 N -2.36361634375001 -6.10047162187500 -3.67017007812500 
 N -2.96404234375001 -6.73237862187500 0.262392921875001 
 N -0.153329343750007 -2.73835062187500 -3.01652507812500 
 N -2.44642634375001 -2.51313762187500 -4.21510307812500 
 N -2.96145234375001 -3.13645162187500 -0.341987078124999 
 S -0.725425343750007 -6.25528162187500 -3.98344207812500 
 S -3.75150634375001 -6.16450662187500 -1.11357307812500 
 S -1.32219234375001 -7.12592262187500 1.762192187500089E-002
 S -0.780927343750006 -2.64259462187500 -4.57989907812500 
 S -3.75195934375001 -2.83626862187500 -1.75156107812500 
 S -1.29985434375001 -3.03579262187500 -0.530833078124999 
