16

 C -2.32179255312500 -6.72378586875000 -2.60418921250000 
 C -1.07903055312500 -7.09853186875000 -1.96909321250000 
 C -2.56040555312500 -2.71785586875000 -2.53018621250000 
 C -1.28416955312500 -3.17665186875000 -1.95861721250000 
 N -8.900955312500081E-002 -7.53531986875000 -2.78806721250000 
 N -2.24951755312500 -6.94623586875000 -3.89778621250000 
 N -2.74450555312500 -6.51141786875000 -3.292121250000135E-002
 N -0.330285553125001 -3.38972786875000 -2.85774321250000 
 N -2.53040855312500 -2.52414086875000 -3.87350421250000 
 N -2.94274655312500 -2.73769686875000 -1.738212500001390E-003
 S -0.655841553125001 -7.38528286875000 -4.37906521250000 
 S -3.55091055312500 -6.22255186875000 -1.44269621250000 
 S -1.11887855312500 -6.95037386875000 -0.185846212500001 
 S -1.03665455312500 -2.91438686875000 -4.33332421250000 
 S -3.70408255312500 -2.21319786875000 -1.32969121250000 
 S -1.43925855312500 -3.39881086875000 -0.259142212500001 
