16

 C -2.39484759687500 -6.36985203437499 -2.57417080937500 
 C -1.28488159687500 -6.78901103437499 -1.78460680937500 
 C -2.34499859687500 -2.61160003437499 -2.41864980937500 
 C -1.22820059687500 -3.24197603437499 -1.82136280937500 
 N -0.192082596875003 -6.93445703437499 -2.51291680937500 
 N -2.18790259687500 -6.21558503437499 -3.90558780937500 
 N -3.26654059687500 -6.68360003437499 -0.159836809374998 
 N -0.257233596875003 -3.68774103437499 -2.62401880937500 
 N -2.12035959687500 -2.36409003437499 -3.70023480937500 
 N -2.97898859687500 -2.84445403437499 5.508119062500150E-002
 S -0.644643596875003 -6.69319803437499 -4.04599980937500 
 S -3.87017859687500 -6.13817603437499 -1.60628380937500 
 S -1.58314559687500 -6.89321503437499 -0.108166809374999 
 S -0.680701596875003 -3.05001403437499 -4.12847680937500 
 S -3.68440959687500 -2.26951303437499 -1.36847280937500 
 S -1.42782359687500 -3.35375903437499 -5.403280937499866E-002
