16

 C -2.27338135312499 -6.66518544062500 -2.41763507187500 
 C -1.16338035312499 -7.12839244062500 -1.64413807187500 
 C -2.57825935312499 -2.61574544062500 -2.32362007187500 
 C -1.56503635312499 -3.48144444062500 -1.80938907187500 
 N -0.153313353124994 -7.42567144062500 -2.43451607187500 
 N -2.09137935312499 -6.56914744062500 -3.72846007187500 
 N -3.02280635312499 -7.07372144062500 8.630292812499851E-002
 N -0.643552353124994 -3.87082244062500 -2.66667407187500 
 N -2.35083035312499 -2.34976044062500 -3.58763207187500 
 N -2.99220835312499 -2.78003144062500 0.183143928124998 
 S -0.563622353124994 -7.13023244062500 -4.03988007187500 
 S -3.70789035312499 -6.50402244062500 -1.35631707187500 
 S -1.44041035312499 -7.48114144062500 9.915928124998530E-003
 S -1.03370735312499 -3.21992644062500 -4.09254107187500 
 S -3.70801835312499 -1.99808044062500 -1.10251207187500 
 S -1.70513635312499 -3.83285044062500 -5.409707187500135E-002
