16

 C -2.39640669687500 -6.54422999375000 -2.33607092812500 
 C -1.19852869687500 -7.17813299375000 -1.83509092812500 
 C -2.63237169687500 -2.82604699375000 -2.55347092812500 
 C -1.46188369687501 -3.21446799375000 -1.79958692812500 
 N -0.243783696875004 -7.46388799375000 -2.68401392812500 
 N -2.28723969687500 -6.38560999375001 -3.68057292812500 
 N -2.81946869687500 -7.04847599375000 0.103004071875001 
 N -0.441072696875005 -3.53828699375001 -2.62426092812500 
 N -2.48898769687500 -2.70925999375001 -3.86214292812500 
 N -3.39886469687500 -2.69104899375001 -0.133853928124999 
 S -0.823197696875004 -6.93150399375001 -4.11236592812500 
 S -3.67700469687500 -6.39223099375000 -1.23909292812500 
 S -1.26411369687500 -7.75374599375001 -0.137370928124999 
 S -0.843317696875005 -3.10999299375001 -4.17241092812500 
 S -4.09947169687501 -2.55978399375000 -1.61379592812500 
 S -1.86570269687500 -3.36105199375000 -0.127137928124999 
