16

 C -2.35202941250000 -6.28278928125000 -2.66693751250000 
 C -1.22094141250000 -6.82558528125000 -1.95522351250000 
 C -2.52271441250000 -2.83324028125000 -2.58813851250000 
 C -1.27942441250000 -3.02778328125000 -1.88212651250000 
 N -0.148267412499996 -6.90509928125000 -2.76794051250000 
 N -2.15942041250000 -6.00941828125000 -3.96514051250000 
 N -3.09960941250000 -6.42535828125000 -0.227843512500001 
 N -0.196134412499996 -3.12812328125000 -2.64781551250000 
 N -2.32694541250000 -2.73298428125000 -3.89471251250000 
 N -3.08135441250000 -2.91356628125000 -8.938451250000101E-002
 S -0.585513412499996 -6.34912028125000 -4.23939551250000 
 S -3.76982541250000 -5.89686228125000 -1.69174851250000 
 S -1.47776041250000 -6.83126428125000 -0.254654512500001 
 S -0.676588412499996 -2.87625628125000 -4.20224551250000 
 S -3.85203141250000 -2.66186028125000 -1.50694951250000 
 S -1.48187841250000 -3.21040228125000 -0.162178512500001 
