16

 C -2.50368572812499 -6.53811504062499 -2.42946782812500 
 C -1.24460872812499 -6.98513504062499 -1.96203382812500 
 C -2.56879872812499 -2.53869104062499 -2.45514882812500 
 C -1.52589272812499 -3.25794704062499 -1.68529382812500 
 N -0.217162728124995 -7.06524104062499 -2.82561382812500 
 N -2.48344472812499 -6.23347804062499 -3.72877982812500 
 N -2.75955772812500 -6.96920104062499 0.132092171875001 
 N -0.570867728124995 -3.74927004062499 -2.47155182812500 
 N -2.39154572812499 -2.56897304062499 -3.76477082812500 
 N -3.40133472812499 -2.63389204062499 -3.382812499919119E-005
 S -0.911179728124995 -6.60255404062499 -4.27337582812500 
 S -3.67294372812500 -6.48181004062499 -1.12079582812500 
 S -1.26443672812499 -7.45831204062499 -0.319536828124999 
 S -0.948222728124994 -3.36958104062499 -4.02694082812500 
 S -3.88735672812499 -2.03314504062499 -1.44908382812500 
 S -1.86557272812499 -3.20837504062499 1.528217187500092E-002
