16

 C -2.24280491562499 -6.46369465312500 -2.42293684062500 
 C -0.965593915624994 -6.78242965312500 -1.82077984062500 
 C -2.56425791562499 -2.89157465312500 -2.54849784062500 
 C -1.42552391562499 -3.38158065312500 -1.74642084062500 
 N 7.354108437500617E-002 -6.88790465312500 -2.65484384062500 
 N -2.15678191562499 -6.15795865312500 -3.72310184062500 
 N -2.67443891562499 -6.70862865312500 9.758915937500290E-002
 N -0.378932915624994 -3.53880565312500 -2.53906884062500 
 N -2.39020391562499 -2.80851665312500 -3.86210384062500 
 N -3.26603791562499 -2.84012965312500 -8.147684062499705E-002
 S -0.545948915624994 -6.49780865312500 -4.14863084062500 
 S -3.53100091562499 -6.38378265312500 -1.30327884062500 
 S -1.00493191562499 -7.02228865312500 -6.203484062499731E-002
 S -0.721001915624994 -3.07057865312500 -4.10761184062500 
 S -3.90475991562499 -2.45269465312500 -1.53660784062500 
 S -1.68270991562499 -3.33782165312500 -4.095784062499730E-002
