16

 C -2.44926859062500 -6.24681434687500 -2.69481120625000 
 C -1.23296859062500 -6.66526134687500 -2.02534920625000 
 C -2.46706059062500 -2.79983134687500 -2.60631920625000 
 C -1.24013259062500 -3.07331834687500 -1.87974120625000 
 N -0.151825590625001 -6.90096434687500 -2.78803120625000 
 N -2.24702059062500 -6.01681634687500 -3.97749220625000 
 N -3.15582359062500 -6.46817234687500 -0.184283206249999 
 N -0.150082590625001 -3.09472434687500 -2.65255620625000 
 N -2.36490459062500 -2.64708434687500 -3.94865920625000 
 N -3.12361159062500 -2.83952534687500 -5.281320624999952E-002
 S -0.632360590625001 -6.36392934687500 -4.31392520625000 
 S -3.81819059062500 -6.01070334687500 -1.63614220625000 
 S -1.53912059062500 -6.86870034687500 -0.302189206249999 
 S -0.730644590625001 -2.90496134687500 -4.19291720625000 
 S -3.85525259062500 -2.68202334687500 -1.51629120625000 
 S -1.45431259062500 -3.19839734687500 -0.120359206249999 
