16

 C -2.30085910000000 -6.33995595937499 -2.39877889062500 
 C -1.13529110000000 -6.76442995937499 -1.71477089062500 
 C -2.62348710000000 -2.66500795937499 -2.63448689062500 
 C -1.38409910000000 -3.01614795937499 -1.93486589062500 
 N -0.131332099999998 -7.09383295937499 -2.55562989062500 
 N -2.18190610000000 -6.19747095937499 -3.74302989062500 
 N -2.71275010000000 -6.25317995937499 0.177004109374999 
 N -0.338941099999998 -3.18574395937499 -2.72650589062500 
 N -2.52973610000000 -2.69640495937499 -3.97184289062500 
 N -3.21821110000000 -2.78419395937499 -6.131989062500143E-002
 S -0.648516099999997 -6.75533595937499 -4.10955889062500 
 S -3.63727210000000 -6.02060395937499 -1.18918689062500 
 S -1.25401010000000 -7.03062095937499 -3.037689062500148E-002
 S -0.930465099999997 -3.05298095937499 -4.30092789062500 
 S -3.90954510000000 -2.28746595937499 -1.49522189062500 
 S -1.58059110000000 -3.20677495937499 -0.185154890625002 
