16

 C -2.20935223125000 -6.64538915312500 -2.20735884687500 
 C -0.930983231250002 -7.12146015312500 -1.71585984687500 
 C -2.45348723125000 -2.72961515312500 -2.32064984687500 
 C -1.30182923125000 -3.26595115312500 -1.76097684687500 
 N 4.334576874999829E-002 -7.15671015312500 -2.62281084687500 
 N -2.25135623125000 -6.39533915312500 -3.49965784687500 
 N -2.58668923125000 -6.99828615312500 0.336388153124999 
 N -0.280201231250002 -3.54652315312500 -2.58220084687500 
 N -2.36860123125000 -2.39037515312500 -3.62373984687500 
 N -2.99912423125000 -3.17260815312500 0.215956153124999 
 S -0.702407231250002 -6.63017315312500 -4.03312584687500 
 S -3.42866623125000 -6.43103015312500 -0.990995846875001 
 S -0.999360231250003 -7.22992315312500 4.737615312499921E-002
 S -0.903838231250002 -2.99640515312500 -4.06032284687500 
 S -3.74529823125000 -2.47661815312500 -1.11396384687500 
 S -1.39687123125000 -3.52995115312500 -4.729284687500090E-002
