16

 C -2.39853205000000 -6.28700531562500 -2.36246979375000 
 C -1.27388805000000 -6.85095131562500 -1.66108379375000 
 C -2.41182905000000 -2.32113131562500 -2.47991379375000 
 C -1.24336005000000 -2.88047631562500 -1.84443979375000 
 N -0.199105049999998 -7.14466331562500 -2.41851479375000 
 N -2.20398805000000 -6.11827631562500 -3.68551879375000 
 N -3.14241405000000 -6.58621831562500 9.354620624999854E-002
 N -0.237045049999998 -3.20324531562500 -2.65714779375000 
 N -2.22545005000000 -2.13724831562500 -3.74958179375000 
 N -2.97249705000000 -2.37449631562500 -4.437793750001529E-003
 S -0.633814049999999 -6.57653831562500 -3.94962179375000 
 S -3.77905705000000 -5.95078331562500 -1.26183879375000 
 S -1.59836405000000 -7.22724631562500 -2.357179375000129E-002
 S -0.772644049999998 -2.73467431562500 -4.23440679375000 
 S -3.70293705000000 -1.87497131562500 -1.42823579375000 
 S -1.43595505000000 -2.98374831562500 -9.395979375000119E-002
