16

 C -2.07647820625000 -6.44869061875000 -2.35545463437500 
 C -0.918717206249998 -7.01388661875000 -1.70471763437500 
 C -2.71072820625000 -2.53635161875000 -2.49304763437500 
 C -1.41457120625000 -2.96898261875000 -1.81327563437500 
 N 4.306979375000264E-002 -7.27796561875000 -2.60434963437500 
 N -2.03258320625000 -6.37182261875000 -3.69638263437500 
 N -2.68193720625000 -6.73784361875000 0.126225365624999 
 N -0.400580206249997 -3.15748161875000 -2.64144963437500 
 N -2.50435420625000 -2.30494161875000 -3.77987963437500 
 N -3.12589720625000 -2.68749561875000 7.695936562499917E-002
 S -0.526449206249997 -6.88156461875000 -4.09986863437500 
 S -3.40872820625000 -6.25907261875000 -1.28436063437500 
 S -1.06764120625000 -7.18472861875000 2.954365624999289E-003
 S -0.998933206249998 -2.80581061875000 -4.15086563437500 
 S -3.95360620625000 -2.23231561875000 -1.31357463437500 
 S -1.48301920625000 -3.04745061875000 -5.192463437500083E-002
