16

 C -2.21344732187500 -6.13952350937500 -2.19222202812500 
 C -1.06091332187500 -6.74208950937500 -1.65088402812500 
 C -2.71051632187500 -2.34523650937500 -2.68273702812500 
 C -1.47335032187500 -2.77899150937500 -2.07467802812500 
 N -0.167045321874999 -6.99349650937500 -2.60092002812500 
 N -2.20868732187500 -5.91585350937500 -3.49435602812500 
 N -2.66344632187500 -6.38058150937499 0.308339971875001 
 N -0.497527321874999 -3.00272850937499 -2.93552402812500 
 N -2.64797232187500 -2.35027850937499 -3.98940302812500 
 N -3.20844832187500 -2.48856050937500 -0.137041028125000 
 S -0.739827321875000 -6.44271450937500 -4.05485902812500 
 S -3.44123632187500 -5.72796350937499 -1.07597402812500 
 S -1.13233332187500 -6.96609550937499 6.770797187500066E-002
 S -1.07309232187500 -2.77503450937500 -4.42815702812500 
 S -4.05937532187500 -2.08696550937499 -1.56963902812500 
 S -1.60298932187500 -2.82839950937499 -0.290966028124999 
