16

 C -2.45633868750001 -6.57316439062500 -2.25896676250000 
 C -1.19844668750001 -6.83108939062500 -1.63038276250000 
 C -2.36980968750001 -2.71487239062500 -2.49173476250000 
 C -1.21667468750001 -3.33183539062500 -1.92244176250000 
 N -0.147264687500005 -6.98915139062500 -2.43712476250000 
 N -2.32104068750001 -6.47264539062500 -3.57651176250000 
 N -2.98557368750001 -6.74433139062500 0.273297237500001 
 N -0.248020687500006 -3.53949339062500 -2.80630076250000 
 N -2.31459268750001 -2.55336539062500 -3.82483376250000 
 N -2.92582968750001 -2.99404139062500 -4.215576249999886E-002
 S -0.729891687500006 -6.71512739062500 -3.97955576250000 
 S -3.83429968750001 -6.70369439062500 -1.14477776250000 
 S -1.23412968750001 -6.96150839062500 0.124824237500001 
 S -0.742194687500006 -3.09751239062500 -4.32650576250000 
 S -3.70509368750001 -2.40360739062500 -1.36289976250000 
 S -1.31343768750001 -3.39186139062500 -0.165675762499999 
