16

 C -2.29013214062500 -6.39490660625000 -2.42679727187500 
 C -1.08383814062500 -6.82200060625000 -1.75289127187500 
 C -2.55862014062500 -2.60177760625000 -2.24614527187500 
 C -1.33858214062500 -3.11114360625000 -1.70180427187500 
 N -0.116441140625001 -7.02193060625000 -2.62310527187500 
 N -2.15938414062500 -6.08414860625000 -3.72392427187500 
 N -2.82404814062500 -6.55723160625000 0.112790728125001 
 N -0.294667140625002 -3.24273160625000 -2.55160127187500 
 N -2.52571814062500 -2.36960760625000 -3.57610727187500 
 N -2.94684714062500 -2.91513660625000 0.315144728125001 
 S -0.634778140625002 -6.56853360625000 -4.10268027187500 
 S -3.61929914062500 -6.30022060625000 -1.33568027187500 
 S -1.22590514062500 -7.00175060625000 -4.955727187499859E-002
 S -0.947495140625001 -2.69562960625000 -3.96223727187500 
 S -3.83449214062500 -2.53630560625000 -1.04868627187500 
 S -1.35350414062500 -3.26717960625000 8.452872812500134E-002
