16

 C -2.21257851874999 -6.54291662812500 -2.25270739687500 
 C -1.01919051874999 -7.16852162812500 -1.70659639687500 
 C -2.25042151874999 -2.60203962812500 -2.43300839687500 
 C -1.09568051874999 -3.20244762812500 -1.77862039687500 
 N -9.462351874999264E-002 -7.34103862812500 -2.66377039687500 
 N -2.24459951874999 -6.28172962812500 -3.54651539687500 
 N -2.60187751874999 -6.52651262812500 0.250186603125000 
 N -1.421951874999294E-002 -3.32236062812500 -2.55963439687500 
 N -2.08097451874999 -2.42513662812500 -3.72658839687500 
 N -2.94565051874999 -2.92165762812500 -1.379396874999772E-003
 S -0.736662518749993 -6.78230662812500 -4.11697839687500 
 S -3.41277951874999 -6.02610962812500 -1.12039939687500 
 S -1.10165951874999 -7.41486062812500 6.385603125000250E-003
 S -0.551188518749993 -2.80233362812500 -4.07957839687500 
 S -3.63854351874999 -2.39659662812500 -1.40667339687500 
 S -1.35716351874999 -3.56694162812500 -0.110477396875000 
