16

 C -2.68147372187501 -6.26493911874999 -2.28149126562500 
 C -1.47079172187501 -6.74677511874999 -1.67913426562500 
 C -2.35257872187501 -2.67646011874999 -2.43704826562500 
 C -1.19159872187501 -3.01994511874999 -1.73933526562500 
 N -0.489611721875006 -6.95179111874999 -2.54315626562500 
 N -2.59239372187501 -6.17926211874999 -3.58964826562500 
 N -3.11739172187501 -6.40106211874999 0.199328734375000 
 N -0.170515721875006 -3.26549611874999 -2.54574226562500 
 N -2.24715272187501 -2.61029011874999 -3.73175426562500 
 N -3.04142072187501 -2.79673611874999 -8.659265624999968E-003
 S -1.06550672187501 -6.64874211874999 -4.04544426562500 
 S -3.93389472187501 -5.87842211874999 -1.21640326562500 
 S -1.56397072187501 -6.92999111874999 6.028773437500012E-002
 S -0.688266721875006 -3.01745011874999 -4.08319126562500 
 S -3.73741772187501 -2.31760411874999 -1.46037426562500 
 S -1.39226872187501 -3.12884211874999 -2.165226562500000E-002
