16

 C -2.44987215625000 -6.58083655937500 -2.44824558750000 
 C -1.19832615625000 -6.82395555937500 -1.70283758750000 
 C -2.21660315625000 -2.92412855937500 -2.19055658750000 
 C -0.923485156249999 -3.33654555937500 -1.63324058750000 
 N -0.133773156249999 -6.80513955937500 -2.50724258750000 
 N -2.27210915625000 -6.31720655937500 -3.74260358750000 
 N -3.04875415625000 -6.65701655937500 0.135056412500000 
 N 7.259484375000014E-002 -3.37700255937500 -2.50161158750000 
 N -2.22667215625000 -2.72122555937500 -3.50217758750000 
 N -2.65972415625000 -3.23786355937500 0.328894412500000 
 S -0.618544156249999 -6.50160055937500 -4.08057958750000 
 S -3.80597715625000 -6.41796655937500 -1.35749058750000 
 S -1.39095815625000 -6.86854455937500 5.519341250000021E-002
 S -0.688709156249999 -3.03907355937500 -4.02315158750000 
 S -3.50838615625000 -2.87857355937500 -1.07126958750000 
 S -0.991512156249999 -3.57260355937500 0.144787412500000 
