16

 C -2.51368181875000 -6.66398366875000 -2.31160835937500 
 C -1.32223881875000 -7.11398566875000 -1.69723635937500 
 C -2.44835381875000 -2.97534866875000 -2.35041335937500 
 C -1.19400481875000 -3.44474466875000 -1.85000735937500 
 N -0.374196818749996 -7.29709466875000 -2.60285335937500 
 N -2.46147681875000 -6.45834466875000 -3.60016635937500 
 N -3.11638581875000 -6.78316166875000 0.144310640625001 
 N -0.277155818749996 -3.70800766875000 -2.82097135937500 
 N -2.45055981875000 -2.71780466875000 -3.64453035937500 
 N -2.78402781875000 -3.33039966875000 0.133060640625001 
 S -0.962825818749996 -7.00804766875000 -4.11403635937500 
 S -3.92010581875000 -6.59452066875000 -1.26590535937500 
 S -1.51447681875000 -7.28696366875000 2.125964062500119E-002
 S -0.933869818749996 -3.17971066875000 -4.18085935937500 
 S -3.65214581875000 -2.73907966875000 -1.14658435937500 
 S -1.23379881875000 -3.74837466875000 -0.148603359374999 
