16

 C -2.22550928750000 -6.50130314375000 -2.28101503750000 
 C -1.07301228750000 -7.07029714375000 -1.73867303750000 
 C -2.29971928750000 -2.62118014375000 -2.46611303750000 
 C -1.11680328750000 -3.16453314375000 -1.84950303750000 
 N -0.106499287500004 -7.31774814375000 -2.63488203750000 
 N -2.21314028750000 -6.31450714375000 -3.59816903750000 
 N -2.57194228750000 -6.63386014375000 0.287095962499998 
 N -5.601528750000373E-002 -3.27966014375000 -2.65884103750000 
 N -2.15022928750000 -2.28672314375000 -3.75097003750000 
 N -2.89426728750000 -3.04152814375000 8.848696249999843E-002
 S -0.752912287500004 -6.83227414375000 -4.08516403750000 
 S -3.34989428750000 -6.05589814375000 -1.04406503750000 
 S -1.16880828750000 -7.35105714375000 2.658996249999857E-002
 S -0.566920287500004 -2.81204414375000 -4.14670203750000 
 S -3.57673828750000 -2.41976114375000 -1.33009003750000 
 S -1.37670428750000 -3.58396914375000 -0.176363037500001 
