16

 C -2.49342519687500 -6.30833934375000 -2.57482910312500 
 C -1.34826719687500 -6.85220734375000 -1.80180010312500 
 C -2.41997819687500 -2.49949134375000 -2.42839210312500 
 C -1.23085019687500 -3.03113834375000 -1.72618710312500 
 N -0.297390196875003 -7.13126234375000 -2.56233610312500 
 N -2.32115219687500 -6.23473934375000 -3.88366710312500 
 N -3.23538119687500 -6.56833734375000 -0.119591103125000 
 N -0.182668196875003 -3.22578034375000 -2.54849910312500 
 N -2.29413819687500 -2.38191334375000 -3.73546210312500 
 N -3.07762419687500 -2.53793534375000 1.729489687499974E-002
 S -0.736920196875003 -6.71374834375000 -4.13043910312500 
 S -3.86915419687500 -6.00105534375000 -1.54962010312500 
 S -1.61713919687500 -6.96502234375000 -9.528810312500013E-002
 S -0.743948196875003 -2.81353834375000 -4.05205510312500 
 S -3.80024719687500 -2.17657234375000 -1.42664610312500 
 S -1.47029519687500 -3.01817234375000 -5.564103125000219E-003
