16

 C -2.64405730937499 -6.48146340937500 -2.45178837812500 
 C -1.53100630937499 -7.02550440937500 -1.70297137812501 
 C -2.33173530937499 -2.75174140937500 -2.50404337812500 
 C -1.12847130937499 -3.20875240937500 -1.78451337812500 
 N -0.463182309374995 -7.33636940937500 -2.43082737812500 
 N -2.36661430937499 -6.33422440937500 -3.75137537812500 
 N -3.21479830937499 -6.40107240937500 8.638962187499488E-002
 N -7.837330937499409E-002 -3.39455840937500 -2.54874337812501 
 N -2.14846830937499 -2.56751140937500 -3.78409337812500 
 N -2.97320030937499 -2.92811140937500 -6.176637812500485E-002
 S -0.859816309374994 -6.93063340937500 -3.98418137812500 
 S -3.95597530937499 -5.98998340937500 -1.41859637812500 
 S -1.68988330937499 -7.01603940937500 4.329062187499488E-002
 S -0.616949309374995 -2.99898640937500 -4.17007537812500 
 S -3.75614630937499 -2.56216640937500 -1.52395637812500 
 S -1.32883230937499 -3.33703040937500 -7.618237812500506E-002
