16

 C -2.45590953437500 -6.57119315624999 -2.26089543125000 
 C -1.20188553437500 -6.82543715624999 -1.63596143125000 
 C -2.37150053437500 -2.72088815624999 -2.49996543125000 
 C -1.21197553437500 -3.33230515624999 -1.92361043125000 
 N -0.144753534374995 -6.98305315624999 -2.43434343125000 
 N -2.31896753437500 -6.47295515624999 -3.57559743125000 
 N -2.98506953437500 -6.74682315624999 0.270851568749999 
 N -0.241594534374996 -3.53858015624999 -2.80547943125000 
 N -2.31521553437500 -2.55151015624999 -3.83110343125000 
 N -2.91591953437500 -2.99415415624999 -4.537943125000066E-002
 S -0.730947534374995 -6.71477415624999 -3.97204743125000 
 S -3.83603253437500 -6.70752115624999 -1.14443543125000 
 S -1.23440253437500 -6.96472715624999 0.124097568749999 
 S -0.742211534374996 -3.09891415624999 -4.32361843125000 
 S -3.70291553437500 -2.40330515624999 -1.36296943125000 
 S -1.30723753437500 -3.39203315624999 -0.166809431250001 
