16

 C -2.61048291875000 -6.65504176250000 -2.31208757500000 
 C -1.32198591875000 -6.83707076250000 -1.67030357500000 
 C -2.45326591875000 -3.08202176250000 -2.47825157500000 
 C -1.10853191875000 -3.33378676250000 -1.94297257500000 
 N -0.344717918750001 -6.77277876250000 -2.56313157500000 
 N -2.64108391875000 -6.50123976250000 -3.66347957500000 
 N -3.19525491875000 -6.84337276250000 0.245836425000000 
 N -8.265391875000017E-002 -3.33524876250000 -2.79024457500000 
 N -2.35884691875000 -3.03277776250000 -3.80150057500000 
 N -2.72358491875000 -3.06612276250000 4.854442499999956E-002
 S -1.01500891875000 -6.67272676250000 -4.10934257500000 
 S -3.99373591875000 -6.72866876250000 -1.18607657500000 
 S -1.53610191875000 -7.16367376250000 5.517542499999961E-002
 S -0.806037918750000 -3.30493876250000 -4.29484657500000 
 S -3.69085191875000 -2.90008576250000 -1.25015457500000 
 S -1.06475891875000 -3.33535376250000 -0.195864575000000 
