16

 C -2.43216681562500 -6.33166215624999 -2.54593466562500 
 C -1.23951781562500 -6.74088915624999 -1.80605266562500 
 C -2.75220981562500 -2.92825215624999 -2.51030266562500 
 C -1.56526881562500 -3.47832915624999 -1.88886666562500 
 N -0.236946815624998 -6.94955715624999 -2.60243666562500 
 N -2.29992981562500 -6.31219115624999 -3.87340566562500 
 N -3.13104981562500 -6.61605915624999 -0.160802665625000 
 N -0.548178815624998 -3.74100015624999 -2.70800266562500 
 N -2.55159281562500 -2.65163815624999 -3.78090266562500 
 N -3.32196381562500 -3.30612915624999 -1.701866562499998E-002
 S -0.725820815624998 -6.69381115624999 -4.15550566562500 
 S -3.85459481562500 -6.23884315625000 -1.60566866562500 
 S -1.52416581562500 -7.10381415624999 -0.146342665625000 
 S -0.996248815624998 -3.09050615624999 -4.16549366562500 
 S -4.11306981562500 -2.60614615625000 -1.38271166562500 
 S -1.76267381562500 -3.85466615624999 -0.203639665625000 
