16

 C -2.61000256562500 -6.28313189375000 -2.45372372500000 
 C -1.45250156562500 -6.78611589375000 -1.77145372500000 
 C -2.41189156562500 -3.02756089375000 -2.35706072500000 
 C -1.20468356562500 -3.32885689375000 -1.66666572500000 
 N -0.457726565624998 -7.30103189375000 -2.51616772500000 
 N -2.43897656562500 -6.38058889375000 -3.76089972500000 
 N -3.29965456562500 -6.27400489375000 2.293527500000025E-002
 N -0.185074565624998 -3.31070889375000 -2.51712472500000 
 N -2.42310056562500 -2.92657089375000 -3.67314472500000 
 N -3.01936256562500 -3.12656289375000 0.147309275000000 
 S -0.920972565624997 -7.01357789375000 -4.09791072500000 
 S -3.90650956562500 -5.81040989375000 -1.40174072500000 
 S -1.63789656562500 -6.74370489375000 -1.368472499999962E-002
 S -0.829728565624997 -3.20828089375000 -4.08200472500000 
 S -3.77341756562500 -3.01561289375000 -1.30042972500000 
 S -1.37466656562500 -3.32891389375000 8.864627500000033E-002
