16

 C -2.47864248125000 -6.65136887500000 -2.42213380000000 
 C -1.19344348125000 -6.89401187500000 -1.76677280000000 
 C -2.11712048125000 -2.83689587500000 -2.32356480000000 
 C -0.931232481249997 -3.35803287500000 -1.62820580000000 
 N -0.146932481249997 -6.88396487500000 -2.57294780000000 
 N -2.38713748125000 -6.44518487500000 -3.76215780000000 
 N -2.93820948125000 -6.96766387500000 0.132801200000000 
 N 0.207359518750002 -3.31831687500000 -2.36364580000000 
 N -1.86413948125000 -2.61214787500000 -3.59666280000000 
 N -2.94762748125000 -3.16116787500000 7.631920000000014E-002
 S -0.729570481249997 -6.65530487500000 -4.13557780000000 
 S -3.82060748125000 -6.71864587500000 -1.26511980000000 
 S -1.30599548125000 -7.28193587500000 -9.950179999999986E-002
 S -0.312738481249997 -2.98621187500000 -3.93106980000000 
 S -3.49089848125000 -2.47016687500000 -1.36829480000000 
 S -1.38071148125000 -3.68952687500000 5.613620000000008E-002
