16

 C -2.39438814062500 -6.54454176875000 -2.28848114687500 
 C -1.13016814062500 -7.00810176875000 -1.83860514687500 
 C -2.42183114062500 -2.68639476875000 -2.49680714687500 
 C -1.27403614062500 -3.25700476875000 -1.88026514687500 
 N -0.119105140625003 -7.10147276875000 -2.71822514687500 
 N -2.33200814062500 -6.34661476875000 -3.60188314687500 
 N -2.54601014062500 -6.56660676875000 0.246932853125000 
 N -0.353248140625003 -3.64595076875000 -2.75198014687500 
 N -2.32572414062500 -2.40258676875000 -3.81859514687500 
 N -3.03465414062500 -2.92350676875000 2.502085312500002E-002
 S -0.846987140625003 -6.70029176875000 -4.13083414687500 
 S -3.49824314062500 -6.10183476875000 -1.10277914687500 
 S -0.991965140625003 -6.95627676875000 -9.111914687500011E-002
 S -0.818679140625003 -2.99547876875000 -4.25926314687500 
 S -3.76919814062500 -2.37579076875000 -1.37671414687500 
 S -1.45536214062500 -3.37268176875000 -6.892814687500004E-002
