16

 C -2.36903332500000 -6.21768474687500 -2.22210260312500 
 C -1.20131032500000 -6.77058574687500 -1.55369860312500 
 C -2.29494432500000 -2.58126374687500 -2.14134260312500 
 C -1.11003932500000 -3.09295474687500 -1.54666660312500 
 N -0.132230325000004 -6.98928974687500 -2.29325460312500 
 N -2.14678232500000 -5.98348274687500 -3.49774660312500 
 N -2.98709932500000 -6.44334974687500 0.320083396874997 
 N -0.134375325000004 -3.17040174687500 -2.43450660312500 
 N -2.23252032500000 -2.19218474687500 -3.40428360312500 
 N -2.98558032500000 -3.08419574687500 0.228601396874998 
 S -0.516182325000003 -6.38900174687500 -3.82580160312500 
 S -3.74236132500000 -6.12838074687500 -1.11245660312500 
 S -1.45042332500000 -7.15712274687500 0.144737396874997 
 S -0.623493325000004 -2.50760974687500 -3.82324160312500 
 S -3.70518632500000 -2.44854274687500 -1.15376060312500 
 S -1.37263332500000 -3.67277474687500 0.100078396874997 
