16

 C -2.51948913125000 -6.63401438125000 -2.52317463125000 
 C -1.19570613125000 -6.80940738125000 -1.89753663125000 
 C -2.31123213125000 -3.17588138125000 -2.20393563125000 
 C -1.12746713125000 -3.64198738125000 -1.55794363125000 
 N -0.129162131250004 -6.95778438125000 -2.70495863125000 
 N -2.40197113125000 -6.54612538125000 -3.82985863125000 
 N -3.00415313125000 -6.59282038125000 3.167336874999926E-002
 N -0.103308131250004 -3.91864238125000 -2.37366763125000 
 N -2.21875713125000 -2.89962138125000 -3.53380063125000 
 N -2.88478713125000 -3.51526338125000 0.321142368749999 
 S -0.804904131250003 -6.84410038125000 -4.26111363125000 
 S -3.84426113125000 -6.40232338125000 -1.39953963125000 
 S -1.37698413125000 -6.78561438125000 -0.129123631250001 
 S -0.620877131250004 -3.30309338125000 -3.82375363125000 
 S -3.72186913125000 -3.23734238125000 -1.11608663125000 
 S -1.25990013125000 -3.76460538125000 0.226028368749999 
