16

 C -2.40238270000000 -6.65992915937500 -2.39661767187500 
 C -1.18475970000000 -6.94370615937500 -1.73144967187500 
 C -2.39884670000000 -2.84172515937500 -2.42865067187500 
 C -1.23497470000000 -3.07050815937500 -1.67201367187500 
 N -0.128541700000000 -6.92474315937500 -2.51828767187500 
 N -2.32440470000000 -6.44786215937500 -3.69889067187500 
 N -2.90398170000000 -7.11139115937500 7.543832812500395E-002
 N -0.128674699999999 -3.25983115937500 -2.38672667187500 
 N -2.15367370000000 -2.76417615937500 -3.71881167187500 
 N -3.10898470000000 -2.72031915937500 2.612332812500395E-002
 S -0.651334700000000 -6.55626315937500 -4.05055767187500 
 S -3.72746170000000 -6.57872715937500 -1.24854267187500 
 S -1.26071270000000 -7.29866315937500 -5.972467187499597E-002
 S -0.541661700000000 -3.06001815937500 -3.95662167187500 
 S -3.77895270000000 -2.45993715937500 -1.51524567187500 
 S -1.50147170000000 -3.18806015937500 -1.105067187499609E-002
