16

 C -2.42371846562500 -6.46132914687500 -2.58886189687500 
 C -1.15703146562500 -6.95893114687500 -1.98051789687500 
 C -2.34665546562500 -2.58929514687500 -2.50783289687500 
 C -1.14910946562500 -3.26207214687500 -2.05175289687500 
 N -0.222224465624998 -7.25977714687500 -2.87096289687500 
 N -2.33126746562500 -6.35210714687500 -3.92873189687500 
 N -2.89697146562500 -6.50642314687500 -4.537289687499668E-002
 N -0.122637465624997 -3.18531814687500 -2.91731289687500 
 N -2.25086046562500 -2.06831714687500 -3.74750889687500 
 N -2.64586646562500 -3.16873314687500 -1.130989687499673E-002
 S -0.773641465624998 -6.83854414687500 -4.41747089687500 
 S -3.77468346562500 -6.26593114687500 -1.47356689687500 
 S -1.35144046562500 -7.22914514687500 -0.289368896874997 
 S -0.746407465624998 -2.42180514687500 -4.25247889687500 
 S -3.54900946562500 -2.52065914687500 -1.27273789687500 
 S -1.07733846562500 -3.63422814687500 -0.366510896874997 
