16

 C -2.44599701562499 -6.47295568125000 -2.35251130000000 
 C -1.16820201562499 -6.81762468125000 -1.72493530000000 
 C -2.57290201562499 -2.85794568125000 -2.58354630000000 
 C -1.31428501562499 -3.30877168125000 -2.04470530000000 
 N -0.137198015624993 -6.73511568125000 -2.58851230000000 
 N -2.38670901562499 -6.21738268125000 -3.66286730000000 
 N -2.96668901562499 -6.83174468125000 0.169589699999998 
 N -0.238205015624993 -3.30021968125000 -2.81490630000000 
 N -2.47257601562499 -2.53584368125000 -3.83369430000000 
 N -2.89966001562499 -3.19857068125000 -6.073630000000163E-002
 S -0.802950015624992 -6.43277768125000 -4.06886530000000 
 S -3.78927801562499 -6.50645568125000 -1.20326430000000 
 S -1.29308701562499 -7.06912868125000 1.009969999999849E-002
 S -0.915620015624993 -2.72524968125000 -4.32704330000000 
 S -3.82759301562499 -2.91392368125000 -1.42141630000000 
 S -1.30316301562499 -3.45968868125000 -0.347604300000001 
