16

 C -2.50327667500001 -6.84134398125000 -2.37963922500000 
 C -1.20836167500001 -7.03796698125000 -1.77930922500000 
 C -2.16757567500001 -2.87184798125000 -2.45340422500000 
 C -1.01711367500001 -3.32229498125000 -1.70821922500000 
 N -0.136666675000006 -6.87198298125000 -2.62709122500000 
 N -2.42208367500001 -6.46470998125000 -3.65515022500000 
 N -3.10506867500001 -7.12223198125000 0.132101775000000 
 N 6.752732499999325E-002 -3.53191798125000 -2.44847122500000 
 N -1.96887667500001 -2.81120398125000 -3.77779322500000 
 N -2.86955367500001 -3.02115198125000 4.444577500000002E-002
 S -0.827623675000006 -6.51153098125000 -4.10913422500000 
 S -3.84758467500001 -6.87541098125000 -1.28595522500000 
 S -1.39706367500001 -7.18934298125000 2.418677499999999E-002
 S -0.391082675000006 -3.20113598125000 -4.01975522500000 
 S -3.57526167500001 -2.66316198125000 -1.39282622500000 
 S -1.25891167500001 -3.53135398125000 -7.898322499999999E-002
