16

 C -2.64467684687500 -6.39005426562500 -2.51581036875000 
 C -1.38998984687500 -6.91940826562500 -1.98970236875000 
 C -2.68178384687500 -2.96574426562500 -2.38257136875000 
 C -1.47698184687500 -3.29202426562500 -1.60926036875000 
 N -0.512589846874999 -7.07437926562500 -2.95430236875000 
 N -2.62924584687500 -6.14288026562500 -3.81716436875000 
 N -2.98607584687500 -6.77436826562500 5.672063125000126E-002
 N -0.388293846874999 -3.55847426562500 -2.35484636875000 
 N -2.51172184687500 -3.01388626562500 -3.70934736875000 
 N -3.38789484687500 -2.81948726562500 0.122026631250001 
 S -1.08804184687500 -6.52018726562500 -4.42424536875000 
 S -3.77543484687500 -5.98326526562500 -1.18002336875000 
 S -1.35044284687500 -7.20351226562500 -0.279272368749999 
 S -0.918009846874999 -3.49444826562500 -3.93711136875000 
 S -4.02064784687500 -2.65670226562500 -1.38065036875000 
 S -1.81618984687500 -3.42843126562500 0.105460631250001 
