16

 C -2.58332912187500 -6.17489377187500 -2.45090078437500 
 C -1.28085212187500 -6.56838477187500 -1.87187078437500 
 C -2.38211812187500 -2.96208877187500 -2.57412078437500 
 C -1.17771312187500 -3.25801177187500 -1.78493678437500 
 N -0.271736121875003 -6.75213377187500 -2.73466778437500 
 N -2.52095412187500 -6.11114677187500 -3.79299578437500 
 N -2.92453312187500 -6.42449077187500 6.587021562499928E-002
 N -0.179122121875003 -3.56526977187500 -2.62816278437500 
 N -2.26867412187500 -3.06119777187500 -3.92288778437500 
 N -3.09883112187500 -2.82969677187500 -4.917178437500058E-002
 S -0.979468121875003 -6.47218677187500 -4.20227378437500 
 S -3.80895712187500 -5.92531077187500 -1.34448078437500 
 S -1.33299712187500 -6.82812977187500 -0.130246784375001 
 S -0.679164121875004 -3.34025177187500 -4.18798478437500 
 S -3.77752812187500 -2.78047477187500 -1.55427578437500 
 S -1.40499412187500 -3.18118677187500 -4.397778437500066E-002
