16

 C -2.61709194375000 -6.31088374687500 -2.53668441875000 
 C -1.42323394375000 -6.73765674687501 -1.90361441875000 
 C -2.69128694375000 -2.66878674687501 -2.49063341875000 
 C -1.51192194375000 -3.26111774687500 -1.87289341875000 
 N -0.390561943749997 -6.93834774687500 -2.69139041875000 
 N -2.48221194375000 -6.11029674687500 -3.85374441875000 
 N -3.22578194375000 -6.71605774687501 -6.307541874999822E-002
 N -0.517281943749997 -3.32485874687501 -2.74822441875000 
 N -2.58450694375000 -2.32934874687500 -3.75572941875000 
 N -3.35765994375000 -2.91424174687501 -5.251041874999807E-002
 S -0.841818943749997 -6.41355874687500 -4.21407141875000 
 S -3.97852494375000 -6.19816374687501 -1.43920541875000 
 S -1.57295294375000 -6.95085374687500 -0.217529418749998 
 S -1.02077794375000 -2.77072374687500 -4.15056841875000 
 S -4.10853994375000 -2.50565074687500 -1.50414941875000 
 S -1.77261194375000 -3.41360074687501 -0.139735418749998 
