16

 C -2.40562068750000 -6.65095374375000 -2.24154522500000 
 C -1.12620268750000 -6.78284474375000 -1.61259722500000 
 C -2.32371168750000 -2.72745274375000 -2.55679222500000 
 C -1.02455368750000 -3.14416074375000 -2.00447022500000 
 N -6.784968750000342E-002 -6.75798574375000 -2.43727222500000 
 N -2.33819868750000 -6.58669274375000 -3.56362922500000 
 N -2.97498668750000 -6.95184574375000 0.259066775000003 
 N -9.715968750000314E-002 -3.38368774375000 -2.92622022500000 
 N -2.31904468750000 -2.60382774375000 -3.87360422500000 
 N -2.67342868750000 -2.87956074375000 1.728977500000295E-002
 S -0.721943687500003 -6.58236374375000 -3.98353322500000 
 S -3.82793168750000 -6.65378174375000 -1.19104622500000 
 S -1.34780968750000 -7.06969974375000 0.190975775000003 
 S -0.862505687500003 -3.02498074375000 -4.43625922500000 
 S -3.58155468750000 -2.40735974375000 -1.29361922500000 
 S -1.15492168750000 -3.47662774375000 -0.211812224999997 
