16

 C -2.35154490312501 -6.91535375937500 -2.39317250000000 
 C -1.16898090312501 -7.29817275937500 -1.72374850000000 
 C -2.83776190312501 -2.96222175937500 -2.32286450000000 
 C -1.72848390312501 -3.56217475937500 -1.73010350000000 
 N -5.469690312500575E-002 -7.53319275937500 -2.44321650000000 
 N -2.10490690312501 -6.80110075937500 -3.67990250000000 
 N -2.98225890312501 -6.80528675937500 9.049550000000051E-002
 N -0.796983903125007 -3.93704675937500 -2.60825750000000 
 N -2.79979090312501 -2.87120775937500 -3.66126550000000 
 N -3.41224490312501 -3.23662475937500 0.158551500000000 
 S -0.521734903125006 -7.11441575937500 -4.00931350000000 
 S -3.68476990312501 -6.51050575937500 -1.37954850000000 
 S -1.41227290312501 -7.33576075937500 3.215750000000051E-002
 S -1.29060590312501 -3.42634675937500 -4.04829250000000 
 S -4.14484590312501 -2.64234075937500 -1.19805650000000 
 S -1.87922690312501 -3.75138775937500 -0.102040500000000 
