16

 C -2.50110330937500 -6.77756421250000 -2.39467386875000 
 C -1.19141130937500 -6.98074221250000 -1.82369986875000 
 C -2.46814630937500 -2.68308321250000 -2.42097986875000 
 C -1.29378530937500 -3.24227721250000 -1.68551386875000 
 N -0.223756309375000 -6.92345321250000 -2.70374986875000 
 N -2.47892430937500 -6.65770721250000 -3.71867586875000 
 N -2.76688230937500 -6.97826621250000 0.179925131250001 
 N -0.263068309375000 -3.52865421250000 -2.49444386875000 
 N -2.19058330937500 -2.40149321250000 -3.69333786875000 
 N -3.22692930937500 -3.03309721250000 1.990513125000093E-002
 S -0.882030309375000 -6.72356821250000 -4.21260786875000 
 S -3.77433730937500 -6.78403621250000 -1.16355586875000 
 S -1.13754330937500 -7.02791621250000 -0.107271868749999 
 S -0.701138309375000 -3.07251021250000 -4.03687786875000 
 S -3.83737130937500 -2.48046621250000 -1.46765386875000 
 S -1.63703730937500 -3.48766321250000 1.097113125000093E-002
