16

 C -2.25008426562500 -6.41109414375000 -2.55813182812500 
 C -1.06561426562500 -6.76308814375000 -1.83066782812500 
 C -2.35929526562500 -2.91529414375000 -2.44187582812500 
 C -1.08457726562500 -3.24943314375000 -1.84877782812500 
 N -2.400326562499888E-002 -6.98162114375000 -2.63729182812500 
 N -2.06647726562500 -6.26604014375000 -3.87647182812500 
 N -2.97559926562500 -6.57709414375000 -6.180582812500002E-002
 N -0.124116265624999 -3.41433114375000 -2.75010282812500 
 N -2.29511226562500 -2.78295214375000 -3.75216882812500 
 N -2.72462526562500 -2.88231814375000 9.750317187499991E-002
 S -0.471382265624999 -6.61825314375000 -4.19196282812500 
 S -3.66343826562500 -5.96487714375000 -1.46566682812500 
 S -1.31651026562500 -6.71488214375000 -7.626382812500032E-002
 S -0.722120265624999 -3.07654514375000 -4.27545082812500 
 S -3.61040926562500 -2.76158714375000 -1.30000882812500 
 S -1.13616626562500 -3.32117714375000 -0.132176828125000 
