16

 C -2.47118798125000 -6.21431211875000 -2.45028469375000 
 C -1.31988898125000 -6.75667811875000 -1.83080269375000 
 C -2.37421798125000 -2.97787711875000 -2.59277069375000 
 C -1.11978798125000 -3.25364111875000 -1.83904769375000 
 N -0.313949981249996 -6.96580911875000 -2.68117069375000 
 N -2.38240198125000 -6.03383111875000 -3.73716569375000 
 N -3.00474598125000 -6.28625911875000 1.089130624999890E-002
 N -9.399398124999614E-002 -3.48028411875000 -2.62328469375000 
 N -2.26034198125000 -2.89250711875000 -3.90849869375000 
 N -2.87829098125000 -3.02006511875000 -3.898769375000088E-002
 S -0.841859981249996 -6.52264211875000 -4.17741969375000 
 S -3.77600798125000 -5.94363411875000 -1.37609569375000 
 S -1.33673298125000 -6.69488311875000 -6.468369375000105E-002
 S -0.624564981249996 -3.16432711875000 -4.21137669375000 
 S -3.73205598125000 -2.92554311875000 -1.48561169375000 
 S -1.27479298125000 -3.42810511875000 -0.114664693750001 
