16

 C -2.32332098125000 -6.41508627187500 -2.30388710937500 
 C -1.08759798125000 -6.97265327187500 -1.77916610937500 
 C -2.39237398125000 -2.97993527187500 -2.42789410937500 
 C -1.14856098125000 -3.27398827187500 -1.82964210937500 
 N -0.123259981249998 -7.04705627187500 -2.67767710937500 
 N -2.28215498125000 -6.12769227187500 -3.58660010937500 
 N -2.80587398125000 -6.82444827187500 0.152353890624999 
 N -8.480598124999705E-002 -3.33033627187500 -2.64656210937500 
 N -2.33012698125000 -2.80061527187500 -3.76060010937500 
 N -2.99263498125000 -3.43093827187500 7.716890624999140E-003
 S -0.733153981249997 -6.46893627187500 -4.13398910937500 
 S -3.63521998125000 -6.34789227187500 -1.25559410937500 
 S -1.23693898125000 -7.29198227187500 -5.961610937500073E-002
 S -0.741346981249998 -3.05635527187500 -4.17095810937500 
 S -3.73351198125000 -2.89123727187500 -1.35832810937500 
 S -1.35118198125000 -3.65265027187500 -0.136433109375001 
