16

 C -2.33565102812500 -6.27217250312501 -2.38056745000000 
 C -1.10682302812500 -6.87045550312501 -1.75026945000000 
 C -2.62606702812500 -2.73564650312501 -2.64284445000000 
 C -1.38841102812500 -3.02210850312501 -1.95856345000000 
 N -0.125769028125002 -7.19726750312501 -2.56188145000000 
 N -2.22125802812500 -6.25781350312501 -3.70115445000000 
 N -2.72313902812500 -6.17454250312501 0.142448549999998 
 N -0.317742028125002 -3.08585550312501 -2.76165445000000 
 N -2.54108602812500 -2.64229950312501 -3.98892445000000 
 N -3.16731702812500 -2.83086450312501 -8.049845000000166E-002
 S -0.663145028125002 -6.76923650312501 -4.05795145000000 
 S -3.62222502812500 -6.04605050312501 -1.31411745000000 
 S -1.24308302812500 -6.97892850312501 4.246954999999830E-002
 S -0.938758028125002 -3.01373650312501 -4.27142245000000 
 S -3.89375402812500 -2.37628850312501 -1.50808945000000 
 S -1.54353702812500 -3.19226650312501 -0.186920450000002 
