16

 C -2.62618488125001 -6.33894503124999 -2.48190484375000 
 C -1.40229788125001 -6.92357403124999 -2.04006384375000 
 C -2.66241288125001 -3.07655503124999 -2.34322884375000 
 C -1.50778888125001 -3.39461703124999 -1.61702684375000 
 N -0.481226881250008 -7.04658603124999 -3.01106084375000 
 N -2.70669888125001 -6.20046503124999 -3.80597084375000 
 N -2.89020488125001 -6.77865203124999 1.836156249998888E-003
 N -0.430520881250008 -3.58219203124999 -2.34729384375000 
 N -2.45881688125001 -2.96779203124999 -3.64676384375000 
 N -3.38241288125001 -2.92353203124999 0.131570156249999 
 S -1.14581088125001 -6.47926303124999 -4.42796684375000 
 S -3.75088588125001 -6.01553503124999 -1.23144784375000 
 S -1.36605888125001 -7.17387203124999 -0.298081843750001 
 S -0.909111881250008 -3.46165503124999 -3.93415584375000 
 S -4.05601688125001 -2.69250703124999 -1.35364484375000 
 S -1.83420088125001 -3.37078203124999 7.182115624999885E-002
