16

 C -2.38357905312500 -6.58277647812500 -2.40048131875000 
 C -1.12807405312500 -6.93340547812500 -1.76013631875000 
 C -2.16449105312500 -2.66273547812500 -2.29217831875000 
 C -1.00091205312500 -3.23504047812500 -1.60200431875000 
 N -0.129750053124996 -6.93037647812500 -2.65096331875000 
 N -2.30413405312500 -6.39045347812500 -3.75571331875000 
 N -2.98744605312500 -6.84834747812500 0.140030681250000 
 N 6.665394687500292E-002 -3.49806447812500 -2.36335131875000 
 N -1.90406305312500 -2.41851247812500 -3.56614331875000 
 N -2.90261905312500 -3.16709447812500 0.104786681250000 
 S -0.744052053124996 -6.68622847812500 -4.16277431875000 
 S -3.75293805312500 -6.62355847812500 -1.24838631875000 
 S -1.36667205312500 -7.22920947812500 -6.097631875000009E-002
 S -0.317314053124996 -2.81298147812500 -3.85687431875000 
 S -3.49773605312500 -2.51163047812500 -1.25475331875000 
 S -1.30141705312500 -3.72475847812500 3.586368124999972E-002
