16

 C -2.56059735312500 -6.58361943750000 -2.45039370312500 
 C -1.26636635312500 -6.99552343750000 -1.94200770312500 
 C -2.54608335312500 -2.76328743750000 -2.54225370312500 
 C -1.42895735312500 -3.20022943750000 -1.82801170312500 
 N -0.300707353125001 -7.01965343750000 -2.84283870312500 
 N -2.50728235312500 -6.34161243750000 -3.73813770312500 
 N -2.95822335312500 -6.96307943750000 7.227929687499990E-002
 N -0.341529353125002 -3.46895743750000 -2.53716370312500 
 N -2.40565335312500 -2.73328943750000 -3.87585270312500 
 N -3.25644035312500 -2.73393143750000 -2.021170312500020E-002
 S -0.989667353125002 -6.59938543750000 -4.27459970312500 
 S -3.78817135312500 -6.47620243750000 -1.26102370312500 
 S -1.38276535312500 -7.26953043750000 -0.220546703125000 
 S -0.817555353125002 -3.14320843750000 -4.12700170312500 
 S -3.90501935312500 -2.33392343750000 -1.51279070312500 
 S -1.70464035312500 -3.24572443750000 -9.973270312499993E-002
