16

 C -2.47776077500000 -6.53165259375000 -2.40090258437500 
 C -1.23293577500000 -7.05987759375000 -1.94309958437500 
 C -2.56253677500000 -2.57517459375001 -2.37550858437500 
 C -1.54686977500000 -3.21057259375000 -1.66168358437500 
 N -0.266451774999999 -7.13988259375000 -2.82010258437500 
 N -2.39256177500000 -6.22238959375001 -3.68633958437500 
 N -2.78999977500000 -7.03587459375001 0.162945415624999 
 N -0.646641774999999 -3.76129559375001 -2.46057658437500 
 N -2.35079077500000 -2.46255659375000 -3.68746958437500 
 N -3.38405277500000 -2.63168759375001 2.496415624999582E-003
 S -0.910201774999999 -6.61650259375000 -4.25213058437500 
 S -3.66594577500000 -6.47396259375000 -1.13159858437500 
 S -1.27085977500000 -7.44338359375000 -0.288081584375001 
 S -0.956029774999999 -3.37062859375000 -4.02001858437500 
 S -3.93856077500000 -2.01907359375001 -1.45116358437500 
 S -1.88441877500000 -3.22623059375000 2.737141562499956E-002
