16

 C -2.34840537812501 -6.24106058125000 -2.21123078750000 
 C -1.19735837812501 -6.80383358125000 -1.49514778750000 
 C -2.33787137812501 -2.58266658125000 -2.14443278750000 
 C -1.13021337812501 -3.16925558125000 -1.57278678750000 
 N -0.173099378125014 -6.99031758125000 -2.31324478750000 
 N -2.13457837812501 -5.94466258125000 -3.50279278750000 
 N -2.97449637812501 -6.46365358125000 0.301525212500001 
 N -7.403337812501309E-002 -3.19083758125000 -2.41562378750000 
 N -2.20585137812501 -2.19427458125000 -3.39198778750000 
 N -3.01736137812501 -3.04240958125000 0.239281212500001 
 S -0.534530378125013 -6.34373258125000 -3.76010478750000 
 S -3.75312237812501 -6.12736758125000 -1.10553978750000 
 S -1.39748437812501 -7.17068258125000 0.134169212500001 
 S -0.617554378125013 -2.55062858125000 -3.81426878750000 
 S -3.69557137812501 -2.46113058125000 -1.18408078750000 
 S -1.39454737812501 -3.60405058125000 0.100545212500001 
