16

 C -2.26468416562499 -6.78744221250000 -2.42829475312500 
 C -1.14916516562499 -7.48036521250000 -1.79954775312500 
 C -2.65172616562499 -2.85200721250000 -2.61372975312500 
 C -1.42702116562499 -3.08969421250000 -1.85265275312500 
 N -0.180616165624993 -7.77247821250000 -2.68693675312500 
 N -2.20339616562499 -6.58047021250000 -3.72282175312500 
 N -2.80417216562499 -7.06465921250000 0.136422246875000 
 N -0.339266165624993 -3.29652621250000 -2.57353375312500 
 N -2.40879116562499 -2.81702221250000 -3.92751175312500 
 N -3.33333016562499 -2.80267121250000 -9.579175312500010E-002
 S -0.655209165624994 -7.09536721250000 -4.18239275312500 
 S -3.50504516562499 -6.36085121250000 -1.22974775312500 
 S -1.24291616562499 -7.61532421250000 -1.636975312500022E-002
 S -0.799952165624993 -3.16270221250000 -4.19886975312500 
 S -4.03494716562499 -2.36827621250000 -1.57206075312500 
 S -1.72001216562499 -3.13412421250000 -0.126591753125000 
