16

 C -2.38902585937500 -6.82622154687500 -2.19175118750000 
 C -1.12140885937500 -7.18970454687500 -1.62257618750000 
 C -2.50489185937500 -2.79665854687500 -2.44826118750000 
 C -1.24089885937500 -3.20214354687500 -1.84279018750000 
 N -9.373485937500003E-002 -7.24763654687500 -2.46694718750000 
 N -2.32045985937500 -6.59794654687500 -3.50058018750000 
 N -2.82193785937500 -6.96699154687500 0.336196812500003 
 N -0.204455859375000 -3.29930854687500 -2.65052918750000 
 N -2.47830585937500 -2.66456954687500 -3.78051418750000 
 N -2.90974885937500 -2.93646654687500 0.144547812500002 
 S -0.790220859375000 -6.86966254687500 -3.96881318750000 
 S -3.77840785937500 -6.65127954687500 -1.01549618750000 
 S -1.23932585937500 -7.36445454687500 0.161051812500002 
 S -0.864945859375000 -2.99194954687500 -4.19893018750000 
 S -3.79349285937500 -2.57600954687500 -1.24537618750000 
 S -1.32330285937500 -3.32686854687500 -2.958718749999756E-002
