16

 C -2.49908820937500 -6.69595850937500 -2.31852170625000 
 C -1.22865520937500 -7.04425650937500 -1.72756870625000 
 C -2.29461120937500 -3.16865550937500 -2.31989070625000 
 C -1.05203320937500 -3.61238450937500 -1.70821470625000 
 N -0.320535209374996 -7.28466250937500 -2.66308070625000 
 N -2.56713320937500 -6.72214850937500 -3.62916070625000 
 N -2.86170020937500 -6.77906350937500 0.226061293750000 
 N -7.543320937499587E-002 -3.87830150937500 -2.56004370625000 
 N -2.16869120937500 -2.95053750937500 -3.58893970625000 
 N -2.74194220937500 -3.37959050937500 0.188159293750000 
 S -1.01643120937500 -6.97642350937500 -4.15093370625000 
 S -3.71995920937500 -6.39949050937500 -1.17189970625000 
 S -1.29036420937500 -7.11622450937500 9.898293750000065E-003
 S -0.629456209374996 -3.43608350937500 -4.10362870625000 
 S -3.56282120937500 -2.89303250937500 -1.14849570625000 
 S -1.13910720937500 -3.82191550937500 2.977229374999979E-002
