16

 C -2.42138470312500 -6.42636132500000 -2.34398660312500 
 C -1.17869270312500 -6.83015232500000 -1.73887160312500 
 C -2.46742770312500 -3.17741532500000 -2.05466960312500 
 C -1.21681070312500 -3.43614232500000 -1.37544360312500 
 N -0.147537703124997 -6.91561432500000 -2.57349660312500 
 N -2.36189770312500 -6.26559332500000 -3.65240960312500 
 N -2.98443570312500 -6.93728432500000 0.170046396875000 
 N -0.208151703124997 -3.50717032500000 -2.23531960312500 
 N -2.32268870312500 -2.97036932500000 -3.36353760312500 
 N -2.99653770312500 -3.37379232500000 0.443366396875000 
 S -0.788291703124997 -6.66297132500000 -4.09448060312500 
 S -3.76221970312500 -6.52638732500000 -1.19242560312500 
 S -1.27654870312500 -7.12137332500000 7.458339687500004E-002
 S -0.744260703124997 -3.24608632500000 -3.74961860312500 
 S -3.84674970312500 -3.06875032500000 -1.00197360312500 
 S -1.35300770312500 -3.55618432500000 0.381815396875000 
