16

 C -2.20104679375001 -6.43164805625000 -2.41473670625000 
 C -0.948773793750005 -6.82903105625000 -1.79642170625000 
 C -2.57146479375001 -2.94366805625000 -2.53935070625000 
 C -1.42771979375001 -3.36227405625000 -1.85052170625000 
 N 3.951320624999433E-002 -6.93935305625000 -2.66629770625000 
 N -2.10101779375000 -6.19346005625000 -3.73645270625000 
 N -2.72187279375001 -6.76616305625000 0.105545293749999 
 N -0.327530793750006 -3.59262805625000 -2.55502570625000 
 N -2.31197579375001 -2.73347505625000 -3.81878770625000 
 N -3.30613479375001 -2.88117305625000 -5.046970625000102E-002
 S -0.553092793750006 -6.51783505625000 -4.17620470625000 
 S -3.58370979375001 -6.36212205625000 -1.27249270625000 
 S -1.08231079375000 -6.94268005625000 -8.402170625000127E-002
 S -0.762730793750006 -3.13463005625000 -4.09812670625000 
 S -3.92490179375001 -2.42932405625000 -1.57677970625000 
 S -1.70074679375000 -3.31281505625000 -9.468970625000117E-002
