16

 C -2.53995787187500 -6.26563601250000 -2.48861209062500 
 C -1.45181287187500 -7.06599901250000 -2.04609409062500 
 C -2.56657587187500 -2.56801201250000 -2.33055509062500 
 C -1.43512887187500 -3.19804501250000 -1.75332809062500 
 N -0.514018871875000 -7.24676101250000 -2.97405709062500 
 N -2.46588287187500 -5.85026201250000 -3.75504009062500 
 N -3.12087687187500 -7.04689301250000 -9.083309062500233E-002
 N -0.443280871874999 -3.46539301250000 -2.56630409062500 
 N -2.43456887187500 -2.24793401250000 -3.62042609062500 
 N -3.17817287187500 -3.02438901250000 0.108508909374998 
 S -1.11082187187500 -6.53563001250000 -4.33089309062500 
 S -3.73406387187500 -5.97500401250000 -1.25973809062500 
 S -1.57113487187500 -7.62303901250000 -0.376580090625002 
 S -0.918045871875000 -2.81190101250000 -4.07465209062500 
 S -3.88203387187500 -2.38505701250000 -1.19071609062500 
 S -1.56170887187500 -3.42630301250000 -4.922209062500227E-002
