16

 C -2.35314113437500 -6.22792331562500 -2.25548746250000 
 C -1.14400013437500 -6.78369431562500 -1.68072946250000 
 C -2.48106913437500 -2.79648331562500 -2.71617546250000 
 C -1.18009813437500 -3.02138331562500 -2.05124646250000 
 N -0.182389134374999 -6.99395231562500 -2.54866746250000 
 N -2.19167113437500 -5.80221331562500 -3.52906246250000 
 N -2.88699913437500 -6.75327831562500 0.254318537500000 
 N -0.170361134374999 -2.90871131562500 -2.87319446250000 
 N -2.41622013437500 -2.52601531562500 -4.00961046250000 
 N -2.89879613437500 -3.03446031562500 -0.194030462500000 
 S -0.677710134374998 -6.31853331562500 -3.97982446250000 
 S -3.67334313437500 -6.18311831562500 -1.09721046250000 
 S -1.27671913437500 -7.09448731562500 4.960053750000015E-002
 S -0.782307134374999 -2.57797231562500 -4.40369646250000 
 S -3.82599413437500 -2.96456331562500 -1.54970446250000 
 S -1.24520013437500 -3.35552131562500 -0.320887462500000 
