16

 C -2.30001939375001 -6.58756220625000 -2.30342362812500 
 C -0.932431393750006 -6.80626020624999 -1.87420262812500 
 C -2.58304839375001 -2.83967720624999 -2.36679162812500 
 C -1.35889039375001 -3.35045620625000 -1.70313162812500 
 N -1.355639375000628E-002 -6.94307420625000 -2.80785362812500 
 N -2.37139339375001 -6.45385920625000 -3.60825162812500 
 N -2.38201239375001 -6.92047120625000 0.273937371875000 
 N -0.362962393750006 -3.46276020625000 -2.57080762812500 
 N -2.45364139375001 -2.65276920625000 -3.67352762812500 
 N -3.09080839375001 -2.91944720625000 0.128055371875000 
 S -0.833812393750006 -6.74170420625000 -4.27092862812500 
 S -3.44852639375001 -6.75565020625000 -0.992104628125000 
 S -0.827135393750006 -7.22408520625000 -0.203143628125000 
 S -0.863220393750006 -3.10646820625000 -4.09413462812500 
 S -3.84050039375001 -2.48426920625000 -1.30150662812500 
 S -1.57475239375001 -3.45461820624999 -5.134962812500010E-002
