16

 C -2.31139133750000 -6.95176455937500 -2.41399220937500 
 C -1.14983033750000 -7.32680655937500 -1.64605020937500 
 C -2.70407733750000 -2.71766955937500 -2.31434720937500 
 C -1.63642333750000 -3.55244955937500 -1.78415220937500 
 N -7.078033749999868E-002 -7.49693455937500 -2.41681620937500 
 N -2.13427933750000 -6.77693255937500 -3.71638320937500 
 N -2.94585733750000 -6.83271855937500 7.339379062500195E-002
 N -0.750292337499999 -3.97229855937500 -2.72303520937500 
 N -2.56394533750000 -2.54299255937500 -3.64442720937500 
 N -3.20028033750000 -2.94719455937500 0.177853790625002 
 S -0.555767337499999 -7.09424255937500 -3.98063220937500 
 S -3.67870633750000 -6.49499155937500 -1.42227020937500 
 S -1.46884833750000 -7.49540955937500 4.630790625002046E-003
 S -1.21453633750000 -3.33789155937500 -4.14776620937500 
 S -3.85922733750000 -2.29654955937500 -1.17191620937500 
 S -1.79858533750000 -3.79523455937500 -3.578820937499794E-002
