16

 C -2.63359713750001 -6.33129598750001 -2.48861635937500 
 C -1.39832113750001 -6.91792198750001 -2.05939835937500 
 C -2.66925713750001 -3.08254398750001 -2.34470835937500 
 C -1.50135413750001 -3.41609098750001 -1.61191135937500 
 N -0.459257137500010 -7.04497698750001 -3.02157835937500 
 N -2.71659413750001 -6.20219798750001 -3.80290935937500 
 N -2.88608613750001 -6.77299498750001 -3.520359375000170E-003
 N -0.435004137500010 -3.59388198750001 -2.34358835937500 
 N -2.45322113750001 -2.96510198750001 -3.64370835937500 
 N -3.37943913750001 -2.94215598750001 0.133027640625000 
 S -1.16069513750001 -6.47866398750001 -4.41713335937500 
 S -3.74579413750001 -6.02457498750001 -1.24070035937500 
 S -1.36536913750001 -7.17048498750001 -0.303354359375000 
 S -0.908566137500010 -3.44828998750001 -3.93298135937500 
 S -4.06656313750001 -2.69554898750001 -1.35217635937500 
 S -1.83037213750001 -3.36327498750001 7.159264062499981E-002
