16

 C -2.43495545937500 -6.51965042500000 -2.42804405937500 
 C -1.31722945937500 -7.00768642500000 -1.68063505937500 
 C -2.34484145937500 -2.83021342500000 -2.54971805937500 
 C -1.15879845937500 -3.28361742500000 -1.86801405937500 
 N -0.245712459374996 -7.30070442500000 -2.41892205937500 
 N -2.16012145937500 -6.44586042500000 -3.73156105937500 
 N -3.29399645937500 -6.73768342500000 -5.388305937500393E-002
 N -0.163387459374996 -3.51814242500000 -2.68884605937500 
 N -2.12786445937500 -2.57747042500000 -3.84174105937500 
 N -2.99257045937500 -3.03200442500000 -3.603705937500390E-002
 S -0.575164459374996 -6.97740542500000 -3.99175305937500 
 S -3.82851045937500 -6.14374442500000 -1.50351405937500 
 S -1.64697145937500 -7.23224242500000 3.941194062499598E-002
 S -0.572110459374996 -3.03659742500000 -4.23301805937500 
 S -3.75525145937500 -2.70660442500000 -1.48530605937500 
 S -1.34691245937500 -3.55226242500000 -0.153305059375004 
