16

 C -2.41985625937500 -6.75238415937500 -2.19499887500000 
 C -1.15071125937500 -7.14845515937501 -1.57309887500000 
 C -2.49281025937500 -2.81301815937501 -2.42898387500000 
 C -1.22571825937500 -3.10406915937501 -1.76964487500000 
 N -0.143027259375001 -7.24549715937501 -2.45067387500000 
 N -2.32196725937500 -6.53561415937501 -3.49917087500000 
 N -2.82202525937500 -6.92197115937501 0.321500125000000 
 N -0.226787259375001 -3.33618715937501 -2.62225087500000 
 N -2.35917625937500 -2.67822415937501 -3.74319487500000 
 N -2.96130325937500 -2.98804915937501 8.718312500000036E-002
 S -0.730179259375001 -6.82511015937501 -3.92614387500000 
 S -3.74387825937500 -6.67905615937501 -1.04344287500000 
 S -1.21912425937500 -7.35979915937501 0.110632125000000 
 S -0.823134259375001 -3.01471915937501 -4.15620887500000 
 S -3.78525025937500 -2.60610315937501 -1.29859287500000 
 S -1.27491025937500 -3.26509715937501 -7.461287499999969E-002
