16

 C -2.28321693125000 -6.19396270937500 -2.06783960625000 
 C -1.03131993125000 -6.69677470937500 -1.60852060625000 
 C -2.38146993125000 -2.72245770937500 -2.43477760625000 
 C -1.23210593125000 -3.11353470937500 -1.66912860625000 
 N -5.625593125000439E-002 -6.80667070937500 -2.52545160625000 
 N -2.31112693125000 -5.97763770937500 -3.37654760625000 
 N -2.71394593125000 -6.68904370937500 0.447067393750002 
 N -0.205262931250004 -3.37847970937500 -2.46564260625000 
 N -2.27856693125000 -2.75800270937500 -3.75344360625000 
 N -3.05299893125000 -2.72351470937500 5.959839375000198E-002
 S -0.773291931250005 -6.36457870937500 -3.98494160625000 
 S -3.52526693125000 -6.14097770937500 -0.834791606249998 
 S -1.16116793125000 -7.24104670937500 9.686439375000200E-002
 S -0.618107931250004 -3.08199070937500 -4.03413260625000 
 S -3.75666593125001 -2.32369970937500 -1.37686560625000 
 S -1.54502793125000 -3.42492370937500 1.911039375000212E-002
