16

 C -2.35003846250000 -6.30401616875000 -2.40067241250000 
 C -1.11914946250000 -6.78102916875001 -1.79742341250000 
 C -2.60369046250000 -2.62251416875001 -2.55078441250000 
 C -1.40832046250000 -3.01345616875001 -1.90339941250000 
 N -9.726946250000168E-002 -6.98598416875001 -2.59389441250000 
 N -2.17945646250000 -6.18055016875001 -3.69542841250000 
 N -2.78197846250000 -6.37852616875000 0.222848587499999 
 N -0.392557462500002 -3.33428816875001 -2.71876341250000 
 N -2.48775746250000 -2.69999816875001 -3.86110841250000 
 N -3.18608846250000 -2.76091116875001 -9.967141250000067E-002
 S -0.651597462500003 -6.72488416875001 -4.13071041250000 
 S -3.59217546250000 -5.99827916875001 -1.13829541250000 
 S -1.26759446250000 -7.05151316875001 -8.784641250000069E-002
 S -0.913397462500003 -3.06969316875001 -4.29581341250000 
 S -3.93277946250000 -2.21799216875001 -1.50140741250000 
 S -1.62784146250000 -3.18102816875001 -0.222084412500001 
