16

 C -2.65631647500000 -6.62816301250000 -2.31258389687500 
 C -1.36381347500000 -6.80466501250000 -1.70010389687500 
 C -2.35770847500000 -3.08073701250000 -2.46733889687500 
 C -1.07355147500000 -3.31091901250000 -1.90742989687500 
 N -0.289426475000004 -6.75181201250000 -2.54573089687500 
 N -2.62013047500000 -6.45012701250000 -3.61951189687500 
 N -3.18022647500000 -6.90398401250000 0.210005103124998 
 N -8.328147500000416E-002 -3.47352201250000 -2.79492289687500 
 N -2.36242347500000 -2.99781201250000 -3.80178489687500 
 N -2.70230447500000 -3.05033601250000 5.864710312499821E-002
 S -0.971916475000004 -6.67673001250000 -4.10505889687500 
 S -3.98145247500000 -6.79997201250000 -1.19485789687500 
 S -1.50391147500000 -7.16854601250000 3.850510312499833E-002
 S -0.768914475000004 -3.27443901250000 -4.25412789687500 
 S -3.67573347500000 -2.89040301250000 -1.30191289687500 
 S -1.09626947500000 -3.33314201250000 -0.194009896875002 
