16

 C -2.58558257187500 -6.38111598124999 -2.23997339375000 
 C -1.37160957187500 -6.84458598124999 -1.72071339375000 
 C -2.48527557187500 -2.89834198124999 -2.44251439375000 
 C -1.16936957187500 -3.23725698124999 -1.86231839375000 
 N -0.409132571875004 -6.97658998124999 -2.63425039375000 
 N -2.56780957187500 -6.12813598124999 -3.55791139375000 
 N -3.05913057187500 -6.76111298124999 0.195100606249998 
 N -0.176100571875004 -3.31014298124999 -2.71985839375000 
 N -2.39387357187500 -2.62635798124999 -3.74572339375000 
 N -2.95861557187500 -3.19005198124999 6.730160624999759E-002
 S -1.02414557187500 -6.56230998124999 -4.08731339375000 
 S -3.88454357187500 -6.17580798124999 -1.09644039375000 
 S -1.47586857187500 -7.19965098124999 -4.753039375000245E-002
 S -0.799863571875004 -2.95505898124999 -4.16319339375000 
 S -3.83060757187500 -2.83275798124999 -1.32284039375000 
 S -1.41177257187500 -3.72128598124999 -0.141973393750003 
