16

 C -2.28773468750000 -6.41738572187499 -2.24651809062500 
 C -1.06976868750000 -6.98229572187499 -1.64972209062500 
 C -2.31091468750000 -2.57834972187499 -2.40977809062500 
 C -1.10855668750000 -3.19314272187499 -1.94175309062500 
 N -0.140181687499997 -7.26106872187499 -2.55535609062500 
 N -2.19294468750000 -6.24215372187499 -3.56023609062500 
 N -2.69100668750000 -6.77975672187499 0.242113909374998 
 N -0.179124687499998 -3.40470472187499 -2.87449809062500 
 N -2.29612568750000 -2.27060172187499 -3.70486109062500 
 N -2.78199068750000 -3.20610372187499 8.227909374997955E-003
 S -0.763994687499998 -6.83977772187499 -4.02498209062500 
 S -3.59815968750000 -6.22155172187499 -1.07840309062500 
 S -1.13697968750000 -7.22635972187499 4.597290937499787E-002
 S -0.777841687499998 -2.76929772187499 -4.25829909062500 
 S -3.58116768750000 -2.38390672187499 -1.31029809062500 
 S -1.16446068750000 -3.53890272187499 -0.262081090625002 
