16

 C -2.50274148437501 -6.22961354062501 -2.25729837812500 
 C -1.38914148437501 -6.90283954062501 -1.68235637812500 
 C -2.28633848437501 -2.32192454062501 -2.49534637812500 
 C -1.05449148437501 -2.85221254062501 -1.89150237812500 
 N -0.409845484375007 -7.15021454062501 -2.54669637812500 
 N -2.38998248437501 -6.03025454062501 -3.56543937812500 
 N -3.11776448437501 -6.69535754062501 0.195211621875001 
 N -3.369948437500803E-002 -3.03845354062501 -2.74371937812500 
 N -2.21335748437501 -2.21854454062501 -3.79344537812500 
 N -2.88642048437501 -2.50258354062501 -6.039378124999217E-003
 S -0.860702484375008 -6.55816154062501 -4.01727337812500 
 S -3.87172348437501 -6.03239054062501 -1.16539137812500 
 S -1.57637848437501 -7.21846354062501 -2.485937812499950E-002
 S -0.670463484375007 -2.71516254062501 -4.24195937812500 
 S -3.59339648437501 -1.93000054062501 -1.40621037812500 
 S -1.36052948437501 -3.21282154062501 -0.156546378124999 
