16

 C -2.50916077812500 -6.25166802812501 -2.49002693750000 
 C -1.28007977812500 -6.56069302812501 -1.83064493750000 
 C -2.39304477812500 -2.92209602812501 -2.53326893750000 
 C -1.20830577812500 -3.20628302812501 -1.84183693750000 
 N -0.315080778125004 -6.67096902812501 -2.71599593750000 
 N -2.51018477812500 -6.09461602812501 -3.80194493750000 
 N -3.01211277812500 -6.47289002812501 4.175806249999914E-002
 N -0.152805778125004 -3.48675802812501 -2.59468993750000 
 N -2.30417177812500 -3.02409502812501 -3.83341193750000 
 N -3.04868177812500 -2.80615302812501 -3.670193750000084E-002
 S -0.971777778125005 -6.48168602812501 -4.20872393750000 
 S -3.76676977812500 -5.97578902812501 -1.33677993750000 
 S -1.36833677812500 -6.82425302812501 -0.143568937500001 
 S -0.705621778125004 -3.38748902812501 -4.15031393750000 
 S -3.74113677812500 -2.74538802812501 -1.56514593750000 
 S -1.44501977812500 -3.15367902812501 -0.103938937500001 
