16

 C -2.27410061562500 -6.26899503750000 -2.24341619375000 
 C -1.11977661562500 -6.78866803750000 -1.51823019375000 
 C -2.34809961562500 -2.45484303750000 -2.12269519375000 
 C -1.15465861562500 -3.09266403750000 -1.62121419375000 
 N -8.785561562500011E-002 -6.89321203750000 -2.35070319375000 
 N -2.11649461562500 -6.03316103750000 -3.53291319375000 
 N -3.04936761562500 -6.47433703750000 0.265414806250000 
 N -8.628061562500022E-002 -3.11707103750000 -2.40756019375000 
 N -2.19973061562500 -2.12401203750000 -3.39562919375000 
 N -2.92112361562500 -3.26702803750000 0.251126806250001 
 S -0.596157615625000 -6.55152703750000 -3.89838219375000 
 S -3.72102161562500 -6.10457703750000 -1.18537319375000 
 S -1.51742461562500 -7.10616803750000 0.138107806250001 
 S -0.650882615625000 -2.44804103750000 -3.87330919375000 
 S -3.66751361562500 -2.46851903750000 -1.00135819375000 
 S -1.36013961562500 -3.75620503750000 3.617806250000521E-003
