16

 C -2.54763855625000 -6.57569642500000 -2.25843249375000 
 C -1.27049955625000 -6.80478242500000 -1.65923449375000 
 C -2.34964655625000 -2.72735142500000 -2.41917249375000 
 C -1.24887955625000 -3.21551942500000 -1.73339349375000 
 N -0.227236556249999 -6.83210842500000 -2.47772049375000 
 N -2.51400855625000 -6.56357442500000 -3.56900949375000 
 N -3.10844055625000 -6.86402742500000 0.210314506249999 
 N -0.164266556249999 -3.43696742500000 -2.47239349375000 
 N -2.16066155625000 -2.45875642500000 -3.71153849375000 
 N -3.14862055625000 -3.09473642500000 3.797506249998861E-003
 S -0.914955556249998 -6.72918042500000 -4.04089049375000 
 S -3.92331055625000 -6.75246642500000 -1.23500249375000 
 S -1.50643855625000 -7.15344742500000 5.869250624999900E-002
 S -0.555479556249998 -2.95037142500000 -4.01753749375000 
 S -3.69448455625000 -2.31163642500000 -1.39009749375000 
 S -1.59007355625000 -3.57990142500000 -0.114224493750001 
