16

 C -2.60011602187500 -6.47767940625000 -2.38040534687500 
 C -1.32036902187500 -6.92004240625000 -1.74180034687500 
 C -2.39069502187500 -2.84021040625000 -2.17414834687500 
 C -1.13690502187500 -3.29092740625000 -1.64444534687500 
 N -0.304022021875004 -7.08358740625000 -2.58363434687500 
 N -2.42170702187500 -6.28054940625000 -3.67444034687500 
 N -3.07074402187500 -6.82183140625000 0.157582653125000 
 N -0.190842021875004 -3.46179540625000 -2.55000234687500 
 N -2.38445702187500 -2.66368440625000 -3.49486034687500 
 N -2.83712402187500 -2.97682540625000 0.347350653124999 
 S -0.920871021875004 -6.77088840625000 -4.08015934687500 
 S -3.93217902187500 -6.38982940625000 -1.27433534687500 
 S -1.48004902187500 -7.20708240625000 -3.763468750004328E-004
 S -0.779862021875005 -2.96973840625000 -4.04457934687500 
 S -3.68901102187500 -2.45958240625000 -1.01862534687500 
 S -1.26768402187500 -3.48507940625000 0.110071653124999 
