16

 C -2.35646982500000 -6.56250380000000 -2.40297639375000 
 C -1.12055982500000 -6.93018680000000 -1.76355039375000 
 C -2.18441182500000 -2.62911080000000 -2.28556139375000 
 C -1.02283882500000 -3.21685380000000 -1.61331139375000 
 N -0.136159824999996 -6.97773780000000 -2.63578139375000 
 N -2.32237382500000 -6.39512680000000 -3.73875739375000 
 N -2.98981282500000 -6.81179380000000 0.116968606250000 
 N 2.359717500000347E-002 -3.52249480000000 -2.37006939375000 
 N -1.88877282500000 -2.35646580000000 -3.55445739375000 
 N -2.88124282500000 -3.17546280000000 0.141681606250000 
 S -0.753818824999997 -6.67798380000000 -4.14202139375000 
 S -3.74049582500000 -6.59686080000000 -1.27232139375000 
 S -1.36031282500000 -7.21347680000000 -4.552239375000022E-002
 S -0.330739824999997 -2.77629980000000 -3.85024139375000 
 S -3.52250882500000 -2.51830880000000 -1.23612739375000 
 S -1.27150482500000 -3.73660480000000 3.847160624999968E-002
