16

 C -2.60565454062500 -6.46167134375000 -2.50903833125000 
 C -1.46951354062500 -7.00347934375000 -1.81510433125000 
 C -2.26819254062500 -2.83678234375000 -2.39983533125000 
 C -0.994492540625004 -3.31013634375000 -1.75065133125000 
 N -0.403864540625004 -7.12696034375000 -2.60581133125000 
 N -2.44825554062500 -6.15491334375000 -3.81689633125000 
 N -3.34758254062500 -6.77226534375000 -4.807033124999971E-002
 N 2.221045937499611E-002 -3.54684834375000 -2.59844433125000 
 N -2.12929154062500 -2.63843534375000 -3.71569933125000 
 N -2.80240854062500 -3.23266034375000 6.901766875000015E-002
 S -0.912343540625004 -6.66780434375000 -4.17808833125000 
 S -4.03878554062500 -6.28876534375000 -1.50843733125000 
 S -1.77628654062500 -7.29056934375000 -0.153223331250000 
 S -0.557095540625004 -3.01593834375000 -4.08950133125000 
 S -3.58021754062500 -2.74750134375000 -1.28400433125000 
 S -1.19663154062500 -3.62038734375000 -5.226133124999977E-002
