16

 C -2.29488428125000 -6.45847272812500 -2.47277019062500 
 C -1.06153528125000 -6.78935672812500 -1.81754419062500 
 C -2.47702328125000 -3.28195372812500 -2.10367119062500 
 C -1.15796828125000 -3.34517272812500 -1.59056919062500 
 N -2.325128124999853E-002 -6.87195772812500 -2.63815119062500 
 N -2.21424428125000 -6.35157072812500 -3.78876019062500 
 N -2.94490528125000 -6.55176872812500 3.703480937500103E-002
 N -0.197720281249999 -3.34454072812500 -2.49326319062500 
 N -2.53905528125000 -3.38329572812500 -3.44475919062500 
 N -2.67733728125000 -3.56556072812500 0.456736809375001 
 S -0.667750281249998 -6.67081272812500 -4.20938219062500 
 S -3.66651528125000 -6.22301472812500 -1.42718019062500 
 S -1.32516028125000 -6.88606172812500 -8.259019062499906E-002
 S -0.975117281249998 -3.32494872812500 -3.98626919062500 
 S -3.67394028125000 -3.32661472812500 -0.874165190624999 
 S -1.02154728125000 -3.61099372812500 0.145614809375001 
