16

 C -2.35971473750000 -6.63521305000000 -2.20337419687500 
 C -1.13741873750000 -7.00588005000000 -1.58800819687500 
 C -2.40356773750000 -2.65391305000000 -2.50865919687500 
 C -1.18327473750000 -3.01783305000000 -1.88730819687500 
 N -5.941373750000345E-002 -7.02361105000000 -2.37870219687500 
 N -2.21187973750000 -6.25186905000000 -3.46443619687500 
 N -2.93541573750000 -6.99957305000000 0.284312803124999 
 N -0.143749737500004 -3.07481305000000 -2.70574919687500 
 N -2.40852873750000 -2.56734605000000 -3.84639619687500 
 N -2.89182173750000 -2.97515305000000 3.717580312499891E-002
 S -0.585151737500004 -6.48663405000000 -3.86503119687500 
 S -3.67569273750000 -6.62329205000000 -1.12894819687500 
 S -1.29701573750000 -7.34318405000000 0.147252803124999 
 S -0.797684737500004 -2.85682305000000 -4.23685119687500 
 S -3.70796573750000 -2.39605705000000 -1.30686819687500 
 S -1.25172573750000 -3.22210905000000 -0.117015196875001 
