16

 C -2.48498596562500 -6.12434061875000 -2.42991228750000 
 C -1.26780396562500 -6.75899861875000 -1.86078728750000 
 C -2.55499496562500 -2.51116461875000 -2.43460728750000 
 C -1.41734796562500 -3.09384161875000 -1.74413628750000 
 N -0.250262965624996 -7.00645861875000 -2.67263628750000 
 N -2.34260496562500 -5.94059461875000 -3.72909728750000 
 N -2.83189796562500 -6.42068061875000 0.136210712499999 
 N -0.371369965624996 -3.34620161874999 -2.53739628750000 
 N -2.39208796562500 -2.30519361875000 -3.77102728750000 
 N -3.04228496562500 -2.41473561875000 7.948571249999903E-002
 S -0.751601965624996 -6.42096961875000 -4.11467028750000 
 S -3.77408996562500 -6.10405161875000 -1.27345028750000 
 S -1.32042396562500 -7.09319461875000 -0.114460287500001 
 S -0.898520965624996 -2.97715561875000 -4.04128628750000 
 S -3.79373396562500 -2.00825461875000 -1.33068028750000 
 S -1.59392696562500 -3.28324261875000 8.791712499999216E-003
