16

 C -2.67319586562500 -6.30448295937500 -2.44298826562500 
 C -1.40849386562500 -6.66242095937500 -1.82990026562500 
 C -2.51063686562500 -2.95895795937500 -2.29078226562500 
 C -1.25250386562500 -3.30709995937500 -1.64491126562500 
 N -0.365606865624996 -6.75738295937500 -2.67320926562500 
 N -2.59307086562500 -6.21679595937500 -3.77067826562500 
 N -3.22481586562500 -6.58904695937500 5.488773437499939E-002
 N -0.266539865624996 -3.47943395937500 -2.51295926562500 
 N -2.39530886562500 -2.95004595937500 -3.60606526562500 
 N -2.99537286562500 -3.06412295937500 0.239379734374999 
 S -1.07019786562500 -6.54761095937500 -4.16866026562500 
 S -4.01503286562500 -6.16787495937500 -1.34231526562500 
 S -1.62129086562500 -6.87586395937500 -0.102570265625001 
 S -0.808943865624996 -3.10089195937500 -4.01360426562500 
 S -3.83751386562500 -2.68430295937500 -1.19833126562500 
 S -1.39914786562500 -3.48180095937500 4.803673437499945E-002
