16

 C -2.51702880000000 -6.52904303437500 -2.41815459062500 
 C -1.23682180000000 -6.93234803437500 -1.94451059062500 
 C -2.64138080000000 -2.75299303437500 -2.49294559062500 
 C -1.48464480000000 -3.22456303437500 -1.70527859062500 
 N -0.282242800000001 -6.90899903437500 -2.88633359062500 
 N -2.51007680000000 -6.36341103437500 -3.74254159062500 
 N -2.77300680000000 -6.86161303437500 7.063440937500243E-002
 N -0.501455800000000 -3.60088903437500 -2.50959559062500 
 N -2.41575580000000 -2.71113903437500 -3.79595359062500 
 N -3.28915580000000 -2.67148303437500 -5.607559062499767E-002
 S -1.01577680000000 -6.55636603437500 -4.33737859062500 
 S -3.75045180000000 -6.46072803437500 -1.25160159062500 
 S -1.22711180000000 -7.48861503437500 -0.247100590624997 
 S -0.872119800000000 -3.32737403437500 -4.07571059062500 
 S -3.89653280000000 -2.05941303437500 -1.52110459062500 
 S -1.75493880000000 -3.23338603437500 -3.715759062499768E-002
