16

 C -2.61912210624999 -6.46208994375000 -2.47341175625000 
 C -1.35689210624999 -6.63635094375000 -1.80521175625000 
 C -2.67305410624999 -2.67132394375000 -2.56150375625000 
 C -1.37757610624999 -2.95205294375000 -2.01162175625000 
 N -0.271980106249994 -6.61306194375000 -2.56822175625000 
 N -2.45028810624999 -6.29470794375000 -3.77550875625000 
 N -3.08696910624999 -6.54869294375000 7.521424374999985E-002
 N -0.389542106249994 -3.00427694375000 -2.92129975625000 
 N -2.73220810624999 -2.46777694375000 -3.84479775625000 
 N -3.09917410624999 -3.13979194375000 -8.910375625000011E-002
 S -0.774234106249994 -6.37991194375000 -4.10983175625000 
 S -3.93240710624999 -6.45880194375000 -1.32039075625000 
 S -1.44957110624999 -6.92670994375000 -0.104500756250000 
 S -1.17484610624999 -2.73517894375000 -4.37125075625000 
 S -3.93761010624999 -2.53383494375000 -1.39035475625000 
 S -1.48306210624999 -3.34345294375000 -0.333056756250000 
