16

 C -2.34432935312501 -6.52703208750000 -2.38338163125000 
 C -1.06172935312501 -6.95696508750000 -1.82297563125000 
 C -2.41347335312501 -2.55231608750000 -2.48817263125000 
 C -1.25547935312501 -3.22804308750000 -1.87503863125000 
 N -0.163070353125006 -7.22610708750000 -2.74641563125000 
 N -2.37765135312501 -6.41172108750000 -3.70948663125000 
 N -2.58914835312501 -6.50160508750000 0.239845368750000 
 N -0.363876353125006 -3.66946208750000 -2.78716063125000 
 N -2.32480635312501 -2.40355708750000 -3.79783363125000 
 N -3.07452235312501 -2.98479408750000 2.198636875000037E-002
 S -0.814174353125006 -6.82795708750000 -4.24631463125000 
 S -3.52196335312501 -6.15598808750000 -1.11445963125000 
 S -1.01248335312501 -6.91501008750000 -0.122602631250000 
 S -0.893163353125006 -2.98753508750000 -4.27370463125000 
 S -3.72877435312501 -2.37732208750000 -1.37052963125000 
 S -1.44424935312501 -3.37398408750000 -0.131596631250000 
