16

 C -2.48906963750000 -6.66918408437500 -2.10546010625000 
 C -1.21809063750000 -7.24598508437500 -1.63444710625000 
 C -2.43607863750000 -2.70573708437500 -2.46962010625000 
 C -1.25143163750000 -3.26722808437500 -1.80609410625000 
 N -0.316332637499995 -7.24357508437500 -2.61548510625000 
 N -2.55886263750000 -6.27628608437500 -3.38224110625000 
 N -2.82520863750000 -6.96746108437500 0.414539893749998 
 N -0.247642637499996 -3.57462508437500 -2.61278010625000 
 N -2.37222863750000 -2.70005308437500 -3.80591610625000 
 N -3.07767163750000 -3.00405008437500 1.227889374999758E-002
 S -1.07697563750000 -6.66668608437500 -3.98226510625000 
 S -3.73079963750000 -6.36718508437500 -0.918129106250003 
 S -1.26199863750000 -7.55292508437500 4.699389374999763E-002
 S -0.789593637499995 -3.15865508437500 -4.10914910625000 
 S -3.71042863750000 -2.35359508437500 -1.36009910625000 
 S -1.52344163750000 -3.59617608437500 -0.118136106250002 
