16

 C -2.20993871250000 -6.17089270000000 -2.12139596562500 
 C -1.04269171250000 -6.84959070000000 -1.48440796562500 
 C -2.41357471250000 -2.63882370000000 -2.65884996562500 
 C -1.20431171250000 -3.08062270000000 -2.00804596562500 
 N -8.511712499995383E-003 -6.92998370000000 -2.31092296562500 
 N -2.05617771249999 -5.90056870000000 -3.43682296562500 
 N -2.86122171250000 -6.63274670000000 0.289839034375000 
 N -0.213712712499995 -3.40053470000000 -2.86264596562500 
 N -2.28706871250000 -2.57436570000000 -3.97184596562500 
 N -2.94557971250000 -2.99223970000000 -0.161434965625000 
 S -0.520184712499995 -6.49867470000000 -3.82095796562500 
 S -3.63644371249999 -6.24111370000000 -1.11611196562500 
 S -1.29081171250000 -7.32898770000000 0.117141034375000 
 S -0.728437712499995 -3.01903170000000 -4.40165296562500 
 S -3.71717271250000 -2.49405970000000 -1.55807096562500 
 S -1.34132871249999 -3.21970570000000 -0.289477965625000 
