16

 C -2.14405057187500 -6.37299262812501 -2.33910345625000 
 C -0.975508571874998 -6.89839862812501 -1.72957345625000 
 C -2.90059757187500 -2.59242362812501 -2.51356745625000 
 C -1.64772357187500 -2.88513462812501 -1.89251245625000 
 N 3.284042812500232E-002 -6.98971062812501 -2.56441245625000 
 N -2.06173757187500 -6.07700962812501 -3.63101745625000 
 N -2.73497657187500 -6.69839062812501 0.123881543750002 
 N -0.582071571874997 -2.89841262812501 -2.69054945625000 
 N -2.74498457187500 -2.31582562812501 -3.82767345625000 
 N -3.34085757187500 -2.81938962812501 -6.526245624999838E-002
 S -0.534758571874997 -6.50076162812501 -4.05810245625000 
 S -3.49976657187500 -6.16431762812501 -1.26667445625000 
 S -1.14756657187500 -7.11094462812501 -1.903045624999855E-002
 S -1.17970457187500 -2.52683162812501 -4.25233845625000 
 S -4.16417157187500 -2.42449062812501 -1.40995945625000 
 S -1.74345357187500 -3.20929262812501 -0.228487456249999 
