16

 C -2.39285392187500 -6.25479841875000 -2.18846850625000 
 C -1.20418692187500 -6.89821341875000 -1.70013950625000 
 C -2.44584392187500 -2.73882241875000 -2.60760050625000 
 C -1.16765292187500 -3.01056441875000 -1.96464150625000 
 N -0.174469921874998 -7.01518341875000 -2.49222650625000 
 N -2.21418492187500 -5.95763341875000 -3.46747850625000 
 N -2.88183092187500 -6.92071341875000 0.192657493750000 
 N -0.172946921874998 -3.00404641875000 -2.81822950625000 
 N -2.36498992187500 -2.54067841875000 -3.91440050625000 
 N -2.94577392187500 -3.09684441875000 -5.741550624999969E-002
 S -0.682450921874998 -6.36032441875000 -3.94955350625000 
 S -3.68825592187500 -6.12013841875000 -1.11648450625000 
 S -1.23166892187500 -7.05436441875000 2.454549375000048E-002
 S -0.757256921874998 -2.59688041875000 -4.26436950625000 
 S -3.80312892187500 -2.84232641875000 -1.46301050625000 
 S -1.31111592187500 -3.39664441875000 -0.341467506249999 
