16

 C -2.32645599062501 -6.63306726875001 -2.25621615312500 
 C -1.07118999062501 -7.02403426875001 -1.64344915312500 
 C -2.33084799062501 -2.81472426875001 -2.44751215312500 
 C -1.15372899062501 -3.12977426875001 -1.74971615312500 
 N -6.402399062500663E-002 -7.06141226875001 -2.50512415312500 
 N -2.27566999062501 -6.36008626875001 -3.55720415312500 
 N -2.92592099062501 -7.03341326875001 0.250122846874999 
 N -8.969099062500607E-002 -3.32471126875001 -2.51476515312500 
 N -2.20918399062501 -2.73291026875001 -3.76737415312500 
 N -3.06685999062501 -2.95255726875001 3.671784687499935E-002
 S -0.718444990625006 -6.65637426875001 -4.03727315312500 
 S -3.73610699062501 -6.65758026875001 -1.20757515312500 
 S -1.25813099062501 -7.30993726875001 6.193784687499937E-002
 S -0.559467990625007 -3.08090326875001 -4.07806315312500 
 S -3.76313599062501 -2.57198726875001 -1.47232715312500 
 S -1.43892899062501 -3.12629726875001 5.495184687499921E-002
