16

 C -2.19201649375000 -6.51970213749999 -2.48487026875000 
 C -1.03596449375000 -7.10951113749999 -1.81872726875000 
 C -2.66882949375000 -2.35839213749999 -2.41897926875000 
 C -1.42272149375000 -2.92232813749999 -1.75462726875000 
 N -4.747493750001830E-003 -7.31506013749999 -2.60804026875000 
 N -2.06983849375000 -6.39423213749999 -3.80928926875000 
 N -2.70084849375000 -6.54766313749999 5.273273125000189E-002
 N -0.455035493750001 -3.26553413749999 -2.60611026875000 
 N -2.53229349375000 -2.22209513749999 -3.73078026875000 
 N -3.25370449375000 -2.65438513749999 3.758473125000172E-002
 S -0.449478493750002 -6.84714913749999 -4.15811526875000 
 S -3.47515049375000 -6.11533013749999 -1.36172426875000 
 S -1.23434049375000 -7.31784913749999 -0.133379268749998 
 S -1.02514949375000 -2.85993413749999 -4.14754226875000 
 S -3.89697149375000 -1.88449513749999 -1.29362326875000 
 S -1.66147649375000 -3.18639613749999 -4.130126874999829E-002
