16

 C -2.32812394687500 -6.42458696562500 -2.17215005312500 
 C -1.16141994687500 -6.99983696562500 -1.62180605312500 
 C -2.33002094687500 -2.75895596562500 -2.62834805312500 
 C -1.12623694687500 -3.17687496562500 -1.97910905312500 
 N -8.295494687500060E-002 -6.99056096562500 -2.40201005312500 
 N -2.16821094687500 -6.05259696562500 -3.42722105312500 
 N -2.89136194687500 -7.01753496562500 0.294975946874998 
 N -0.120533946875001 -3.39985596562500 -2.77355605312500 
 N -2.14645994687500 -2.60681696562500 -3.91421205312500 
 N -2.87917794687500 -2.66316296562500 -0.173817053125001 
 S -0.548255946875000 -6.24419596562500 -3.80291205312500 
 S -3.64302394687500 -6.31935996562500 -0.988160053125001 
 S -1.28694894687500 -7.33322896562500 0.109533946874999 
 S -0.620412946875001 -3.11357996562500 -4.34752005312500 
 S -3.66604794687500 -2.41248396562500 -1.63954005312500 
 S -1.31667194687500 -3.21703496562500 -0.285435053125001 
