16

 C -2.28842587812501 -6.35994185312500 -2.59763424375000 
 C -1.04973487812501 -6.67746485312500 -1.93454224375000 
 C -2.82829387812501 -2.70746785312500 -2.35689324375000 
 C -1.58138287812501 -3.12382785312500 -1.66799624375000 
 N -8.315887812500566E-002 -6.95288785312500 -2.79270824375000 
 N -2.26315387812501 -6.33254385312500 -3.94187924375000 
 N -2.75862887812501 -6.42149085312500 -7.201624375000071E-002
 N -0.482638878125005 -3.26481385312500 -2.41477524375000 
 N -2.72762187812501 -2.71838485312500 -3.68490624375000 
 N -3.37873387812501 -2.84068485312500 0.190870756249999 
 S -0.677595878125005 -6.83191185312500 -4.35176424375000 
 S -3.61733687812501 -6.04850085312500 -1.46577924375000 
 S -1.16320587812501 -6.83098385312500 -0.250018243750001 
 S -1.12124187812501 -3.00503185312500 -3.97511924375000 
 S -4.08880987812501 -2.35192785312500 -1.26450024375000 
 S -1.78341387812501 -3.13476885312500 6.620875624999911E-002
