16

 C -2.43155579375000 -6.64684445937500 -2.37863696562500 
 C -1.19149379375000 -6.96155445937500 -1.76600996562500 
 C -2.51349679375000 -2.83878345937500 -2.24595596562500 
 C -1.29987979375000 -3.29992045937500 -1.67080596562500 
 N -0.164438793750000 -7.17011245937500 -2.58255096562500 
 N -2.27346379375000 -6.54475745937500 -3.68551596562500 
 N -2.80628379375000 -6.67651645937500 0.150075034374999 
 N -0.379666793750000 -3.56820345937500 -2.61303696562500 
 N -2.56403779375000 -2.75475445937500 -3.60141196562500 
 N -2.90053579375000 -3.12182245937500 0.277308034374999 
 S -0.718898793750000 -7.01321345937500 -4.13617996562500 
 S -3.72512479375000 -6.39599445937500 -1.31008696562500 
 S -1.27784079375000 -7.32251545937500 -7.038496562500085E-002
 S -1.00144979375000 -3.05347945937500 -4.03825096562500 
 S -3.70592379375000 -2.58081945937500 -1.07447496562500 
 S -1.28761479375000 -3.24364845937500 6.391403437499910E-002
