16

 C -2.38490021875000 -6.62678475937500 -2.25521066562500 
 C -1.15684921875000 -6.96083075937500 -1.61526566562500 
 C -2.40839621875000 -2.63424775937500 -2.49184966562500 
 C -1.11839221875000 -3.10248275937500 -2.03018866562500 
 N -0.131530218749999 -7.01252975937500 -2.44341466562500 
 N -2.32602521875000 -6.35464675937500 -3.56798466562500 
 N -2.87615221875000 -6.69319575937500 0.225481334374999 
 N -0.238426218749999 -3.39769875937500 -2.94567466562500 
 N -2.36689921875000 -2.41871575937500 -3.79484266562500 
 N -2.64102521875000 -3.00411375937500 6.958334374998820E-003
 S -0.686192218749999 -6.60735675937500 -3.97518766562500 
 S -3.78286121875000 -6.58799575937500 -1.12927666562500 
 S -1.24644921875000 -7.11228075937500 9.368133437499870E-002
 S -0.887371218749998 -2.88192675937500 -4.39198666562500 
 S -3.55987221875000 -2.40880075937500 -1.21565366562500 
 S -1.05657721875000 -3.50514775937500 -0.355179665625001 
