16

 C -2.50747352812501 -6.71267324375000 -2.29311580625000 
 C -1.27536752812501 -7.06932124375000 -1.74640780625000 
 C -2.29866652812501 -3.14388524375000 -2.32522680625000 
 C -1.05188052812501 -3.61909424375000 -1.74311980625000 
 N -0.329174528125009 -7.27988724375000 -2.67579480625000 
 N -2.57013152812501 -6.72721924375000 -3.61402180625000 
 N -2.87470352812501 -6.77469024375000 0.218071193750001 
 N -8.501452812500876E-002 -3.85019524375000 -2.62160580625000 
 N -2.20200652812501 -2.94969624375000 -3.61220780625000 
 N -2.73595952812501 -3.38174724375000 0.196892193750001 
 S -1.01058052812501 -6.97941924375000 -4.14793880625000 
 S -3.71795552812501 -6.40702624375000 -1.17424580625000 
 S -1.29925352812501 -7.13158724375000 1.874219375000097E-002
 S -0.642701528125009 -3.41973524375000 -4.08112280625000 
 S -3.57847152812501 -2.87006624375000 -1.14514980625000 
 S -1.14019252812501 -3.84263724375000 3.987193750001339E-003
