16

 C -2.13054236562500 -6.78037512187500 -2.49945376562500 
 C -1.00025236562500 -7.32975412187500 -1.80770676562500 
 C -2.55356136562500 -2.58752212187500 -2.57690576562500 
 C -1.35760936562500 -3.09164812187500 -1.88623076562500 
 N -8.224336562499612E-002 -7.74488912187500 -2.66988876562500 
 N -2.05814536562500 -6.80995412187500 -3.85876276562500 
 N -2.73613936562500 -6.63078512187500 3.624423437499780E-002
 N -0.321616365624996 -3.38810912187500 -2.69240276562500 
 N -2.40819536562500 -2.51931012187500 -3.88806476562500 
 N -3.18724336562500 -2.79511412187500 -8.162876562500232E-002
 S -0.572975365624996 -7.45507312187500 -4.25527176562500 
 S -3.48930236562500 -6.39398112187500 -1.40424476562500 
 S -1.28270936562500 -7.42184212187500 -1.517576562500222E-002
 S -0.910518365624996 -3.16844912187500 -4.24617476562500 
 S -3.92918836562500 -2.41579812187500 -1.52048076562500 
 S -1.49021236562500 -3.10218012187500 -0.128525765625002 
