16

 C -2.28477927812500 -6.47555157187500 -2.24466679062500 
 C -1.08399827812500 -6.98820757187501 -1.62780179062500 
 C -2.34843427812500 -2.60052457187500 -2.50894579062500 
 C -1.13996827812500 -3.25367757187500 -2.04160279062500 
 N -0.125988278125001 -7.18950557187500 -2.54650079062500 
 N -2.28791627812500 -6.22298457187500 -3.55460979062500 
 N -2.82968127812500 -6.67421957187501 0.343472209375000 
 N -0.152318278125001 -3.40014457187500 -2.97110679062500 
 N -2.30581027812500 -2.27582157187500 -3.81322379062500 
 N -2.72984027812500 -3.14783857187500 2.776820937500046E-002
 S -0.755356278125000 -6.72674457187500 -4.01805979062500 
 S -3.62424027812500 -6.46701557187500 -1.14240079062500 
 S -1.24369127812500 -7.16098657187500 8.932720937500038E-002
 S -0.890748278125001 -2.79406657187501 -4.37361179062500 
 S -3.52170927812500 -2.42161057187500 -1.21102279062500 
 S -1.14266127812500 -3.48941057187500 -0.246731790625000 
