16

 C -2.34964800625000 -6.63145583750000 -2.21378416562500 
 C -1.10304200625000 -7.03193383750000 -1.64603216562500 
 C -2.36735300625000 -2.83202783750000 -2.46364916562500 
 C -1.16177400625000 -3.12614783750000 -1.71015116562500 
 N -8.231600625000013E-002 -7.13026383750000 -2.51557616562500 
 N -2.26380800625000 -6.35003683750000 -3.49001016562500 
 N -2.90371800625000 -6.95612183750000 0.228733834375000 
 N -0.128124006250000 -3.33723983750000 -2.53813316562500 
 N -2.17633000625000 -2.67960883750000 -3.77868216562500 
 N -3.09258100625000 -3.03823983750000 3.767483437500041E-002
 S -0.705180006250000 -6.72119283750000 -4.01615916562500 
 S -3.74591700625000 -6.70408483750000 -1.13360716562500 
 S -1.25338200625000 -7.33055283750000 0.123885834375000 
 S -0.640518006250000 -3.08427383750000 -4.14673516562500 
 S -3.75324900625000 -2.62236383750000 -1.40610416562500 
 S -1.38325400625000 -3.11503383750000 3.124583437500039E-002
