16

 C -2.31990061250000 -6.28077276562500 -2.37308582187500 
 C -1.10949061250000 -6.88596476562500 -1.72518682187500 
 C -2.62870761250000 -2.74052876562500 -2.63118182187500 
 C -1.38498761250000 -3.02153576562500 -1.95704582187500 
 N -0.130684612500003 -7.20568476562500 -2.56565282187500 
 N -2.22225961250000 -6.26236176562500 -3.70155882187500 
 N -2.73683061250000 -6.16758176562500 0.134952178124998 
 N -0.329109612500003 -3.08081676562500 -2.75819082187500 
 N -2.53445261250000 -2.63942376562500 -3.96954482187500 
 N -3.15213861250000 -2.83931176562500 -8.683482187500169E-002
 S -0.666448612500003 -6.77124476562500 -4.05658482187500 
 S -3.61629561250000 -6.04861376562500 -1.32612382187500 
 S -1.24431161250000 -6.96809576562500 4.189917812499822E-002
 S -0.935766612500003 -3.00418876562500 -4.27458082187500 
 S -3.89356961250000 -2.38961676562500 -1.51131382187500 
 S -1.54054561250000 -3.18627676562500 -0.194397821875002 
