16

 C -2.39577786250000 -6.46346886562500 -2.42505915312500 
 C -1.13140886250000 -6.68318986562500 -1.75715915312500 
 C -2.57408886250000 -2.73605086562500 -2.48088015312500 
 C -1.40372286250000 -3.28323986562500 -1.83464015312500 
 N -6.058186250000208E-002 -6.88959886562500 -2.53308215312500 
 N -2.30175786250000 -6.48684386562500 -3.75474915312500 
 N -2.98894586250000 -6.49266086562500 0.104934846874998 
 N -0.389023862500002 -3.43289686562500 -2.66039215312500 
 N -2.44579986250000 -2.61704786562500 -3.77665615312500 
 N -3.18836586250000 -2.91438286562500 -7.716515312500194E-002
 S -0.677349862500002 -6.78556386562500 -4.09952015312500 
 S -3.77609086250000 -6.24999286562500 -1.33930215312500 
 S -1.38994686250000 -6.90461386562500 -5.212315312500193E-002
 S -0.939755862500002 -3.16853386562500 -4.20666915312500 
 S -3.95273986250000 -2.45106286562500 -1.46476015312500 
 S -1.65612986250000 -3.39978486562500 -0.174012153125002 
