16

 C -2.68863923125000 -6.26720827187500 -2.27943236250000 
 C -1.47739623125000 -6.75677627187500 -1.67891336250000 
 C -2.34851023125000 -2.67782827187500 -2.44068336250000 
 C -1.17620623125000 -3.03652527187500 -1.74089236250000 
 N -0.487963231249998 -6.95383627187500 -2.54695136250000 
 N -2.59682823125000 -6.18010527187500 -3.59200736250000 
 N -3.12931523125000 -6.38613627187500 0.191810637499999 
 N -0.163868231249999 -3.25249027187500 -2.56053336250000 
 N -2.24741323125000 -2.62199927187500 -3.73577036250000 
 N -3.04107023125000 -2.79826627187500 -2.200636250000110E-002
 S -1.06415823125000 -6.66155127187500 -4.05300236250000 
 S -3.93506823125000 -5.88689827187500 -1.22396036250000 
 S -1.57028823125000 -6.93685927187500 6.760163749999881E-002
 S -0.680623231249998 -3.02168927187500 -4.07598436250000 
 S -3.74661923125000 -2.31847827187500 -1.45889836250000 
 S -1.38609623125000 -3.13939727187500 -1.691236250000117E-002
