16

 C -2.34275103125000 -6.50342536562500 -2.53803431250000 
 C -1.14556203125000 -6.84499836562500 -1.85874331250000 
 C -2.49296303125000 -2.60972936562500 -2.36519831250000 
 C -1.28937903125000 -3.05742436562500 -1.64074731250000 
 N -0.110894031250003 -6.88431936562500 -2.67431431250000 
 N -2.28752003125000 -6.30268036562500 -3.86744831250000 
 N -2.96734303125000 -6.91517936562500 -4.282531249999932E-002
 N -0.252760031250003 -3.39369936562500 -2.39269831250000 
 N -2.33748003125000 -2.52491036562500 -3.67792931250000 
 N -3.28362603125000 -2.77241536562500 6.972968750000041E-002
 S -0.716802031250003 -6.52369936562500 -4.19188631250000 
 S -3.73186003125000 -6.56980136562500 -1.49557031250000 
 S -1.33510503125000 -7.28964236562500 -0.187683312499999 
 S -0.755521031250002 -3.04419936562500 -3.92273131250000 
 S -3.86971303125000 -2.28439836562500 -1.44054431250000 
 S -1.65576203125000 -3.20024036562500 3.740768750000045E-002
