16

 C -2.34404920625000 -6.47132748749999 -2.37273098125000 
 C -1.10804320625000 -6.93004648749999 -1.72406598125000 
 C -2.58834620625000 -2.70003648749999 -2.56390298125000 
 C -1.32232220625000 -3.01076948749999 -1.94771998125000 
 N -9.704420624999521E-002 -7.27497248749999 -2.54195198125000 
 N -2.13505020625000 -6.26121248749999 -3.65961098125000 
 N -2.86891820625000 -6.23176348749999 0.101407018750002 
 N -0.279973206249996 -3.18120648749999 -2.74217398125000 
 N -2.51044420625000 -2.64758048749999 -3.89585598125000 
 N -3.14703620625000 -2.89330848749999 -9.542798124999807E-002
 S -0.669924206249996 -6.83199248749999 -4.07966798125000 
 S -3.58039520625000 -6.04601548749999 -1.36376598125000 
 S -1.33953020625000 -6.82592848749999 2.649701875000177E-002
 S -0.918479206249995 -2.85198448749999 -4.26558598125000 
 S -3.96409720625000 -2.53407348749999 -1.48380998125000 
 S -1.47824920625000 -3.11150448749999 -0.235616981249998 
