16

 C -2.30602761562499 -6.28602910625000 -2.34487796562500 
 C -1.09014561562499 -6.72162210625000 -1.74406696562500 
 C -2.61286061562499 -2.56890810625000 -2.56703096562500 
 C -1.49617461562499 -3.16667610625000 -1.86859896562500 
 N -0.134715615624988 -6.97706410625000 -2.64932296562500 
 N -2.28598361562499 -6.15303910625000 -3.65434396562500 
 N -2.86794561562499 -6.69242510625000 5.806103437499988E-002
 N -0.466520615624988 -3.48849510625000 -2.62757896562500 
 N -2.41528061562499 -2.42111510625000 -3.88259896562500 
 N -3.21695161562499 -2.67257910625000 -4.989096562500017E-002
 S -0.769791615624988 -6.52846410625000 -4.13284296562500 
 S -3.54518761562499 -5.93518610625000 -1.23912896562500 
 S -1.20101361562499 -7.09772710625000 -2.380196562500014E-002
 S -0.938314615624988 -3.12159910625000 -4.19413296562500 
 S -3.88781461562499 -2.14402510625000 -1.51962796562500 
 S -1.61919861562499 -3.12549810625000 -0.130747965625000 
