16

 C -2.57686623125000 -6.50966250312500 -2.33795274687500 
 C -1.33101023125000 -6.93803050312500 -1.74889774687500 
 C -2.55970723125000 -3.14724950312500 -2.45877174687500 
 C -1.26749223125000 -3.41171350312500 -1.83530474687500 
 N -0.310671231250004 -7.01648750312500 -2.60337374687500 
 N -2.43987323125000 -6.18328450312500 -3.63254774687500 
 N -3.05869623125000 -6.78221850312500 0.151514253125001 
 N -0.265888231250003 -3.44564350312500 -2.65132574687500 
 N -2.49505423125000 -2.87356750312500 -3.76936974687500 
 N -2.97415923125000 -3.29787650312500 0.109497253125001 
 S -0.869176231250004 -6.60501050312500 -4.06628674687500 
 S -3.81865723125000 -6.26395350312500 -1.20642974687500 
 S -1.42121223125000 -7.04977950312500 -2.175746874999440E-003
 S -0.873950231250004 -3.03228050312500 -4.14173174687500 
 S -3.90778623125000 -3.05864650312500 -1.26564074687500 
 S -1.40525723125000 -3.75605950312500 -0.102657746874999 
