16

 C -2.29864588437500 -6.50640980312499 -2.22324767500000 
 C -1.14584788437500 -7.04145780312499 -1.51450567500000 
 C -2.43951788437500 -2.71028280312499 -2.36270367500000 
 C -1.17872288437500 -3.15708180312499 -1.69174467500000 
 N -6.561588437500454E-002 -7.21814080312499 -2.26635767500000 
 N -2.14032588437500 -6.31570080312499 -3.51041667500000 
 N -3.06082888437500 -6.74701980312499 0.229254324999999 
 N -0.185206884375004 -3.20806580312499 -2.56241767500000 
 N -2.29485588437500 -2.41985480312499 -3.65442567500000 
 N -2.98445188437500 -3.19412980312499 0.131811324999999 
 S -0.530586884375004 -6.76288480312499 -3.84670767500000 
 S -3.71309288437500 -6.23438480312499 -1.21611667500000 
 S -1.43841188437500 -7.22884680312499 0.271676324999999 
 S -0.642599884375004 -2.67420780312499 -4.05216367500000 
 S -3.77840288437500 -2.68113280312499 -1.26818467500000 
 S -1.38284188437500 -3.68108180312499 -7.184867500000092E-002
