16

 C -2.49842869062499 -6.55782457187501 -2.28291293125000 
 C -1.28847669062499 -7.16830257187501 -1.75987193125000 
 C -2.66921569062499 -2.55381557187501 -2.41007993125000 
 C -1.65029269062499 -3.23976157187501 -1.66115593125000 
 N -0.259940690624993 -7.33905957187501 -2.61681093125000 
 N -2.41380269062499 -6.27370757187501 -3.58620693125000 
 N -3.00373869062499 -6.95439957187501 0.239841068749999 
 N -0.589411690624994 -3.64632757187501 -2.37723193125000 
 N -2.41167169062499 -2.32963857187501 -3.70699893125000 
 N -3.43847769062499 -2.50317257187501 0.111490068749999 
 S -0.866690690624994 -6.79999457187501 -4.06591693125000 
 S -3.76356869062499 -6.48702157187501 -1.12531693125000 
 S -1.44467869062499 -7.46004057187501 -7.386693125000066E-002
 S -0.938349690624993 -2.99234557187501 -3.93418693125000 
 S -4.04913069062499 -2.00543257187501 -1.32737093125000 
 S -1.99654969062499 -3.36315057187501 5.519606874999927E-002
