16

 C -2.41045261875000 -6.53427430312500 -2.43089543750000 
 C -1.12401261875000 -6.83919430312500 -1.81176843750000 
 C -2.40002961875000 -3.13695130312500 -2.19898943750000 
 C -1.07525061875000 -3.32430130312500 -1.71686743750000 
 N -5.036161875000378E-002 -6.94009130312500 -2.61752443750000 
 N -2.27933861875000 -6.28016830312500 -3.71771443750000 
 N -2.93851461875000 -6.64072330312500 0.188172562500002 
 N -0.139599618750004 -3.39487830312500 -2.67157943750000 
 N -2.58904161875000 -3.07340730312500 -3.51542743750000 
 N -2.59975261875000 -3.35857030312500 0.405141562500002 
 S -0.670937618750004 -6.60845130312500 -4.14625443750000 
 S -3.72097661875000 -6.30558530312500 -1.22890243750000 
 S -1.30647561875000 -7.00485330312500 -5.907843749999753E-002
 S -1.02159161875000 -3.14168230312500 -4.06228443750000 
 S -3.58994061875000 -3.24227430312500 -0.879518437499998 
 S -0.938651618750003 -3.47615630312500 9.845556250000231E-002
