16

 C -2.29446926250000 -6.24974068437500 -2.23325008437500 
 C -1.13723426250000 -6.79024868437500 -1.52113908437500 
 C -2.36589826250000 -2.46586268437500 -2.12927308437500 
 C -1.14799026250000 -3.07089568437500 -1.58158508437500 
 N -8.954526250000239E-002 -6.90553168437500 -2.33272808437500 
 N -2.12165426250000 -6.02324968437500 -3.53173408437500 
 N -3.01583126250000 -6.46852368437500 0.297608915625003 
 N -9.790326250000181E-002 -3.13439468437500 -2.40780108437500 
 N -2.18501626250000 -2.15744968437500 -3.40232608437500 
 N -2.91295626250000 -3.23464668437500 0.242343915625003 
 S -0.569189262500002 -6.52148268437500 -3.90399708437500 
 S -3.72351926250000 -6.11146768437500 -1.16617108437500 
 S -1.52979926250000 -7.11006968437500 0.140243915625003 
 S -0.652582262500002 -2.44467368437500 -3.87419908437500 
 S -3.67701026250000 -2.45948168437500 -1.03447608437500 
 S -1.36180326250000 -3.75311268437500 3.403391562500335E-002
