16

 C -2.55243339062500 -6.52303059062500 -2.32759876875000 
 C -1.33090839062500 -6.86963559062500 -1.68118976875000 
 C -2.18661939062500 -3.03312459062500 -2.32246876875000 
 C -1.03950139062500 -3.53703859062500 -1.70619176875000 
 N -0.376638390624999 -7.12552659062500 -2.56404276875000 
 N -2.51011539062500 -6.43792259062500 -3.66077176875000 
 N -3.00193039062500 -6.51771459062500 0.182497231250000 
 N 5.603960937500219E-002 -3.56271159062500 -2.43208676875000 
 N -1.92613739062500 -2.65046559062500 -3.55355076875000 
 N -2.83386439062500 -3.33691659062500 6.181823124999952E-002
 S -0.957917390624998 -6.79682259062500 -4.06618976875000 
 S -3.85736239062500 -6.26066059062500 -1.25056676875000 
 S -1.39207739062500 -7.04846259062500 -1.130768750000399E-003
 S -0.366641390624999 -3.02589759062500 -3.98073276875000 
 S -3.55490539062500 -2.79964259062500 -1.33266176875000 
 S -1.35000739062500 -3.96217959062500 -4.942276875000062E-002
