16

 C -2.47972575000000 -6.37524358749999 -2.27744667187500 
 C -1.29548975000000 -6.90291658749999 -1.67235267187500 
 C -2.63643374999999 -3.13368858749999 -2.50545167187500 
 C -1.38294475000000 -3.36225858749999 -1.81810767187500 
 N -0.308928749999995 -7.07396158749999 -2.53866867187500 
 N -2.45245975000000 -6.15056258749999 -3.57584667187500 
 N -3.07331375000000 -6.58555458749999 0.178614328124999 
 N -0.299790749999995 -3.39283558749999 -2.58873367187500 
 N -2.47422374999999 -2.90324258749999 -3.82552567187500 
 N -3.12555674999999 -3.06880158749999 0.129792328124999 
 S -0.931524749999995 -6.66392758749999 -4.07186267187500 
 S -3.87517675000000 -6.12572758749999 -1.20319367187500 
 S -1.47408675000000 -7.05779258749999 2.554032812499862E-002
 S -0.892221749999996 -3.16163258749999 -4.14769867187500 
 S -3.91076275000000 -2.99752358749999 -1.27538567187500 
 S -1.53015875000000 -3.52477658749999 -7.001267187500138E-002
