16

 C -2.40613488750000 -6.47593498437500 -2.54573338125000 
 C -1.18392888750000 -6.87532798437500 -1.95424138125000 
 C -2.55451788750000 -2.51836798437500 -2.34961738125000 
 C -1.47204888750000 -3.11308698437500 -1.64129838125000 
 N -0.122244887500002 -6.96503198437500 -2.73163738125000 
 N -2.25380788750000 -6.20466398437500 -3.83045338125000 
 N -2.95586888750000 -6.86107398437500 -0.100459381249999 
 N -0.441211887500002 -3.39812998437500 -2.38613338125000 
 N -2.32401288750000 -2.41819198437500 -3.65469938125000 
 N -3.26468888750000 -2.88613298437500 4.938461875000111E-002
 S -0.637674887500002 -6.56683598437500 -4.26349438125000 
 S -3.82423188750000 -6.53277798437500 -1.49270638125000 
 S -1.31635488750000 -7.23119798437500 -0.237206381249999 
 S -0.833088887500002 -3.05376798437500 -3.96309638125000 
 S -3.96238088750000 -2.22805898437500 -1.34615938125000 
 S -1.66732788750000 -3.22916798437500 8.824961875000104E-002
