16

 C -2.44611319375000 -6.75760052812499 -2.40095378125000 
 C -1.19666319374999 -7.16172552812499 -1.72763478125000 
 C -2.76100519374999 -3.27682152812499 -2.08178378125000 
 C -1.47859219374999 -3.52404752812499 -1.39072978125000 
 N -0.155998193749995 -7.14581852812499 -2.55808678125000 
 N -2.41538519375000 -6.52660052812499 -3.71062878125000 
 N -2.87547119374999 -6.88080052812499 0.192995218750000 
 N -0.399382193749995 -3.53912952812499 -2.15601878125000 
 N -2.54718219374999 -3.01237752812499 -3.36736078125000 
 N -3.33381919374999 -3.27232652812499 0.415526218750000 
 S -0.774588193749995 -6.71711352812499 -4.02646578125000 
 S -3.68942319375000 -6.42924952812499 -1.19228778125000 
 S -1.25043819374999 -7.19833352812499 1.016921875000021E-002
 S -0.940468193749995 -3.30992552812499 -3.69789978125000 
 S -4.11375119374999 -3.21255552812499 -1.02086578125000 
 S -1.72611919375000 -3.63333852812499 0.308075218750000 
