16

 C -2.40711158124999 -6.44933649999999 -2.19529111250000 
 C -1.22435558124999 -6.95199949999999 -1.59229211250000 
 C -2.18477158124999 -2.53827349999999 -2.55708311250000 
 C -1.03721958124999 -2.94957449999999 -1.86115911250000 
 N -0.202765581249994 -7.03915349999999 -2.45570411250000 
 N -2.35526758124999 -6.10757249999999 -3.48551711250000 
 N -2.86959158124999 -6.77898549999999 0.320684887500000 
 N -7.708581249994850E-003 -3.27845749999999 -2.59904311250000 
 N -1.98501058124999 -2.50900649999999 -3.86567711250000 
 N -2.97022258124999 -2.91619249999999 -0.161085112500000 
 S -0.813473581249995 -6.68397149999999 -3.93940911250000 
 S -3.73782958124999 -6.42689449999999 -0.992028112500000 
 S -1.32788958124999 -7.41386249999999 2.615888749999984E-002
 S -0.399415581249994 -2.90549749999999 -4.20258511250000 
 S -3.60793158124999 -2.33429849999999 -1.61601211250000 
 S -1.33433158124999 -3.09408149999999 -0.151801112500000 
