16

 C -2.34317628750000 -6.53944403125000 -2.58290160312500 
 C -1.08425828750000 -6.85135703125000 -1.91216760312500 
 C -2.54341328750000 -2.48280403125000 -2.63156860312500 
 C -1.47914028750000 -3.03900103125000 -1.81380060312500 
 N 2.142971250000514E-002 -6.97476503125000 -2.66503560312500 
 N -2.13653228750000 -6.24042703125000 -3.85077960312500 
 N -2.89177928750000 -6.51056903125000 2.730439687499975E-002
 N -0.374341287499996 -3.32932703125000 -2.50882760312500 
 N -2.27720028750000 -2.31736603125000 -3.93890660312500 
 N -3.41926328750000 -2.86941903125000 -0.230010603125000 
 S -0.550469287499996 -6.53156603125000 -4.19558360312500 
 S -3.73374228750000 -6.28269303125000 -1.48316960312500 
 S -1.28398328750000 -6.83993303125000 -7.672860312500029E-002
 S -0.650090287499996 -2.78364703125000 -4.07968060312500 
 S -3.92717728750000 -2.34816503125000 -1.70895260312500 
 S -1.83806328750000 -3.22294303125000 -0.166978603125000 
