16

 C -2.41239477500000 -6.38514614375000 -2.36765815937500 
 C -1.21733377500000 -6.84714514375000 -1.68458115937500 
 C -2.22529077500000 -2.42682214375000 -2.06478715937500 
 C -1.10477977500000 -3.27363014375000 -1.67835615937500 
 N -0.163373774999999 -7.11592314375000 -2.44569415937500 
 N -2.18265977500000 -6.27242814375000 -3.68224315937500 
 N -3.05891877500000 -6.61685614375000 0.181023840625002 
 N -0.188157775000000 -3.37100114375000 -2.63761515937500 
 N -2.16777577500000 -1.93479314375000 -3.30304515937500 
 N -2.87673277500000 -3.38907814375000 0.197510840625002 
 S -0.599743774999999 -6.70362914375000 -3.98225915937500 
 S -3.74570877500000 -6.17965814375000 -1.22636315937500 
 S -1.41946777500000 -6.99654514375000 4.803284062500168E-002
 S -0.650611775000000 -2.40689914375000 -3.86742315937500 
 S -3.59169277500000 -2.51942914375000 -1.01011715937500 
 S -1.22100977500000 -3.80934714375000 2.443184062500170E-002
