16

 C -2.18929030000001 -6.36991750312500 -2.60671751250000 
 C -1.08013130000001 -6.95105250312500 -1.90195151250000 
 C -2.66732430000001 -2.41097650312500 -2.40331651250000 
 C -1.59570930000001 -3.12051850312500 -1.74387951250000 
 N -0.112579300000006 -7.33068450312500 -2.71539351250000 
 N -2.01023230000001 -6.21545750312500 -3.93918451250000 
 N -2.81308030000001 -6.52748450312500 -7.099951250000047E-002
 N -0.522078300000007 -3.36328550312500 -2.48973451250000 
 N -2.40770630000001 -2.18747650312500 -3.68397651250000 
 N -3.33562230000001 -2.43354250312500 7.998848749999965E-002
 S -0.503574300000007 -6.84793350312500 -4.23919451250000 
 S -3.56077230000001 -6.15467250312500 -1.49006651250000 
 S -1.30707130000001 -7.22296050312500 -0.229630512500000 
 S -0.935060300000007 -2.81741750312500 -4.01381551250000 
 S -4.04936230000001 -2.07633250312500 -1.36058451250000 
 S -1.77671530000001 -3.11907750312500 5.450148749999961E-002
