16

 C -2.21823604062499 -6.18162267500001 -2.45499390312500 
 C -1.09879904062499 -6.86793567500001 -1.88229590312500 
 C -2.28047204062499 -2.89958767500001 -2.34808590312500 
 C -1.00995204062499 -3.44801067500001 -1.82296490312500 
 N -0.103177040624987 -7.12943467500001 -2.70749390312500 
 N -2.06344104062499 -5.99373667500001 -3.74703490312500 
 N -2.98076504062499 -6.79994267500001 -0.131565903125000 
 N -6.660804062498737E-002 -3.60737567500001 -2.74288490312500 
 N -2.15500704062499 -2.54710167500001 -3.62572990312500 
 N -2.65476904062499 -3.13182867500001 0.202508096875000 
 S -0.618912040624988 -6.58737067500001 -4.18554590312500 
 S -3.60593604062499 -6.11095267500001 -1.47969190312500 
 S -1.36871304062499 -7.15249467500001 -0.187023903125000 
 S -0.682322040624988 -3.04007467500001 -4.17820190312500 
 S -3.56156804062499 -2.69172167500001 -1.16483490312500 
 S -1.08168104062499 -3.70020967500001 -0.110976903125000 
