16

 C -2.25329346562500 -6.35292917500000 -2.38201709062500 
 C -1.01099946562500 -6.84212817500000 -1.79275009062500 
 C -2.58374846562500 -2.73128017500000 -2.25700309062500 
 C -1.37588846562500 -3.13139217500000 -1.68465509062500 
 N 1.910953437499607E-002 -6.98217017500000 -2.63508909062500 
 N -2.16259746562500 -6.11502017500001 -3.69768809062500 
 N -2.81100846562500 -6.69152917500000 0.120133909374997 
 N -0.385248465625004 -3.26701517500000 -2.54993109062500 
 N -2.49076046562500 -2.37065417500000 -3.53010409062500 
 N -3.03472946562500 -2.97880417500000 0.281360909374997 
 S -0.593998465625003 -6.54101217500000 -4.16882509062500 
 S -3.61622446562500 -6.30378017500000 -1.27792009062500 
 S -1.16009546562500 -6.97318617500000 -6.226090625003344E-003
 S -0.899280465625004 -2.69771317500000 -4.03046909062500 
 S -3.85606446562500 -2.54825117500000 -1.10681709062500 
 S -1.36960146562500 -3.22639817500000 4.295890937499669E-002
