16

 C -2.32671116874999 -6.31248925000000 -2.14974476250000 
 C -1.12982816874999 -6.91765525000000 -1.59278576250000 
 C -2.24304916874999 -2.76844525000000 -2.65118176250000 
 C -1.06006516874999 -3.10593925000000 -1.89729476250000 
 N -0.148149168749992 -7.01123825000000 -2.45696176250000 
 N -2.35791916874999 -6.09431325000000 -3.48490876250000 
 N -2.88900016874999 -6.93537325000000 0.339574237499999 
 N 5.865383125000889E-002 -3.21516225000000 -2.64241476250000 
 N -2.04480816874999 -2.64200025000000 -3.95866376250000 
 N -2.89462016874999 -2.64750025000000 -0.156748762500001 
 S -0.756545168749992 -6.45222925000000 -3.89822376250000 
 S -3.72945316874999 -6.44361225000000 -0.984198762500000 
 S -1.31300416874999 -7.45508225000000 6.076523749999962E-002
 S -0.453333168749992 -3.03650625000000 -4.22018776250000 
 S -3.58487016874999 -2.29359525000000 -1.63263476250000 
 S -1.30557516874999 -3.19819825000000 -0.168464762500000 
