16

 C -2.35519756875000 -6.21400307500000 -2.38473622812500 
 C -1.31081356875000 -6.95845907500000 -1.76319422812500 
 C -2.56507856875000 -2.38517107500000 -2.45801922812500 
 C -1.45641056875000 -3.02524707500000 -1.77584522812500 
 N -0.347045568749995 -7.23344907500000 -2.61267622812500 
 N -2.19041356875000 -5.92864407500000 -3.65399422812500 
 N -3.19560256874999 -6.63943307500000 1.245977187500191E-002
 N -0.353914568749995 -3.30371607500000 -2.52834322812500 
 N -2.32910856875000 -2.25024907500000 -3.77294722812500 
 N -3.24144656875000 -2.58881007500000 3.509977187500191E-002
 S -0.668974568749995 -6.50565507500000 -4.08223322812500 
 S -3.77570356874999 -5.95759307500000 -1.42361522812500 
 S -1.63787456874999 -7.21021307500000 -9.406822812499804E-002
 S -0.770243568749995 -2.87728007500000 -4.04018822812500 
 S -3.95464656874999 -2.07971407500000 -1.41246622812500 
 S -1.66959756875000 -3.16317907500000 -4.917922812499809E-002
