16

 C -2.42020517812499 -6.67957440625000 -2.42045507812500 
 C -1.08914117812499 -7.03003040625000 -1.97294907812500 
 C -2.46061017812499 -2.90863040625000 -2.45630607812500 
 C -1.35616017812499 -3.53883940625000 -1.77024907812500 
 N -0.174802178124994 -7.03043540625000 -2.92827207812500 
 N -2.48508217812499 -6.43734340625000 -3.72597407812500 
 N -2.72961117812499 -7.21098040625000 3.926892187500175E-002
 N -0.292430178124994 -3.72153240625000 -2.50426407812500 
 N -2.26483517812499 -2.69693640625000 -3.74145707812500 
 N -3.16912617812499 -3.10284740625000 -3.854707812499814E-002
 S -0.993241178124994 -6.69691340625000 -4.30127307812500 
 S -3.62069817812499 -6.73511640625000 -1.24543807812500 
 S -1.08307617812499 -7.34418340625000 -0.262444078124998 
 S -0.764058178124994 -3.20523840625000 -4.07360007812500 
 S -3.80932117812499 -2.65839440625000 -1.47826107812500 
 S -1.62541117812499 -3.71660840625000 -0.110852078124998 
