16

 C -2.48970674062500 -6.82571480937500 -2.28207044062500 
 C -1.19027474062500 -7.17265480937500 -1.79236744062500 
 C -2.60777874062500 -2.71161680937500 -2.38052944062500 
 C -1.39555274062501 -3.36511580937500 -1.79734344062500 
 N -0.287092740625005 -7.35984180937500 -2.75080444062500 
 N -2.60718574062501 -6.71724480937500 -3.58524644062500 
 N -2.67700974062500 -6.97793380937500 0.284891559375000 
 N -0.445292740625005 -3.52307880937500 -2.72104744062500 
 N -2.50396974062500 -2.49301980937500 -3.67068044062500 
 N -3.18903074062500 -3.27616580937500 1.703355937499973E-002
 S -1.06408874062500 -7.04110680937500 -4.21170644062500 
 S -3.63412474062500 -6.79622080937500 -1.04100144062500 
 S -1.10108074062500 -7.32273780937500 -3.720044062500039E-002
 S -0.950756740625005 -2.97697080937500 -4.14215244062500 
 S -3.95040874062500 -2.62023680937500 -1.27268144062500 
 S -1.55705174062500 -3.48694080937500 -8.645244062500002E-002
