16

 C -2.31722310312500 -6.56732274687500 -2.42584849062500 
 C -1.09545910312500 -6.81587374687500 -1.73724349062500 
 C -2.46298510312500 -3.28883974687500 -2.29679949062500 
 C -1.20004810312500 -3.48034174687500 -1.64261349062500 
 N -5.291210312500283E-002 -6.98919574687500 -2.55820349062500 
 N -2.20369510312500 -6.51289974687500 -3.73279749062500 
 N -2.99621710312500 -6.65901874687500 3.514650937499941E-002
 N -0.112025103125003 -3.61981374687500 -2.45629649062500 
 N -2.37806110312500 -3.26749474687500 -3.63171749062500 
 N -2.97085810312500 -3.37787374687500 0.261641509375000 
 S -0.619882103125003 -6.86993274687500 -4.10194849062500 
 S -3.73476410312500 -6.31696374687500 -1.44528349062500 
 S -1.36605610312500 -6.94183274687500 -3.654149062500034E-002
 S -0.748566103125003 -3.52159174687500 -3.96995149062500 
 S -3.79138210312500 -3.33703174687500 -1.15519249062500 
 S -1.31466710312500 -3.53376074687500 0.112394509375000 
