16

 C -2.52789790625000 -6.28195380000000 -2.28243865000000 
 C -1.25204990625000 -6.60252780000000 -1.69241665000000 
 C -2.43287390625000 -2.52875280000000 -2.89851865000000 
 C -1.23411190625000 -2.78898180000000 -2.15815865000000 
 N -0.242609906250004 -6.73927980000000 -2.54611365000000 
 N -2.39851290625000 -6.04853680000000 -3.57886465000000 
 N -3.00818090625000 -6.87783980000000 0.171386350000000 
 N -0.197179906250004 -2.85097880000000 -2.99239365000000 
 N -2.34103390625000 -2.37466880000000 -4.25867865000000 
 N -3.13190490625000 -2.83243580000000 -0.415029650000000 
 S -0.864317906250004 -6.41144780000000 -4.05579265000000 
 S -3.85826190625000 -6.42395380000000 -1.28994165000000 
 S -1.37787890625000 -6.93937280000000 3.992635000000022E-002
 S -0.741717906250003 -2.57433280000000 -4.52998565000000 
 S -3.84968190625000 -2.50350180000000 -1.88610065000000 
 S -1.47933990625000 -3.10126280000000 -0.445535650000000 
