16

 C -2.47517103750001 -6.60957392500000 -2.47904244687500 
 C -1.17297503750001 -6.64695092500000 -1.81101044687500 
 C -2.43414103750001 -2.13244592500000 -2.69316644687500 
 C -1.44560803750001 -2.90811192500000 -2.02919844687500 
 N -0.103808037500007 -6.63141592500000 -2.57301044687500 
 N -2.32965303750001 -6.50635592500000 -3.78643344687500 
 N -3.05525603750001 -6.53931892500000 1.861755312500035E-002
 N -0.328356037500006 -3.17498892500000 -2.74557844687500 
 N -2.07917503750001 -1.78160192500000 -3.93598144687500 
 N -3.47887903750001 -2.65480092500000 -0.482410446875000 
 S -0.706447037500006 -6.46529292500000 -4.13773144687500 
 S -3.76929603750001 -6.37521892500000 -1.43155844687500 
 S -1.35934603750001 -6.78490192500000 -8.436344687499964E-002
 S -0.588234037500007 -2.52134392500000 -4.27250444687500 
 S -3.97983103750001 -1.83780992500000 -1.82618944687500 
 S -1.97140703750001 -3.37214892500000 -0.443202446875000 
