16

 C -2.28205499062500 -6.40148700312499 -2.34428973437500 
 C -1.20535599062500 -6.94278000312500 -1.60173773437500 
 C -2.52415799062500 -2.62550000312500 -2.62269473437500 
 C -1.25810399062500 -3.01305800312500 -2.04545973437500 
 N -0.126236990625002 -7.19736700312500 -2.33768173437500 
 N -2.00439399062500 -6.08547900312499 -3.64084173437500 
 N -2.91317899062500 -6.40702200312499 0.150478265624999 
 N -0.205256990625002 -3.07978600312500 -2.87271173437500 
 N -2.48737699062500 -2.43804400312500 -3.93923873437500 
 N -2.97736899062500 -3.00402800312500 -3.399973437500092E-002
 S -0.454587990625002 -6.66164400312500 -3.87301273437500 
 S -3.62050299062500 -5.86826700312499 -1.22546473437500 
 S -1.34508499062500 -6.96644400312500 9.758326562499908E-002
 S -0.889557990625002 -2.62450400312500 -4.33000673437500 
 S -3.76179999062500 -2.40421500312500 -1.38214673437500 
 S -1.37595799062500 -3.38927300312500 -0.309146734375001 
