16

 C -2.36355473750000 -6.57050562500001 -2.40105678437500 
 C -1.11884073750000 -6.93345162500001 -1.75974078437500 
 C -2.18293573750000 -2.64087262500001 -2.28880478437500 
 C -1.01362373750000 -3.22020362500001 -1.60907278437500 
 N -0.136533737500002 -6.95723362500001 -2.64295978437500 
 N -2.31383373750000 -6.39276062500001 -3.74968278437500 
 N -2.99250173750000 -6.82598762500001 0.124333215625002 
 N 4.210626249999727E-002 -3.51625662500001 -2.36637578437500 
 N -1.89355973750000 -2.38307162500001 -3.55857278437500 
 N -2.89157473750000 -3.17106262500001 0.125791215625002 
 S -0.750359737500003 -6.68155062500001 -4.15053978437500 
 S -3.74477373750000 -6.60802562500001 -1.25998178437500 
 S -1.36324573750000 -7.21975762500001 -5.246178437499793E-002
 S -0.324932737500003 -2.79031062500001 -3.85256478437500 
 S -3.51080973750000 -2.51606762500001 -1.24358278437500 
 S -1.28244173750000 -3.73255862500001 3.784721562500204E-002
