16

 C -2.39603025000001 -6.37460032500000 -2.54083704687500 
 C -1.12945325000001 -6.72300432500000 -1.92143004687500 
 C -2.74266425000001 -2.77331132500000 -2.29964804687500 
 C -1.55137425000001 -3.20242632500000 -1.71264004687500 
 N -0.160644250000006 -6.83803432500000 -2.82907704687500 
 N -2.38716225000001 -6.32641632499999 -3.88677004687500 
 N -2.82419825000001 -6.33616432500000 3.644795312500237E-002
 N -0.595123250000006 -3.55022132500000 -2.57724404687500 
 N -2.62078725000001 -2.59174932500000 -3.61039904687500 
 N -3.24242825000001 -2.93288232500000 0.200963953125002 
 S -0.858503250000006 -6.61451132500000 -4.32769104687500 
 S -3.72334425000001 -6.10715332500000 -1.35869004687500 
 S -1.18421025000001 -6.63674232500000 -0.177237046874998 
 S -1.13023425000001 -3.16487932500000 -4.06307204687500 
 S -4.06112225000001 -2.61275832500000 -1.22019804687500 
 S -1.63348825000001 -3.33590832500000 2.722953125002370E-003
