16

 C -2.19236140937500 -6.53800764687500 -2.29048762500000 
 C -0.968271409374998 -6.98357864687500 -1.68818462500000 
 C -2.55681540937500 -2.64061364687500 -2.48248662500000 
 C -1.27380340937500 -2.94137164687500 -1.80082262500000 
 N 0.112852590625002 -7.05969264687500 -2.49484462500000 
 N -2.03721540937500 -6.38922864687500 -3.62234662500000 
 N -2.63124140937500 -6.74870164687500 0.263392374999999 
 N -0.317735409374998 -3.05738764687500 -2.68710362500000 
 N -2.47242240937500 -2.48340164687500 -3.78907362500000 
 N -3.02741640937500 -2.73216664687500 7.719337499999890E-002
 S -0.488953409374997 -6.74477064687500 -3.98830462500000 
 S -3.45179840937500 -6.43340364687500 -1.14423162500000 
 S -1.06655840937500 -7.24356864687500 5.049037499999876E-002
 S -0.919308409374997 -2.80677464687500 -4.20316462500000 
 S -3.85917940937500 -2.45920664687500 -1.36592062500000 
 S -1.42446140937500 -3.03738264687500 -7.369362500000132E-002
