16

 C -2.49383424062500 -6.42279439062500 -2.52617513750000 
 C -1.25253024062500 -6.80941839062500 -1.86731113750000 
 C -2.70117524062500 -2.91444539062500 -2.53064813750000 
 C -1.58065824062500 -3.54886839062500 -1.89852113750000 
 N -0.175406240624997 -6.98108039062500 -2.64268613750000 
 N -2.32233324062500 -6.28245039062500 -3.83192913750000 
 N -3.18086924062500 -6.66762839062500 -4.316513749999773E-002
 N -0.528561240624997 -3.60481639062500 -2.69289413750000 
 N -2.56357624062500 -2.54830439062500 -3.79794913750000 
 N -3.35364624062500 -3.30923939062500 8.329862500002116E-003
 S -0.756642240624997 -6.68039039062500 -4.15181613750000 
 S -3.83596624062500 -6.18101639062500 -1.46200613750000 
 S -1.55198924062500 -7.00358539062500 -0.155170137499998 
 S -0.997053240624997 -3.11936439062500 -4.21582313750000 
 S -4.00464724062500 -2.81316539062500 -1.39789213750000 
 S -1.76902924062500 -3.76333939062500 -0.168440137499998 
