16

 C -2.42373645312500 -6.53210258437499 -2.35073875000000 
 C -1.20729145312500 -7.15120358437499 -1.88615175000000 
 C -2.59821945312500 -2.46629058437499 -2.40454975000000 
 C -1.60658645312500 -3.29794758437499 -1.64583675000000 
 N -0.281962453125002 -7.31806158437499 -2.79995775000000 
 N -2.42557945312500 -6.18409158437499 -3.62482875000000 
 N -2.86450245312500 -7.07660558437499 9.352024999999808E-002
 N -0.611359453125002 -3.79592158437499 -2.37482775000000 
 N -2.32124545312500 -2.35560558437499 -3.70959775000000 
 N -3.44286645312500 -2.57239158437499 2.734324999999815E-002
 S -0.898676453125002 -6.65479758437499 -4.20880575000000 
 S -3.71842345312500 -6.44861158437499 -1.19246675000000 
 S -1.24002545312500 -7.48427258437499 -8.695575000000177E-002
 S -1.01154545312500 -3.26612358437499 -3.94532175000000 
 S -3.99980345312500 -2.02103158437499 -1.44202075000000 
 S -1.87071445312500 -3.28486858437499 7.269924999999811E-002
