16

 C -2.37786938125000 -6.60550909062500 -2.35720451250000 
 C -1.09197038125000 -6.97356909062500 -1.76982951250000 
 C -2.22694338125000 -3.40479909062500 -2.23796651250000 
 C -1.02193738125000 -3.61127809062500 -1.53753651250000 
 N -0.111459381249995 -7.18148209062500 -2.65400051250000 
 N -2.31039038125000 -6.58975209062500 -3.67266351250000 
 N -2.82995638125000 -6.53690109062500 0.107353487500001 
 N 4.889261875000450E-002 -3.70471209062500 -2.33756951250000 
 N -2.12026938125000 -3.39212609062500 -3.59070051250000 
 N -2.81683438125000 -3.23236309062500 0.289656487500001 
 S -0.774831381249995 -6.91108409062500 -4.16594251250000 
 S -3.67028438125000 -6.35857909062500 -1.31588251250000 
 S -1.22630838125000 -6.90381009062500 -2.470451249999916E-002
 S -0.475513381249995 -3.63703809062500 -3.88767051250000 
 S -3.57323138124999 -3.17562109062500 -1.17046851250000 
 S -1.19839738125000 -3.58521209062500 0.176375487500001 
