16

 C -2.24307514062500 -6.38729193437500 -2.15067235312500 
 C -1.04557014062500 -6.95599493437500 -1.53443835312500 
 C -2.35286014062500 -2.71028193437500 -2.26593235312500 
 C -1.23664614062500 -3.30194193437500 -1.73029335312500 
 N -1.392214062499786E-002 -7.24793093437500 -2.32315035312500 
 N -2.10171914062500 -6.18163893437500 -3.43905435312500 
 N -2.85028714062500 -6.76051893437500 0.299259646875001 
 N -0.234250140624997 -3.39387993437500 -2.59235135312500 
 N -2.30713414062500 -2.29039993437500 -3.51701135312500 
 N -2.93575414062500 -3.14057993437500 0.198713646875001 
 S -0.575020140624997 -6.79747293437500 -3.85469135312500 
 S -3.61390814062500 -6.40123193437500 -1.11827635312500 
 S -1.25332414062500 -7.26144593437500 0.150808646875001 
 S -0.747090140624998 -2.77601493437500 -4.04329235312500 
 S -3.70165514062500 -2.61247193437500 -1.19641035312500 
 S -1.36405114062500 -3.61853193437500 -4.696435312499925E-002
