16

 C -2.23732995312500 -6.46845803125000 -2.43863309062500 
 C -0.963661953125005 -6.78346903125000 -1.82276309062500 
 C -2.58488595312500 -2.90196003125000 -2.53376709062500 
 C -1.43810995312500 -3.38550703125000 -1.75218909062500 
 N 7.757204687499453E-002 -6.90972703125000 -2.65543909062500 
 N -2.14552095312501 -6.15643703125000 -3.71728209062500 
 N -2.69153395312500 -6.72361803125000 0.100375909374999 
 N -0.382189953125005 -3.55540003125000 -2.55314909062500 
 N -2.36404495312500 -2.80142703125000 -3.83981409062500 
 N -3.28001995312500 -2.84968203125000 -7.351109062500094E-002
 S -0.546005953125005 -6.50247203125000 -4.15859409062500 
 S -3.54953095312500 -6.37730303125000 -1.29523909062500 
 S -1.01585695312501 -7.00338203125000 -6.212009062500079E-002
 S -0.720606953125005 -3.08301903125000 -4.11447709062500 
 S -3.90146495312500 -2.44753003125000 -1.55432909062500 
 S -1.68665795312500 -3.32917303125000 -5.485009062500068E-002
