16

 C -2.57665286562500 -6.50507841250000 -2.42073772500000 
 C -1.36964486562500 -6.95499741250000 -1.80415172500000 
 C -2.53689386562500 -2.69588141250000 -2.56543372500000 
 C -1.35438786562500 -3.18956241250000 -1.85060972500000 
 N -0.341673865624998 -7.18189741250000 -2.63270172500000 
 N -2.43491086562500 -6.25305541250000 -3.73776672500000 
 N -3.06608586562500 -6.89435141250000 8.659727499999992E-002
 N -0.221281865624998 -3.32230341250000 -2.55919172500000 
 N -2.32553886562500 -2.54692541250000 -3.86750272500000 
 N -3.20485286562500 -2.90954541250000 -5.143672500000007E-002
 S -0.836944865624998 -6.70834541250000 -4.10757172500000 
 S -3.91414386562500 -6.44887141250000 -1.29638772500000 
 S -1.43163686562500 -7.18737641250000 -9.380272500000020E-002
 S -0.774869865624998 -2.96382741250000 -4.13777372500000 
 S -3.97765786562500 -2.60498541250000 -1.51403472500000 
 S -1.57609286562500 -3.30367641250000 -9.532972500000003E-002
