16

 C -2.69681375624999 -6.72049709687500 -2.37343638125000 
 C -1.42783375624999 -7.00539109687500 -1.80664338125000 
 C -2.23008875624999 -3.05734309687500 -2.23118438125000 
 C -1.07896875624999 -3.47890409687500 -1.56048638125000 
 N -0.402519756249991 -7.23191909687500 -2.63191038125000 
 N -2.57437675624999 -6.58077909687499 -3.69775938125000 
 N -3.09368175624999 -6.78282509687500 0.127022618750001 
 N -1.399075624999124E-002 -3.61755009687500 -2.34385738125000 
 N -2.10259675624999 -2.97536709687500 -3.54258838125000 
 N -2.88941775624999 -3.31981009687500 0.201344618750001 
 S -1.02917275624999 -6.99298709687500 -4.13841738125000 
 S -3.96651675624999 -6.46362909687500 -1.27729138125000 
 S -1.43907575624999 -7.10902109687500 -0.113863381249999 
 S -0.514684756249991 -3.27227209687500 -3.91156338125000 
 S -3.59303275624999 -2.82858709687500 -1.20438738125000 
 S -1.29708175624999 -3.86667109687500 0.140729618750001 
