16

 C -2.30476452500000 -6.32077294062500 -2.40345738750000 
 C -1.14608452500000 -6.96948894062500 -1.81659938750000 
 C -2.25039452500000 -2.66473294062500 -2.44094538750000 
 C -1.14982552500000 -3.20309794062500 -1.70983438750000 
 N -0.150156525000003 -7.27697594062500 -2.65116538750000 
 N -2.11046852500000 -6.10073594062500 -3.70555638750000 
 N -2.78860552500000 -6.69548694062500 0.194947612500002 
 N -8.127852500000277E-002 -3.37200794062500 -2.46076638750000 
 N -2.02614752500000 -2.42596794062500 -3.72346638750000 
 N -3.01616852500000 -2.93423294062500 3.977161250000250E-002
 S -0.629738525000002 -6.74889194062500 -4.16230038750000 
 S -3.56693152500000 -6.20127494062500 -1.24021838750000 
 S -1.21730252500000 -7.19657694062500 -0.100696387499998 
 S -0.446598525000002 -2.95876894062500 -4.05505138750000 
 S -3.62886952500000 -2.42307794062500 -1.41471238750000 
 S -1.42727152500000 -3.23866594062500 -2.142238749999748E-002
