16

 C -2.39197837812500 -6.51038931562499 -2.56719691562500 
 C -1.16986937812500 -6.97309231562499 -1.90084191562500 
 C -2.64723637812500 -2.53266731562499 -2.28178591562500 
 C -1.54169037812500 -3.21539831562499 -1.67129991562500 
 N -0.194059378125000 -7.10596231562499 -2.77057591562500 
 N -2.30585337812500 -6.28784531562499 -3.87871191562500 
 N -2.94918037812500 -6.83494031562499 -4.720991562499832E-002
 N -0.511376378125000 -3.48050931562499 -2.47918591562500 
 N -2.46036837812500 -2.42167431562499 -3.60271991562500 
 N -3.30804037812500 -2.88328431562499 0.118376084375002 
 S -0.695599378125000 -6.62357331562499 -4.28653891562500 
 S -3.72606637812500 -6.35307631562499 -1.49674591562500 
 S -1.32824837812500 -7.14056131562499 -0.217137915624998 
 S -0.978702378125000 -2.94595331562499 -3.99416591562500 
 S -3.98012437812500 -2.21274331562499 -1.23804091562500 
 S -1.77445937812500 -3.32424231562499 4.277508437500188E-002
