16

 C -2.40566894687500 -6.49729265937500 -2.59833655937500 
 C -1.20811194687500 -6.95411465937500 -1.98306755937500 
 C -2.61296294687499 -2.50600365937500 -2.35453655937500 
 C -1.50402794687500 -3.17809165937500 -1.66625555937500 
 N -0.151411946874995 -7.09210965937500 -2.79602255937500 
 N -2.26726194687499 -6.23851265937500 -3.89949355937500 
 N -3.00850994687500 -6.84862065937500 -3.955255937499880E-002
 N -0.460548946874995 -3.51489465937500 -2.45230855937500 
 N -2.43835594687499 -2.39307565937500 -3.67051955937500 
 N -3.36889494687500 -2.89982165937500 0.153521440625001 
 S -0.673587946874996 -6.60563165937500 -4.26343655937500 
 S -3.71095294687500 -6.41098465937500 -1.47183155937500 
 S -1.34388294687500 -7.13863265937500 -0.245256559374999 
 S -0.951295946874995 -2.96871265937500 -3.98079255937500 
 S -3.96261094687500 -2.22574565937500 -1.20601755937500 
 S -1.77779994687500 -3.28097765937500 4.155344062500110E-002
