16

 C -2.11302943750000 -6.49817389687500 -2.29483507812500 
 C -0.875846437500000 -6.94216389687500 -1.66656607812500 
 C -2.61551143750000 -2.56559989687500 -2.44456807812500 
 C -1.30801243750000 -2.94820289687500 -1.83439807812500 
 N 0.118580562500000 -7.13243689687500 -2.53260407812500 
 N -2.03565443750000 -6.31709989687500 -3.61773107812500 
 N -2.65057743750000 -6.77655189687500 0.200221921875001 
 N -0.298942437500000 -3.17740889687500 -2.66999707812500 
 N -2.54340243750000 -2.46727989687500 -3.76485107812500 
 N -3.09955543750000 -2.69981289687500 8.162092187500103E-002
 S -0.488884437500000 -6.86174989687500 -4.07482207812500 
 S -3.44994443750000 -6.36234589687500 -1.17088507812500 
 S -1.05988843750000 -7.19511189687500 1.907592187500118E-002
 S -0.937091437500000 -2.76078689687500 -4.16830507812500 
 S -3.89538043750000 -2.40269789687500 -1.31497507812500 
 S -1.47648243750000 -3.00669889687500 -0.116919078124999 
