16

 C -2.22453509062501 -6.38592216250000 -2.17010927812500 
 C -1.05028109062501 -6.96843116250000 -1.54907127812500 
 C -2.37888609062500 -2.71285516250000 -2.27648827812500 
 C -1.23268609062501 -3.28679416250000 -1.73743627812500 
 N -1.615609062500489E-002 -7.24186216250000 -2.32924827812500 
 N -2.11184409062500 -6.17450316250000 -3.46056627812500 
 N -2.80683809062501 -6.77835416250000 0.309979721875001 
 N -0.227964090625005 -3.44717116250000 -2.59563827812500 
 N -2.30649909062500 -2.28484116250000 -3.53046527812500 
 N -2.93213309062501 -3.14969116250000 0.207354721875001 
 S -0.572128090625005 -6.79552416250000 -3.85922227812500 
 S -3.62779909062501 -6.40574216250000 -1.10462827812500 
 S -1.21351509062501 -7.26792916250000 0.149677721875001 
 S -0.767342090625005 -2.78187316250000 -4.04429927812500 
 S -3.70117909062501 -2.59839916250000 -1.19312927812500 
 S -1.35340109062501 -3.61341616250000 -2.395127812499886E-002
