16

 C -2.47351703437500 -6.48253419062500 -2.31522743750000 
 C -1.29427303437500 -7.00093719062500 -1.70159143750000 
 C -2.48487503437500 -2.77494019062500 -2.50472443750000 
 C -1.31921003437500 -3.11118119062500 -1.80768943750000 
 N -0.215125034375002 -7.20012819062500 -2.49790443750000 
 N -2.34944603437500 -6.27400219062500 -3.62585343750000 
 N -3.16502403437500 -6.69156119062500 0.124775562499999 
 N -0.288681034375002 -3.25881019062500 -2.59953343750000 
 N -2.35381603437500 -2.45585719062500 -3.77778343750000 
 N -3.17787603437500 -3.08483919062500 -4.754343750000078E-002
 S -0.820258034375002 -6.73989119062500 -4.03256143750000 
 S -3.84351003437500 -6.41656719062500 -1.33971343750000 
 S -1.58039903437500 -7.19604619062500 1.542756249999910E-002
 S -0.707588034375002 -2.84439319062500 -4.11257243750000 
 S -3.89406703437500 -2.71237419062500 -1.48096543750000 
 S -1.54442103437500 -3.35447819062500 -0.146553437500001 
