16

 C -2.32493578750000 -6.35704366250000 -2.49523174062500 
 C -1.21238378750000 -6.79954666250000 -1.72978974062500 
 C -2.64093878750000 -2.53125366250000 -2.42691474062500 
 C -1.40382478750000 -2.74165866250000 -1.76615374062500 
 N -0.140766787500003 -7.03791366250000 -2.48410074062500 
 N -2.10537178750000 -6.24280766250000 -3.80753474062500 
 N -3.12774678750000 -6.50146966250000 -7.421774062499997E-002
 N -0.367823787500003 -2.88710166250000 -2.54961074062500 
 N -2.51818078750000 -2.36127266250000 -3.72065474062500 
 N -3.21261578750000 -2.75774466250000 2.069725937499989E-002
 S -0.513459787500003 -6.64889966250000 -4.05226974062500 
 S -3.77903878750000 -6.15895366250000 -1.59327574062500 
 S -1.57450578750000 -7.03213266250000 -2.580674062500021E-002
 S -0.935086787500003 -2.63086466250000 -4.11407874062500 
 S -4.02122178750000 -2.39664866250000 -1.37908774062500 
 S -1.57923478750000 -2.99641366250000 -8.883574062499999E-002
