16

 C -2.56313872187500 -6.45120350312500 -2.31532771562500 
 C -1.32809772187500 -6.92787050312500 -1.70293471562500 
 C -2.43188672187500 -2.90422250312500 -2.18831371562500 
 C -1.16012872187500 -3.31049950312500 -1.63389571562500 
 N -0.313890721874997 -7.07165450312500 -2.53714371562500 
 N -2.44078572187500 -6.27143450312500 -3.62743671562500 
 N -3.07029472187500 -6.79705750312500 0.121126284375000 
 N -0.160583721874997 -3.45392550312500 -2.50814771562500 
 N -2.38058972187500 -2.65897150312500 -3.47850771562500 
 N -2.83773072187500 -2.94050950312500 0.354150284375000 
 S -0.923473721874997 -6.75973050312500 -4.03971471562500 
 S -3.97814072187500 -6.38099750312500 -1.25759571562500 
 S -1.45302672187500 -7.19283850312500 -3.114715625000430E-003
 S -0.799551721874997 -3.00475750312500 -4.03097371562500 
 S -3.67737272187500 -2.49532750312500 -1.02874171562500 
 S -1.27425172187500 -3.46711050312500 0.150256284374999 
