16

 C -2.32747753750000 -6.29430555312499 -2.40323650937500 
 C -1.12631553750000 -6.80299855312499 -1.77448250937500 
 C -2.62225353750000 -2.70396855312499 -2.66353650937500 
 C -1.38952253750000 -3.02207455312499 -1.94768250937500 
 N -0.118514537500003 -7.15644655312499 -2.55029950937500 
 N -2.20774053750000 -6.22987755312499 -3.71323350937500 
 N -2.69561553750000 -6.20956855312499 0.162729490625002 
 N -0.302763537500002 -3.12404255312499 -2.75456150937500 
 N -2.54924353750000 -2.66514155312499 -4.01600350937500 
 N -3.21046953750000 -2.80338655312499 -6.347550937499835E-002
 S -0.654389537500003 -6.76266655312499 -4.07777750937500 
 S -3.63974153750000 -6.03377255312499 -1.25539950937500 
 S -1.24594353750000 -7.01033255312499 2.181349062500160E-002
 S -0.941729537500002 -3.03851155312499 -4.27683250937500 
 S -3.89963253750000 -2.33030555312499 -1.49766050937500 
 S -1.55746553750000 -3.20612755312499 -0.174789509374998 
