16

 C -2.40004727500000 -6.58849611250000 -2.25833587812500 
 C -1.23883127500000 -7.03511311250000 -1.51326787812500 
 C -2.42504927500000 -2.71580011250000 -2.39818287812500 
 C -1.20891627500000 -3.20328511250000 -1.77627787812500 
 N -0.139019275000002 -7.19364211250000 -2.26125687812500 
 N -2.09822927500000 -6.39363811250000 -3.55561187812500 
 N -3.07465827500000 -6.72442311250000 0.222699121874999 
 N -0.138597275000001 -3.13464311250000 -2.53281087812500 
 N -2.29106727500000 -2.45840311250000 -3.69612787812500 
 N -3.03538427500000 -3.26499011250000 6.475912187499899E-002
 S -0.533389275000001 -6.75847011250000 -3.79173387812500 
 S -3.74575827500000 -6.19743611250000 -1.21544987812500 
 S -1.49448727500000 -7.21402011250000 0.159735121874999 
 S -0.678807275000001 -2.66943211250000 -4.02502187812500 
 S -3.76509027500000 -2.71207311250000 -1.30932387812500 
 S -1.41526727500000 -3.62043511250000 -9.480487812500082E-002
