16

 C -2.33923109375000 -6.30477199062500 -2.41132186250000 
 C -1.15217809375000 -6.86435199062500 -1.81608686250000 
 C -2.54399309375000 -2.59311799062500 -2.17529986250000 
 C -1.25920109375000 -3.02890299062500 -1.58561986250000 
 N -8.987409375000333E-002 -7.06911699062500 -2.57853386250000 
 N -2.21297609375000 -6.16506999062500 -3.71045686250000 
 N -2.86104409375000 -6.48494699062500 5.912613750000162E-002
 N -0.318835093750004 -3.14273799062500 -2.50471186250000 
 N -2.48348209375000 -2.36035499062500 -3.47313386250000 
 N -2.93465809375000 -2.88100899062500 0.308182137500002 
 S -0.645453093750004 -6.58453199062500 -4.08995286250000 
 S -3.68903709375000 -6.25797399062500 -1.35463286250000 
 S -1.27687609375000 -7.03838099062500 -9.381386249999824E-002
 S -0.957746093750004 -2.75882299062500 -3.99528386250000 
 S -3.81495809375000 -2.49133299062500 -1.01074786250000 
 S -1.34779909375000 -3.32008899062500 5.739013750000166E-002
