16

 C -2.46791590937500 -6.27934120312500 -2.30160341562500 
 C -1.20657590937500 -6.66742820312500 -1.66143741562500 
 C -2.43938790937500 -2.52851220312500 -2.88984641562500 
 C -1.20631490937500 -2.75124020312500 -2.18820641562500 
 N -0.196546909374995 -6.72942920312500 -2.55400641562500 
 N -2.41973290937500 -6.05481020312500 -3.61463841562500 
 N -3.00402990937499 -6.90594520312500 0.165694584375000 
 N -0.162821909374995 -2.86267820312500 -2.99704741562500 
 N -2.36426690937500 -2.44703120312500 -4.20899941562500 
 N -3.13647590937500 -2.86762820312500 -0.411214415625000 
 S -0.882535909374996 -6.39050720312500 -4.02305641562500 
 S -3.85737690937500 -6.38252420312500 -1.27319141562500 
 S -1.37590590937500 -6.94574020312500 3.811658437499976E-002
 S -0.744914909374995 -2.57093420312500 -4.56845941562500 
 S -3.87310590937500 -2.54655620312500 -1.89049341562500 
 S -1.42138790937500 -3.09666020312500 -0.443723415625000 
