16

 C -2.72806927500000 -6.32284291875000 -2.43663767812500 
 C -1.51698427500000 -6.70330291875000 -1.78409567812500 
 C -2.43028227500000 -2.98306391875000 -2.31628767812500 
 C -1.20131327500000 -3.26907091875000 -1.67024767812500 
 N -0.475586274999996 -6.80291691875000 -2.60255767812500 
 N -2.68352127500000 -6.22159891875000 -3.76290567812500 
 N -3.29867727500000 -6.61567991875000 3.901032187500086E-002
 N -0.121015274999996 -3.43606091875000 -2.44361367812500 
 N -2.37665227500000 -2.82130891875000 -3.64977967812500 
 N -2.97257427500000 -3.07711291875000 0.246865321875001 
 S -1.05420227500000 -6.51779891875000 -4.12785867812500 
 S -4.04016727500000 -6.14574991875000 -1.36875567812500 
 S -1.67026627500000 -6.94169791875000 -0.101631678124999 
 S -0.765342274999997 -3.13412191875000 -3.99336567812500 
 S -3.73309527500000 -2.75277091875000 -1.17737867812500 
 S -1.35699927500000 -3.48117191875000 7.862132187500093E-002
