16

 C -2.57505103124999 -6.53509660312501 -2.41991651562500 
 C -1.48807703124999 -7.06914060312501 -1.66543951562500 
 C -2.31954303124999 -2.80363560312501 -2.48022951562500 
 C -1.14381303124999 -3.20620160312501 -1.82821851562500 
 N -0.456998031249986 -7.34568660312501 -2.44477651562500 
 N -2.33735003124999 -6.35232360312501 -3.72236751562500 
 N -3.29215903124999 -6.46918060312501 4.754648437499931E-002
 N -0.109747031249986 -3.43654760312501 -2.63692651562500 
 N -2.12780903124999 -2.51658160312501 -3.76155451562500 
 N -3.01704103124999 -2.94498360312501 -6.130451562500072E-002
 S -0.799067031249987 -6.95500060312501 -3.99587251562500 
 S -3.89278503124999 -6.01496460312501 -1.44494051562500 
 S -1.71570503124999 -7.02759760312501 3.100048437499936E-002
 S -0.617360031249986 -3.00139660312501 -4.16637751562500 
 S -3.72158703124999 -2.61386360312501 -1.53281251562500 
 S -1.33540903124999 -3.35507260312501 -0.110897515625000 
