16

 C -2.58330257500000 -6.32947225312500 -2.25904485312500 
 C -1.43119457500000 -7.00581825312500 -1.74303985312500 
 C -2.31578057500000 -2.51825925312500 -2.49129485312500 
 C -1.15621357500000 -3.17321825312500 -1.85924685312500 
 N -0.434955574999998 -7.13959625312500 -2.65270185312500 
 N -2.51939057500000 -5.94291025312500 -3.54880085312500 
 N -3.13044957500000 -6.68420625312500 0.228295146875000 
 N -0.135587574999999 -3.37613725312500 -2.66673985312500 
 N -2.14104557500000 -2.27034025312500 -3.76077585312500 
 N -2.89881457500000 -2.89868525312500 3.125614687499967E-002
 S -1.06276357500000 -6.52855725312500 -4.05652485312500 
 S -3.89353757500000 -6.11482825312500 -1.11847985312500 
 S -1.54304157500000 -7.24712925312500 -1.312085312500022E-002
 S -0.640706574999999 -2.75422825312500 -4.20544985312500 
 S -3.68560557500000 -2.28963325312500 -1.35283185312500 
 S -1.27673457500000 -3.30885225312500 -0.154348853125000 
