16

 C -2.45956506562500 -6.37467485625000 -2.48557737500000 
 C -1.17117906562500 -6.59105085625000 -1.75021237500000 
 C -2.23770006562500 -2.85167285625000 -2.42944137500000 
 C -0.979799065624999 -3.20549785625000 -1.79415137500000 
 N -8.202606562499870E-002 -6.73162485625000 -2.49935437500000 
 N -2.26365506562500 -6.31774885625000 -3.77944737500000 
 N -3.09130106562500 -6.45674785625000 1.867162500000119E-002
 N -2.323406562499919E-002 -3.31367685625000 -2.68615437500000 
 N -2.20589906562500 -2.74516485625000 -3.75919637500000 
 N -2.61828906562500 -3.26066185625000 0.118459625000001 
 S -0.628419065624999 -6.59119085625000 -4.06195737500000 
 S -3.83481806562500 -6.15819785625000 -1.43963137500000 
 S -1.43189906562500 -6.82958885625000 -2.383749999990137E-004
 S -0.614606065624999 -2.95952985625000 -4.15579237500000 
 S -3.56021306562500 -2.83585885625000 -1.22304137500000 
 S -0.980703065624999 -3.54588485625000 -8.692237499999900E-002
