16

 C -2.29224182500000 -6.46615129375000 -2.24508597812500 
 C -1.08020782500000 -6.99316829375000 -1.62072497812500 
 C -2.34979082500001 -2.61357329375000 -2.50214997812500 
 C -1.13891582500001 -3.24448829375000 -2.03134397812500 
 N -0.131090825000006 -7.19410229375000 -2.54394697812500 
 N -2.29221882500001 -6.21609729375000 -3.54804297812500 
 N -2.83074582500001 -6.67857829375000 0.335160021874997 
 N -0.156600825000005 -3.40219629375000 -2.96176697812500 
 N -2.29471282500000 -2.26841929375000 -3.80427597812500 
 N -2.74093682500001 -3.14977429375000 1.116602187499693E-002
 S -0.757326825000005 -6.73805029375000 -4.01752197812500 
 S -3.60677782500001 -6.45215229375000 -1.14183897812500 
 S -1.23652982500001 -7.16521529375000 8.279002187499707E-002
 S -0.890885825000005 -2.78967929375000 -4.36485397812500 
 S -3.51223382500001 -2.42445029375000 -1.21408597812500 
 S -1.14902382500000 -3.48947029375000 -0.247876978125003 
