16

 C -2.42007149375000 -6.21781846250000 -2.40415826562500 
 C -1.19566249375000 -6.78187746250000 -1.86311126562500 
 C -2.50040349375000 -2.43611346250000 -2.42875326562500 
 C -1.41772249375000 -3.12194946250000 -1.78326726562500 
 N -0.176361493750004 -6.94821046250000 -2.67771526562500 
 N -2.23675149375000 -5.93825946250000 -3.65982526562500 
 N -2.92471349375000 -6.66189646250000 0.153021734375000 
 N -0.453417493750004 -3.61132046250000 -2.59708626562500 
 N -2.36082149375000 -2.35266146250000 -3.75256826562500 
 N -3.10151349375000 -2.40451946250000 7.136973437500038E-002
 S -0.740280493750004 -6.44311246250000 -4.17743726562500 
 S -3.64730849375000 -6.04893246250000 -1.16600126562500 
 S -1.31165949375000 -7.05128746250000 -0.130867265625000 
 S -0.904046493750004 -3.04693146250000 -4.12160526562500 
 S -3.88930849375000 -2.08146946250000 -1.38928226562500 
 S -1.65912349375000 -3.18654646250000 -8.934026562499953E-002
