16

 C -2.45460445937500 -6.32577941875000 -2.55775448750000 
 C -1.25666445937500 -6.74606041875000 -1.85592148750000 
 C -2.74661945937500 -2.91546741875000 -2.47656248750000 
 C -1.55338045937500 -3.47179641875000 -1.86458148750000 
 N -0.204807459375000 -6.95192141875000 -2.63730648750000 
 N -2.27381045937500 -6.30798241875000 -3.87878248750000 
 N -3.14808145937500 -6.61320041875000 -0.171365487500000 
 N -0.569601459375000 -3.74889541875000 -2.71272248750000 
 N -2.58796245937500 -2.66993541875000 -3.76739948750000 
 N -3.32929445937500 -3.28527141875000 -3.180248750000003E-002
 S -0.703527459375000 -6.69651841875000 -4.16672848750000 
 S -3.87033945937500 -6.25244841875000 -1.58691948750000 
 S -1.52534445937500 -7.12853141875000 -0.118261487500000 
 S -0.992513459375000 -3.09310541875000 -4.14733848750000 
 S -4.10568645937500 -2.58030141875000 -1.39009148750000 
 S -1.76962745937500 -3.86006141875000 -0.223453487500000 
