16

 C -2.53939777187500 -6.52863863125000 -2.41697428750000 
 C -1.44060177187500 -7.08766863125000 -1.69168828750000 
 C -2.32126577187500 -2.78118363125000 -2.52101128750000 
 C -1.12209677187500 -3.25107663125000 -1.83197428750000 
 N -0.385329771874998 -7.37843863125000 -2.43599628750000 
 N -2.32819177187500 -6.37977963125000 -3.70334928750000 
 N -3.33628677187500 -6.51735663125000 1.315671249999939E-002
 N -0.102453771874998 -3.46475163125000 -2.70742428750000 
 N -2.14554277187500 -2.49629163125000 -3.80003528750000 
 N -3.01683277187500 -2.96469163125000 -3.792128750000057E-002
 S -0.766014771874999 -6.96155863125000 -3.99887128750000 
 S -3.85446377187500 -6.03923063125001 -1.44953328750000 
 S -1.74035377187500 -7.04198063125000 3.268271249999932E-002
 S -0.614439771874999 -3.00458163125000 -4.14976928750000 
 S -3.69381677187500 -2.65247163125000 -1.51921728750000 
 S -1.37286977187500 -3.36554363125000 -0.130372287500001 
