16

 C -2.35832760937499 -6.21329215000000 -2.38419230312500 
 C -1.28319260937499 -6.95257615000000 -1.76004630312500 
 C -2.56052860937499 -2.36386715000000 -2.45444830312500 
 C -1.45976260937499 -3.01053115000000 -1.79564430312500 
 N -0.332592609374993 -7.24186415000000 -2.61926230312500 
 N -2.18045760937499 -5.93521715000000 -3.65022530312500 
 N -3.18139960937499 -6.63358415000000 2.203669687500431E-002
 N -0.354303609374993 -3.31950915000000 -2.50125430312500 
 N -2.31607960937499 -2.23437015000000 -3.78508030312500 
 N -3.22244560937499 -2.55593415000000 2.905169687500431E-002
 S -0.669723609374993 -6.50552415000000 -4.06861130312500 
 S -3.77138460937499 -5.96132415000000 -1.42728630312500 
 S -1.64450360937499 -7.20954515000000 -7.839130312499609E-002
 S -0.776878609374993 -2.86887015000000 -4.05024830312500 
 S -3.94437760937499 -2.07956115000000 -1.41088730312500 
 S -1.64891260937499 -3.15135115000000 -5.147130312499604E-002
