16

 C -2.50536104374999 -6.47611908125000 -2.12317033437500 
 C -1.32924104374999 -6.96708208125000 -1.50889333437500 
 C -2.26677904374999 -2.56119908125000 -2.46315333437500 
 C -1.13022704374999 -3.13658608125000 -1.90429133437500 
 N -0.250000043749993 -7.03815808125000 -2.31225233437500 
 N -2.31382304374999 -6.09840008125000 -3.40082733437500 
 N -3.19204204374999 -7.09648808125000 0.266854665624999 
 N -0.178690043749993 -3.42696408125000 -2.76393533437500 
 N -2.19752804374999 -2.28123008125000 -3.76232733437500 
 N -2.83788304374999 -2.99905508125000 4.030666562499885E-002
 S -0.800401043749993 -6.50536408125000 -3.76603133437500 
 S -3.91104104374999 -6.70451308125000 -1.17340733437500 
 S -1.57066804374999 -7.42912708125000 0.204245665624999 
 S -0.714977043749993 -2.83276308125000 -4.22478733437500 
 S -3.60908304374999 -2.36236708125000 -1.29664633437500 
 S -1.23037604374999 -3.42878808125000 -0.149462334375001 
