16

 C -2.49996711562500 -6.26001798750000 -2.48569090312500 
 C -1.27947811562500 -6.56276998750000 -1.84278690312500 
 C -2.39765811562500 -2.92160198750000 -2.53502090312500 
 C -1.19996711562500 -3.19711798750000 -1.84341090312500 
 N -0.317584115625003 -6.66175598750000 -2.71018290312500 
 N -2.51006511562500 -6.09594298750000 -3.79869090312500 
 N -3.02885411562500 -6.48030998750000 3.506409687499734E-002
 N -0.143243115625003 -3.46995698750000 -2.58236590312500 
 N -2.30960811562500 -3.01125798750000 -3.82405490312500 
 N -3.03897511562500 -2.80104298750000 -4.188190312500262E-002
 S -0.963691115625003 -6.48209798750000 -4.21355790312500 
 S -3.76123911562500 -5.98652698750000 -1.33278490312500 
 S -1.37833811562500 -6.82091198750000 -0.144709903125003 
 S -0.711660115625003 -3.39535898750000 -4.14506590312500 
 S -3.74289011562500 -2.73686898750000 -1.56014890312500 
 S -1.44962611562500 -3.15056098750000 -0.116911903125003 
