16

 C -2.61788068124999 -6.47875255000000 -2.22716338437500 
 C -1.39428068124999 -6.97709455000000 -1.63637938437500 
 C -2.42948568124999 -2.87181555000000 -2.22215238437500 
 C -1.16756168124999 -3.18264155000000 -1.57790738437500 
 N -0.331083681249995 -7.04069555000000 -2.47340438437500 
 N -2.49428168125000 -6.23369755000000 -3.53309038437500 
 N -3.14372468124999 -6.64157055000000 0.281687615624999 
 N -0.172273681249995 -3.53535255000000 -2.41743638437500 
 N -2.33839568124999 -2.86702655000000 -3.54930638437500 
 N -2.91792368124999 -2.99511755000000 0.314695615624999 
 S -0.883458681249994 -6.57775555000000 -4.00332738437500 
 S -3.91086568124999 -6.26757255000000 -1.09918738437500 
 S -1.51993868124999 -7.09860555000000 0.165938615624999 
 S -0.813389681249995 -3.22289855000000 -3.96234538437500 
 S -3.83694168124999 -2.74530655000000 -1.04053438437500 
 S -1.26517868124999 -3.36979355000000 0.136467615624999 
