16

 C -2.51047975000000 -6.28027196250000 -2.51243101562500 
 C -1.43710775000000 -7.07874896250000 -2.01264201562500 
 C -2.56610975000000 -2.53806696250000 -2.32620201562500 
 C -1.42700075000000 -3.20845796250000 -1.79274401562500 
 N -0.510545749999997 -7.23073996250000 -2.97850901562500 
 N -2.45356175000000 -5.82891696250000 -3.77210001562500 
 N -3.13996675000000 -7.01859696250000 -9.143601562500048E-002
 N -0.409586749999997 -3.46672696250000 -2.60278701562500 
 N -2.43643575000000 -2.33795596250000 -3.64233301562500 
 N -3.17862675000000 -3.02244196250000 9.969398437499954E-002
 S -1.10379375000000 -6.52794196250000 -4.33117601562500 
 S -3.73486475000000 -5.99131496250000 -1.23666601562500 
 S -1.59080375000000 -7.62685396250000 -0.386791015625001 
 S -0.877847749999997 -2.82862596250000 -4.06603001562500 
 S -3.89913075000000 -2.34545596250000 -1.20319901562500 
 S -1.55186675000000 -3.43083796250000 -5.673801562500058E-002
