16

 C -2.49721862812500 -6.68299175000000 -2.33167135937500 
 C -1.17848262812500 -7.01470075000000 -1.73562635937500 
 C -2.25746362812500 -3.18479575000000 -2.28009835937500 
 C -1.04503062812500 -3.63346575000000 -1.66145835937500 
 N -0.273544628125003 -7.28409975000000 -2.65043735937500 
 N -2.55632462812500 -6.69027375000000 -3.67045335937500 
 N -2.87569962812500 -6.77574575000000 0.224320640625003 
 N -4.987162812500223E-002 -3.90393975000000 -2.48891135937500 
 N -2.13011662812500 -2.95477075000000 -3.61537235937500 
 N -2.74277362812500 -3.37472275000000 0.201913640625003 
 S -1.01863962812500 -6.98311775000000 -4.14838535937500 
 S -3.73269662812500 -6.38989275000000 -1.15635835937500 
 S -1.26230662812500 -7.09434375000000 -5.809359374997047E-003
 S -0.620665628125002 -3.45944975000000 -4.11050835937500 
 S -3.54040862812500 -2.92850775000000 -1.16086635937500 
 S -1.14491362812500 -3.78740275000000 5.663564062500281E-002
