16

 C -2.51251899062500 -6.48663972812500 -2.49810900000000 
 C -1.31978599062500 -6.71639872812500 -1.78014500000000 
 C -2.58864099062500 -2.57232472812500 -2.46301400000000 
 C -1.37333099062500 -3.05916372812500 -1.83042400000000 
 N -0.235693990625000 -6.75630172812500 -2.53868100000000 
 N -2.43164999062500 -6.28771872812500 -3.81786700000000 
 N -3.19915899062500 -6.67166672812500 -4.505899999999885E-002
 N -0.330802990625000 -3.21897972812500 -2.63393100000000 
 N -2.48701899062500 -2.36697272812500 -3.77966900000000 
 N -2.99031299062500 -2.61817872812500 0.117630000000001 
 S -0.770487990625001 -6.45257572812500 -4.10134900000000 
 S -3.91407099062500 -6.44940372812500 -1.53465000000000 
 S -1.62683199062500 -6.92115172812500 -5.139799999999894E-002
 S -0.962054990625000 -2.80713372812500 -4.14579600000000 
 S -3.77267899062500 -2.24826272812500 -1.31091600000000 
 S -1.47222799062500 -3.19141072812500 -0.111451999999999 
