16

 C -2.66560663750000 -6.22032264687501 -2.50359655000000 
 C -1.50010963750000 -6.72815064687501 -1.84423655000000 
 C -2.19448563750000 -3.00003864687501 -2.24852355000000 
 C -0.918795637500001 -3.40708264687501 -1.70153855000000 
 N -0.423932637500001 -7.03211264687501 -2.58928055000000 
 N -2.39567663750000 -6.03758064687501 -3.79399555000000 
 N -3.36406163750000 -6.49772464687501 -2.303854999999921E-002
 N 5.062036249999924E-002 -3.38397564687501 -2.60228255000000 
 N -2.12969163750000 -2.71053964687501 -3.53757155000000 
 N -2.61254363750000 -3.44490364687501 0.213028450000001 
 S -0.903260637500001 -6.61657464687501 -4.12286755000000 
 S -4.02813563750000 -5.93992264687501 -1.43235155000000 
 S -1.79417263750000 -7.00168664687501 -0.146124549999999 
 S -0.565557637500000 -2.82615064687501 -4.03823955000000 
 S -3.53787863750000 -2.97531264687501 -1.11463955000000 
 S -1.00243663750000 -3.74383464687501 -1.647954999999923E-002
