16

 C -2.41812202500000 -6.33050771562500 -2.35201509062500 
 C -1.21074202500000 -6.80832571562500 -1.68316909062500 
 C -2.25014802500000 -2.42976471562500 -2.08836709062500 
 C -1.10553502500000 -3.26264871562500 -1.64267309062500 
 N -0.157609025000001 -7.10806371562500 -2.44300909062500 
 N -2.17613402500000 -6.28133871562500 -3.64273809062500 
 N -3.06792402500000 -6.61838971562500 0.153713909375000 
 N -0.196352025000001 -3.34061371562500 -2.58684809062500 
 N -2.16376502500000 -1.93450071562500 -3.32100109062500 
 N -2.86939302500000 -3.40347871562500 0.179445909375000 
 S -0.612245025000001 -6.69364771562500 -3.95144809062500 
 S -3.73948202500000 -6.15223071562500 -1.24452709062500 
 S -1.41140202500000 -7.00568771562500 7.292090937499984E-002
 S -0.666797025000001 -2.39691371562500 -3.87769609062500 
 S -3.60698302500000 -2.50985671562500 -0.985975090625000 
 S -1.22327402500000 -3.81709271562500 9.312909374999734E-003
