16

 C -2.31417687812499 -6.56695563437500 -2.41799753437500 
 C -1.09812687812499 -6.82626363437500 -1.71607153437500 
 C -2.46606487812499 -3.26648563437500 -2.30371553437500 
 C -1.20814487812499 -3.48621963437500 -1.65270353437500 
 N -6.248487812499093E-002 -6.97846163437500 -2.56315953437500 
 N -2.20394887812499 -6.49892763437500 -3.72870553437500 
 N -3.00789887812499 -6.66166063437500 3.154246562499896E-002
 N -0.126522878124991 -3.62013363437500 -2.47888853437500 
 N -2.38681887812499 -3.25457163437500 -3.62645853437500 
 N -2.96883787812499 -3.37232963437500 0.267854465624999 
 S -0.623716878124991 -6.86847863437500 -4.10664053437500 
 S -3.73271087812499 -6.32119263437500 -1.44741453437500 
 S -1.37000687812499 -6.94259863437500 -3.588553437500108E-002
 S -0.749574878124991 -3.51301163437500 -3.96862453437500 
 S -3.80494687812499 -3.34278963437500 -1.15807853437500 
 S -1.31371587812499 -3.53660563437500 0.106995465624999 
