16

 C -2.37918163437500 -6.49748163750000 -2.52060336250000 
 C -1.13794363437500 -6.69863963750000 -1.81289136250000 
 C -2.61020563437500 -2.80167663750000 -2.51166636250000 
 C -1.41403463437500 -3.09237263750000 -1.77410836250000 
 N -3.244463437499689E-002 -6.93909263750000 -2.56752836250000 
 N -2.20330063437500 -6.44457463750000 -3.85366336250000 
 N -3.06857363437500 -6.47244363750000 -3.806336249999975E-002
 N -0.283578634374996 -3.01939663750000 -2.49045036250000 
 N -2.44670963437500 -2.60425963750000 -3.81449636250000 
 N -3.30461863437500 -3.05689363750000 2.407863750000039E-002
 S -0.557819634374996 -6.70373063750000 -4.13378036250000 
 S -3.74818563437500 -6.21785763750000 -1.50561736250000 
 S -1.43458563437500 -6.81638063750000 1.816637500000384E-003
 S -0.798123634374996 -2.83355163750000 -4.04780936250000 
 S -3.95857863437500 -2.51809963750000 -1.41955336250000 
 S -1.66843263437500 -3.29383963750000 -1.661836249999959E-002
