16

 C -2.13638680312500 -6.01888589375000 -2.61418868437500 
 C -1.03226680312500 -6.61299289375000 -1.83564168437500 
 C -2.38597580312500 -2.79500689375000 -2.52804568437500 
 C -1.18131080312500 -3.09914489375000 -1.88614768437500 
 N 2.666519687499758E-002 -6.91684089375000 -2.55514468437500 
 N -1.91453880312500 -5.99425289375000 -3.92449568437500 
 N -3.01329480312500 -6.28563089375000 -0.180357684375002 
 N -0.113048803125002 -3.23791989375000 -2.67622868437500 
 N -2.31605880312500 -2.70780889375000 -3.84685768437500 
 N -3.02471980312500 -2.95450489375000 -4.372668437500193E-002
 S -0.352045803125002 -6.57119189375000 -4.20012768437500 
 S -3.65306180312500 -5.83944089375000 -1.63241468437500 
 S -1.44677480312500 -6.84279589375000 -0.182458684375002 
 S -0.733319803125002 -3.03764189375000 -4.24431568437500 
 S -3.75269080312500 -2.74760389375000 -1.47627568437500 
 S -1.36329880312500 -3.30999389375000 -0.106161684375002 
