16

 C -2.42439791562500 -6.22340689062500 -2.40878796562500 
 C -1.20305891562500 -6.77126289062500 -1.84555796562500 
 C -2.50217291562500 -2.43705089062500 -2.41159196562500 
 C -1.42186691562500 -3.11888789062500 -1.77311296562500 
 N -0.197135915625002 -6.95215289062500 -2.67619196562500 
 N -2.23149291562500 -5.92905089062500 -3.67454596562500 
 N -2.92195891562500 -6.64029689062500 0.150868034375002 
 N -0.462220915625002 -3.58757889062500 -2.58515196562500 
 N -2.35654491562500 -2.35498389062500 -3.73837196562500 
 N -3.08811691562500 -2.39705889062500 7.557203437500148E-002
 S -0.736904915625002 -6.44038689062500 -4.17651396562500 
 S -3.65627191562500 -6.05739889062500 -1.16340496562500 
 S -1.31229891562500 -7.05324689062500 -0.138291965624999 
 S -0.901428915625002 -3.04325989062500 -4.12049696562500 
 S -3.88094891562500 -2.07842889062500 -1.38897796562500 
 S -1.65684491562500 -3.19440889062500 -9.098696562499864E-002
