16

 C -2.37716697500000 -6.34073140000000 -2.47614589062500 
 C -1.22053197500000 -6.82196440000000 -1.75343289062500 
 C -2.61234597500000 -2.74282040000000 -2.57688789062500 
 C -1.39354097500000 -3.04373440000000 -1.88036289062500 
 N -0.136254975000000 -7.19704240000000 -2.48261489062500 
 N -2.11307297500000 -6.42402940000000 -3.79265489062500 
 N -2.98547697500000 -6.38927240000000 5.923910937499999E-002
 N -0.355118975000000 -3.09464140000000 -2.69257789062500 
 N -2.45734997500000 -2.47770740000000 -3.85214389062500 
 N -3.13247697500000 -2.87891440000000 -4.512089062500002E-002
 S -0.543201975000000 -6.93376340000000 -4.06973789062500 
 S -3.71020897500000 -6.04045440000000 -1.39718989062500 
 S -1.33032297500000 -6.80069840000000 -1.305289062500004E-002
 S -0.841934975000000 -2.77363140000000 -4.26094789062500 
 S -3.90570697500000 -2.69851940000000 -1.47212389062500 
 S -1.50119197500000 -3.06674440000000 -0.149255890625000 
