16

 C -2.41968934375000 -6.56204680000001 -2.48833601562500 
 C -1.14292234375000 -6.85804080000001 -1.84613201562500 
 C -2.43130234375000 -2.68607580000001 -2.37785801562500 
 C -1.29569434375000 -3.02932580000001 -1.62299201562500 
 N -7.767434375000448E-002 -6.84543880000001 -2.65593201562500 
 N -2.31026334375000 -6.36193680000001 -3.78038001562500 
 N -2.93933034375000 -6.97579180000001 -4.102001562500135E-002
 N -0.246221343750004 -3.32527480000001 -2.40195801562500 
 N -2.25398334375000 -2.61957280000001 -3.68011301562500 
 N -3.22895134375000 -2.72079180000001 9.178798437499847E-002
 S -0.689518343750004 -6.51278980000001 -4.18549501562500 
 S -3.69349234375000 -6.57256880000001 -1.42888901562500 
 S -1.37210534375000 -7.29280180000001 -0.162667015625002 
 S -0.666757343750004 -3.04353980000001 -3.98306201562500 
 S -3.83029534375000 -2.32041080000001 -1.44908601562500 
 S -1.67443534375000 -3.19148880000001 4.673698437499851E-002
