16

 C -2.33163792812500 -6.40508252812501 -2.38084259375000 
 C -1.17652692812500 -7.11495352812501 -1.80528459375000 
 C -2.46938892812500 -2.96228352812501 -2.34392159375000 
 C -1.23990092812500 -3.11002352812501 -1.69854159375000 
 N -0.128631928125000 -7.28352252812501 -2.60588159375000 
 N -2.12445292812500 -6.12594452812501 -3.67214559375000 
 N -2.81939892812500 -6.93235152812501 8.900640625000156E-002
 N -0.187982928125001 -3.35808852812501 -2.49819859375000 
 N -2.49281092812500 -3.06902452812501 -3.69080659375000 
 N -2.89808892812500 -2.69715652812501 0.206557406250002 
 S -0.642342928125000 -6.68705952812501 -4.09278359375000 
 S -3.63422792812500 -6.16652252812501 -1.24756359375000 
 S -1.21354392812500 -7.24601052812501 -5.669059374999841E-002
 S -0.860678928125001 -3.21677652812501 -4.04235059375000 
 S -3.72872192812500 -2.77601052812501 -1.22009859375000 
 S -1.32478792812500 -3.09083452812501 9.036406250001461E-003
