16

 C -2.30143431875000 -6.14963555937500 -2.20679649062500 
 C -1.11659331875000 -6.80272155937500 -1.65055249062500 
 C -2.45430131875000 -2.87045755937500 -2.73595649062500 
 C -1.18306831875000 -3.03290255937500 -2.16480249062500 
 N -0.156725318750003 -6.88248855937500 -2.53558649062500 
 N -2.22820131875000 -5.83416155937500 -3.50064749062500 
 N -2.88122531875000 -6.56207255937500 0.277240509374999 
 N -0.153850318750003 -2.82972555937500 -2.96061849062500 
 N -2.43593231875000 -2.51219755937500 -4.00401749062500 
 N -2.91680231875000 -3.02442655937500 -0.194349490625001 
 S -0.699529318750003 -6.28401055937500 -4.02906949062500 
 S -3.67726531875000 -6.22087555937500 -1.13880349062500 
 S -1.31055431875000 -7.17560955937500 3.826650937499942E-002
 S -0.855617318750003 -2.60049455937500 -4.44213849062500 
 S -3.72125031875000 -3.00413355937500 -1.66293849062500 
 S -1.28013031875000 -3.27510255937500 -0.394615490625001 
