16

 C -2.27594381875000 -6.41741887812500 -2.46109730625000 
 C -1.14000881875000 -6.95321487812500 -1.72698830625000 
 C -2.58815681875000 -2.71992587812500 -2.57468730625000 
 C -1.35244081875000 -3.02367487812500 -1.91732430625000 
 N -0.131244818750003 -7.21586287812500 -2.51426030625000 
 N -2.14478781875000 -6.33512187812500 -3.78953430625000 
 N -2.96323681875000 -6.34589187812500 9.304569375000149E-002
 N -0.326659818750004 -3.16914187812500 -2.75074930625000 
 N -2.48792381875000 -2.55103587812500 -3.91216630625000 
 N -3.11531981875000 -2.90599987812500 -2.128830624999867E-002
 S -0.573784818750004 -6.91267787812500 -4.08546530625000 
 S -3.69335281875000 -6.02178887812500 -1.35540630625000 
 S -1.34078981875000 -6.78311187812500 2.914693750001307E-003
 S -0.859081818750004 -2.77764187812500 -4.26374030625000 
 S -3.94617181875000 -2.64762487812500 -1.47819230625000 
 S -1.48847081875000 -3.06773287812500 -0.173096306249998 
