16

 C -2.28855431875000 -6.64526411875000 -2.38029021875000 
 C -1.15204831875000 -7.19768911875000 -1.69757421875000 
 C -2.47619531875000 -2.53623711875000 -2.32648121875000 
 C -1.49176731875000 -3.45161111875000 -1.79312921875000 
 N -0.111820318749999 -7.44189311875000 -2.49014021875000 
 N -2.18209431875000 -6.44599311875000 -3.67955321875000 
 N -3.08057631875000 -7.15259411875000 -2.795218749999773E-003
 N -0.510850318749998 -3.81926711875000 -2.59381321875000 
 N -2.30719931875000 -2.24064711875000 -3.59372021875000 
 N -2.96127231875000 -2.71635011875000 0.270302781250000 
 S -0.631233318749999 -6.99969711875000 -3.98384521875000 
 S -3.68798931875000 -6.48358811875000 -1.35989921875000 
 S -1.36738331875000 -7.37037311875000 1.025478125000023E-002
 S -0.951130318749999 -3.11040511875000 -4.09660021875000 
 S -3.59131631875000 -2.01216411875000 -1.13887821875000 
 S -1.69343331875000 -3.77669011875000 -5.058021874999996E-002
