16

 C -2.69255243125000 -6.49265676875000 -2.35053816875000 
 C -1.49954943125000 -6.88558976875000 -1.66759916875000 
 C -2.52396343125000 -2.61134676875000 -2.48293316875000 
 C -1.25477243125000 -3.11214276875000 -1.83292616875000 
 N -0.479384431250002 -7.23553276875000 -2.47108616875000 
 N -2.47455543125000 -6.35671476875000 -3.65693816875000 
 N -3.19684443125000 -6.48298776875000 0.182528831250000 
 N -0.368685431250002 -3.42123076875000 -2.74784716875000 
 N -2.52362843125000 -2.63873276875000 -3.81587716875000 
 N -2.93643743125000 -2.90567976875000 8.501683124999948E-002
 S -0.963767431250002 -6.91242776875000 -4.00883816875000 
 S -3.99910143125000 -6.18321876875000 -1.26777416875000 
 S -1.56584943125000 -6.90631276875000 9.585883124999950E-002
 S -1.01054143125000 -3.13929676875000 -4.26034816875000 
 S -3.79901443125000 -2.62952976875000 -1.26758316875000 
 S -1.34089743125000 -3.36510476875000 -9.720616875000032E-002
