16

 C -2.63240422187500 -6.34651002187500 -2.53859465000000 
 C -1.34908222187500 -6.84353902187500 -2.06735365000000 
 C -2.68497022187500 -3.00799302187500 -2.30665665000000 
 C -1.54024822187500 -3.44121502187500 -1.60407865000000 
 N -0.422505221875003 -6.92367602187500 -3.04255765000000 
 N -2.68617522187500 -6.18174402187501 -3.87253165000000 
 N -2.76289922187500 -6.58469302187500 1.756735000000043E-002
 N -0.507706221875003 -3.70745002187500 -2.39148565000000 
 N -2.47893222187500 -2.78695402187500 -3.60725265000000 
 N -3.33596922187500 -3.20047602187500 0.160152350000000 
 S -1.16940322187500 -6.64347402187500 -4.48441365000000 
 S -3.85834122187500 -6.26645102187500 -1.25151765000000 
 S -1.26784622187500 -7.15572302187500 -0.333686650000000 
 S -0.904210221875003 -3.16420802187500 -3.88050465000000 
 S -3.99595122187500 -2.68925702187500 -1.28431065000000 
 S -1.72654022187500 -3.36840302187500 0.119412350000000 
