16

 C -2.54205236875000 -6.61392497812500 -2.50477855625000 
 C -1.27082836875000 -7.03241097812500 -1.97393755625000 
 C -2.58854636875000 -2.67105297812500 -2.20551855625000 
 C -1.34665936875000 -3.11779697812500 -1.55411855625000 
 N -0.292704368749998 -7.13739197812500 -2.90545155625000 
 N -2.61478136875000 -6.45110297812500 -3.84012555625000 
 N -2.85452036875000 -6.69099097812500 7.110443749998474E-003
 N -0.403020368749998 -3.40453797812500 -2.46941055625000 
 N -2.51973436875000 -2.63817097812500 -3.55151355625000 
 N -3.15051436875000 -3.00921297812500 0.246579443749998 
 S -1.06033336875000 -6.79153597812500 -4.31983655625000 
 S -3.78902936875000 -6.41286197812500 -1.31719455625000 
 S -1.23509036875000 -7.05385597812500 -0.242300556250001 
 S -0.989917368749998 -3.07610397812500 -3.97086255625000 
 S -3.93078936875000 -2.54856097812500 -1.15372455625000 
 S -1.59182036875000 -3.65244897812500 9.774244374999852E-002
