16

 C -2.49654920937500 -6.68054709062500 -2.33043326875000 
 C -1.18010420937500 -7.00619909062500 -1.74588326875000 
 C -2.24164420937500 -3.18225109062500 -2.27926326875000 
 C -1.03939220937500 -3.64488509062500 -1.65382326875000 
 N -0.254101209374998 -7.28169609062500 -2.65226926875000 
 N -2.55144320937500 -6.67738509062500 -3.67725526875000 
 N -2.88218120937500 -6.77345009062500 0.220685731249999 
 N -3.963020937499717E-002 -3.90795709062500 -2.47825626875000 
 N -2.12233620937500 -2.95913109062500 -3.62170926875000 
 N -2.74256320937500 -3.37214809062500 0.211595731249999 
 S -1.01583120937500 -6.98739409062500 -4.14729126875000 
 S -3.73644220937500 -6.38785209062500 -1.15128826875000 
 S -1.25273920937500 -7.08763109062500 -9.919268750000931E-003
 S -0.619142209374997 -3.46697409062500 -4.10405326875000 
 S -3.53505320937500 -2.93950609062500 -1.16561126875000 
 S -1.14770220937500 -3.77725409062500 6.377473124999922E-002
