16

 C -2.57351160000000 -6.68077559062500 -2.36892693125000 
 C -1.32095860000000 -6.91624159062500 -1.68737993125000 
 C -2.24910160000000 -2.99906759062500 -2.46223793125000 
 C -1.02095960000000 -3.43163659062500 -1.79981893125000 
 N -0.257050600000003 -6.90409059062500 -2.52599293125000 
 N -2.51643160000000 -6.45037859062500 -3.67865193125000 
 N -3.06474960000000 -7.15988259062500 0.139067068750000 
 N 4.697399999996854E-003 -3.57630559062500 -2.65065193125000 
 N -2.09717860000000 -2.74885959062500 -3.77393493125000 
 N -2.77506760000000 -2.99317659062500 5.467906875000006E-002
 S -0.858081600000003 -6.53866259062500 -4.04871993125000 
 S -3.90911460000000 -6.92391459062500 -1.28434693125000 
 S -1.39803860000000 -7.13940359062500 -5.021931249999945E-003
 S -0.533618600000003 -3.26764359062500 -4.17470293125000 
 S -3.62467560000000 -2.78412059062500 -1.41268493125000 
 S -1.19872160000000 -3.40696759062500 -2.191393124999985E-002
