16

 C -2.52980093125000 -6.52238955312501 -2.37911020937500 
 C -1.32827593125000 -6.97074555312501 -1.76231520937500 
 C -2.55999993125000 -3.18231855312501 -2.43628520937500 
 C -1.27476993125000 -3.44433355312501 -1.79341220937500 
 N -0.260513931250000 -7.02469155312501 -2.57143820937500 
 N -2.41757393125000 -6.19378955312501 -3.68255020937500 
 N -3.03014893125000 -6.79393255312501 0.140056790624999 
 N -0.244606931250000 -3.48938055312501 -2.62488420937500 
 N -2.47884793125000 -2.89571655312501 -3.73931020937500 
 N -3.00856693125000 -3.30351755312501 0.114868790624999 
 S -0.848823931250000 -6.62134255312501 -4.04939720937500 
 S -3.84488093125000 -6.27036955312501 -1.21170120937500 
 S -1.41939393125000 -7.02568255312501 -2.007220937500076E-002
 S -0.902023931250000 -3.04690355312501 -4.16856620937500 
 S -3.90714393125000 -3.09182755312501 -1.26198120937500 
 S -1.40054493125000 -3.73941355312501 -8.993020937500074E-002
