16

 C -2.48050817812500 -6.37618177812501 -2.27694138125000 
 C -1.29264517812500 -6.90096377812500 -1.66474638125000 
 C -2.63249917812500 -3.13224177812500 -2.49592638125000 
 C -1.37685117812500 -3.36171977812500 -1.81700738125000 
 N -0.309169178125002 -7.07087477812500 -2.54165038125000 
 N -2.45127417812500 -6.14559377812500 -3.57911538125000 
 N -3.08088117812500 -6.58219377812500 0.186420618749999 
 N -0.295134178125001 -3.39519077812500 -2.58759138125000 
 N -2.47511917812500 -2.91655277812500 -3.81828138125000 
 N -3.12447317812500 -3.07145977812500 0.130664618749999 
 S -0.929876178125001 -6.66519477812500 -4.07498838125000 
 S -3.88069417812500 -6.12438577812500 -1.19456038125000 
 S -1.47310417812500 -7.06172777812500 3.250261874999882E-002
 S -0.888895178125002 -3.15993777812500 -4.14661838125000 
 S -3.91251517812500 -2.99431877812500 -1.27392938125000 
 S -1.52377017812500 -3.51956477812500 -6.660238125000117E-002
