16

 C -2.35314812187501 -6.23735265312500 -2.25269778125000 
 C -1.18025312187501 -6.86964265312500 -1.69145478125000 
 C -2.50548712187501 -2.75066665312500 -2.61858678125000 
 C -1.20523312187501 -2.96821265312500 -2.01624478125000 
 N -0.137071121875009 -7.03111965312500 -2.52907678125000 
 N -2.23811912187501 -5.86146065312500 -3.52276178125000 
 N -2.93198312187501 -6.86409665312500 0.194203218750001 
 N -0.140763121875009 -3.00440365312500 -2.83313578125000 
 N -2.38392012187501 -2.57136165312500 -3.94034778125000 
 N -2.90000312187501 -3.07097165312500 -9.739778124999887E-002
 S -0.681458121875010 -6.34950365312500 -3.93128878125000 
 S -3.69219812187501 -6.13992265312500 -1.08732378125000 
 S -1.22454012187501 -7.05702565312500 2.662921875000124E-002
 S -0.746328121875010 -2.56879965312500 -4.33924778125000 
 S -3.84337612187501 -2.89776665312500 -1.50248578125000 
 S -1.27326312187501 -3.38879765312500 -0.332357781249999 
