16

 C -2.38979084999999 -6.68246962500000 -2.45634383437500 
 C -1.12401384999999 -6.94223462500000 -1.77071483437500 
 C -2.26349884999999 -3.45015262500000 -2.23966983437500 
 C -1.02537384999999 -3.56559062500000 -1.52267083437500 
 N -6.423284999999357E-002 -7.06709062500000 -2.58847083437500 
 N -2.24886284999999 -6.56574962500000 -3.77841583437500 
 N -2.86928884999999 -6.56565262500000 0.109049165625001 
 N 4.962515000000689E-002 -3.63739162500000 -2.33851483437500 
 N -2.20740984999999 -3.52878862500000 -3.56653883437500 
 N -2.90025084999999 -3.35275062500000 0.245656165625000 
 S -0.654875849999994 -6.90169362500000 -4.12086083437500 
 S -3.66262584999999 -6.30079162500000 -1.36456983437500 
 S -1.25774684999999 -6.89735162500000 -4.533483437499974E-002
 S -0.594914849999993 -3.59642262500000 -3.90397883437500 
 S -3.67967484999999 -3.19868662500000 -1.19957083437500 
 S -1.21455584999999 -3.54580562500000 0.212418165625000 
