16

 C -2.35101473125000 -6.26077427500000 -2.16819158750000 
 C -1.22517173125000 -6.83256427500000 -1.52459058750000 
 C -2.32052773125000 -2.60534627500000 -2.17134758750000 
 C -1.16575173125000 -3.24660327500000 -1.60080958750000 
 N -0.168292731250005 -6.98696227500000 -2.31280458750000 
 N -2.12060073125000 -5.89983027500000 -3.44323358750000 
 N -2.92427273125000 -6.52400227500000 0.296912412500000 
 N -5.003673125000407E-002 -3.23312227500000 -2.34799958750000 
 N -2.13220073125000 -2.19055927500000 -3.41070758750000 
 N -3.02219573125000 -3.01750327500000 0.243743412500000 
 S -0.565012731250004 -6.29975927500000 -3.70686158750000 
 S -3.74748273125000 -6.12504027500000 -1.11791758750000 
 S -1.35934973125000 -7.17756927500000 0.143126412500000 
 S -0.616565731250004 -2.59821027500000 -3.82738258750000 
 S -3.70242473125000 -2.47651627500000 -1.18864258750000 
 S -1.43216973125000 -3.51449427500000 9.453841249999995E-002
