16

 C -2.27051585937499 -6.29300399687499 -2.37209777187500 
 C -1.05604385937499 -6.81956899687499 -1.79570777187500 
 C -2.50538285937499 -2.93703799687499 -2.48217477187500 
 C -1.32867585937499 -3.09878899687499 -1.73542777187500 
 N -3.161185937499233E-002 -6.92564999687499 -2.66101577187500 
 N -2.17161285937499 -6.20248199687499 -3.69961977187500 
 N -2.86590985937499 -6.77041199687499 4.816822812499955E-002
 N -0.229854859374993 -3.25361199687499 -2.48942577187500 
 N -2.39396785937499 -2.99431299687499 -3.82275677187500 
 N -3.15657185937499 -2.73299299687499 4.132922812499951E-002
 S -0.628397859374993 -6.64516099687499 -4.23326377187500 
 S -3.60330885937499 -6.13254499687499 -1.32041177187500 
 S -1.29489685937499 -7.25388599687499 -9.711577187500042E-002
 S -0.766889859374993 -3.08424999687499 -4.05419777187500 
 S -3.82083485937499 -2.69423699687499 -1.45202577187500 
 S -1.54067985937499 -3.03830399687499 1.286022812499965E-002
