16

 C -2.40544060937500 -6.08369982500000 -2.17335507500000 
 C -1.19874160937500 -6.65642482500000 -1.60114007500000 
 C -2.54060860937500 -2.44876882500000 -2.50998207500000 
 C -1.36118160937500 -2.98764482500000 -1.86462507500000 
 N -0.296869609374997 -6.92158482500000 -2.52969407500000 
 N -2.41204960937500 -5.87177182500000 -3.47555107500000 
 N -2.88294560937500 -6.29344282500000 0.314088925000001 
 N -0.344982609374997 -3.23861782500000 -2.70204307500000 
 N -2.45922260937500 -2.35010082500000 -3.83453407500000 
 N -3.06489560937500 -2.42793882500000 -2.400107499999904E-002
 S -0.930530609374997 -6.44153382500000 -3.99638707500000 
 S -3.72018360937500 -5.88218782500000 -1.08002507500000 
 S -1.29679460937500 -6.84858082500000 9.655892500000096E-002
 S -0.912534609374997 -2.84020882500000 -4.12888907500000 
 S -3.83163760937500 -2.19141782500000 -1.44626807500000 
 S -1.48677960937500 -2.95623882500000 -0.136596074999999 
