16

 C -2.50542839062500 -6.25398299999999 -2.50145288125000 
 C -1.23695039062500 -6.61254299999999 -1.87916288125000 
 C -2.42335139062500 -2.90076399999999 -2.55820588125000 
 C -1.17823339062500 -3.09383199999999 -1.86283988125000 
 N -0.196848390625002 -6.70735399999999 -2.71603288125000 
 N -2.46767639062500 -6.20207899999999 -3.82438588125000 
 N -3.03944939062500 -6.58359499999999 5.475711875000044E-002
 N -8.928839062500238E-002 -3.33586099999999 -2.59193988125000 
 N -2.27037639062500 -2.94869699999999 -3.86956588125000 
 N -3.02270339062500 -2.72190399999999 -7.428388124999952E-002
 S -0.858559390625002 -6.43776299999999 -4.24768588125000 
 S -3.83987339062500 -6.05666799999999 -1.34870288125000 
 S -1.45686639062500 -6.77931099999999 -0.134332881250000 
 S -0.725808390625002 -3.40546399999999 -4.13803788125000 
 S -3.83895239062500 -2.64098199999999 -1.48974288125000 
 S -1.39654039062500 -3.15473799999999 -0.137413881249999 
