16

 C -2.56162649687499 -6.41544104062500 -2.43293063437500 
 C -1.34302049687499 -6.75103004062500 -1.72434863437500 
 C -2.61991149687499 -2.47872704062500 -2.42889763437500 
 C -1.38473249687499 -3.00661904062500 -1.85140663437500 
 N -0.260798496874990 -6.81663904062500 -2.51133363437500 
 N -2.42522249687499 -6.22540104062500 -3.74921163437500 
 N -3.31537649687499 -6.65613804062500 7.262336562500127E-002
 N -0.392896496874990 -3.29721604062500 -2.72797263437500 
 N -2.48573049687499 -2.21505804062500 -3.72322263437500 
 N -3.13063249687499 -2.70338504062500 8.917636562500131E-002
 S -0.807660496874991 -6.53051604062500 -4.07808563437500 
 S -4.05375049687499 -6.57054204062500 -1.44144763437500 
 S -1.61928249687499 -6.94979704062500 1.712365625001322E-003
 S -0.978625496874991 -2.72848304062500 -4.19024163437500 
 S -3.96787049687499 -2.21626004062500 -1.25824363437500 
 S -1.55083849687499 -3.18762004062500 -5.766363437499855E-002
