16

 C -2.47340340625000 -6.36403515312500 -2.55397613125000 
 C -1.29371940625000 -6.95676215312500 -1.93034313125000 
 C -2.38243140625000 -2.56904415312500 -2.45943913125000 
 C -1.23333940625000 -3.19579715312500 -1.78239213125000 
 N -0.240150406250000 -7.09097115312500 -2.75032813125000 
 N -2.27544740625000 -6.06926815312500 -3.83360113125000 
 N -3.24688240625000 -6.76205315312500 -7.002613124999946E-002
 N -0.291420406250000 -3.55486715312500 -2.62461413125000 
 N -2.23370440625000 -2.43915015312500 -3.77369613125000 
 N -2.97050140625000 -2.68880615312500 3.884086875000059E-002
 S -0.753185406250000 -6.46976215312500 -4.19858613125000 
 S -3.81320540625000 -6.11798615312500 -1.47006513125000 
 S -1.60375340625000 -7.23554815312500 -0.169971131249999 
 S -0.716852406250000 -3.02147815312500 -4.15713913125000 
 S -3.72612940625000 -2.16559215312500 -1.35325613125000 
 S -1.49037340625000 -3.43521915312500 -0.112258131249999 
