16

 C -2.53468051875000 -6.35489690000000 -2.29494995937500 
 C -1.30160851875000 -6.86820490000000 -1.71291795937500 
 C -2.54034351875000 -2.96563390000000 -2.46988995937500 
 C -1.31667851875000 -3.36360390000000 -1.83992195937500 
 N -0.323621518750002 -7.06218890000000 -2.60907395937500 
 N -2.54256451875000 -6.20757590000000 -3.63785595937500 
 N -3.05190751875000 -6.77115190000000 0.223743040625000 
 N -0.268122518750002 -3.31741890000000 -2.57813495937500 
 N -2.43486451875000 -2.77853690000000 -3.78001895937500 
 N -2.98610151875000 -3.22788190000000 9.261804062500012E-002
 S -1.00372951875000 -6.53439490000000 -4.09871395937500 
 S -3.85685851875000 -6.22082390000000 -1.16891895937500 
 S -1.45192851875000 -7.14596590000000 2.496104062500026E-002
 S -0.841777518750003 -2.98527290000000 -4.16058495937500 
 S -3.81157751875000 -2.95918090000000 -1.28999995937500 
 S -1.40644751875000 -3.76433790000000 -0.198925959375000 
