16

 C -2.34919178437500 -6.35031380312500 -2.33526149375000 
 C -1.13526378437500 -6.82581180312500 -1.75911049375000 
 C -2.41287878437500 -2.92327080312500 -2.50327949375000 
 C -1.15330578437500 -3.32302780312500 -1.85351849375000 
 N -0.138587784375000 -7.02948180312500 -2.63347149375000 
 N -2.30781278437500 -6.14247880312500 -3.66061349375000 
 N -2.84762378437500 -6.84436780312500 0.141716506249999 
 N -0.110207784375000 -3.31302080312500 -2.68886749375000 
 N -2.35158178437500 -2.72970780312500 -3.78445749375000 
 N -2.97939978437500 -3.34959380312500 8.164506249999315E-003
 S -0.752590784375000 -6.46947780312500 -4.04867249375000 
 S -3.71063578437500 -6.42866580312500 -1.18448149375000 
 S -1.22108878437500 -7.22303580312500 -9.246849375000088E-002
 S -0.802312784374999 -2.93160780312500 -4.29844349375000 
 S -3.74921378437500 -2.93789080312500 -1.40209349375000 
 S -1.35400978437500 -3.62284580312500 -0.144574493750001 
