16

 C -2.14699197187501 -6.39296288125000 -2.50087438125000 
 C -1.03114597187501 -7.03547488125000 -1.86243838125000 
 C -2.64817297187501 -2.40144388125000 -2.42775538125000 
 C -1.53675997187501 -3.01214688125000 -1.78638138125000 
 N 7.809028124991180E-003 -7.25630888125000 -2.66925338125000 
 N -2.03353697187501 -6.23232588125000 -3.82861138125000 
 N -2.79929197187501 -6.55196188125000 -3.897538124999933E-002
 N -0.530926971875008 -3.45171488125000 -2.53963238125000 
 N -2.47754597187501 -2.17510288125000 -3.70619038125000 
 N -3.25860897187501 -2.45078288125000 0.104705618750001 
 S -0.514785971875009 -6.87522888125000 -4.23067138125000 
 S -3.53489597187501 -6.11869288125000 -1.49292938125000 
 S -1.33225697187501 -7.31368488125000 -0.195505381249999 
 S -0.942932971875009 -2.78536288125000 -4.04802738125000 
 S -3.93798097187501 -1.93226388125000 -1.32332038125000 
 S -1.77849197187501 -3.14697088125000 -5.800638124999935E-002
