16

 C -2.46078860624999 -6.38518601562500 -2.47441945000000 
 C -1.16148460624999 -6.59423401562500 -1.74299745000000 
 C -2.24543160624999 -2.83314501562500 -2.42851845000000 
 C -0.961853606249994 -3.21479201562500 -1.78422845000000 
 N -7.016260624999404E-002 -6.74243001562500 -2.49492045000000 
 N -2.27078760624999 -6.34391601562500 -3.76004645000000 
 N -3.10223760624999 -6.45130101562500 5.926549999999198E-003
 N -1.510960624999491E-002 -3.32676801562500 -2.66797345000000 
 N -2.20936260624999 -2.75040601562500 -3.76294045000000 
 N -2.60389160624999 -3.26129801562500 0.143614549999999 
 S -0.625199606249994 -6.57757201562500 -4.04955645000000 
 S -3.84276060624999 -6.17274401562500 -1.44720145000000 
 S -1.42031860624999 -6.83902001562500 -1.007745000000071E-002
 S -0.615139606249994 -2.94748801562500 -4.15620345000000 
 S -3.56113960624999 -2.83264001562500 -1.20911545000000 
 S -0.967865606249994 -3.54914901562500 -7.672645000000067E-002
