16

 C -2.23597574062500 -6.45321759062500 -2.41417897187500 
 C -0.960611740624998 -6.78853859062500 -1.81166197187500 
 C -2.55004574062500 -2.88828559062500 -2.55539097187500 
 C -1.41844874062500 -3.36780659062500 -1.76382197187500 
 N 6.170725937500166E-002 -6.86842559062500 -2.65365697187500 
 N -2.15987974062500 -6.16603359062500 -3.72818197187500 
 N -2.65941674062500 -6.69872659062500 9.704502812500171E-002
 N -0.363571740624998 -3.52618859062500 -2.52727397187500 
 N -2.40449874062500 -2.80788759062500 -3.87580397187500 
 N -3.25441274062500 -2.83507359062500 -8.047197187499844E-002
 S -0.548064740624998 -6.49386859062500 -4.14115197187500 
 S -3.51817374062500 -6.38871559062500 -1.30626697187500 
 S -1.00244474062500 -7.03442359062500 -6.609897187499847E-002
 S -0.726969740624998 -3.06422159062500 -4.09804297187500 
 S -3.90936674062500 -2.45580859062500 -1.52390397187500 
 S -1.68023274062500 -3.34503659062500 -3.128697187499840E-002
