16

 C -2.49740915312500 -6.30631796875000 -2.32906049375000 
 C -1.21650815312500 -6.76621996875000 -1.74496049375000 
 C -2.47237815312500 -2.78343496875000 -2.92311049375000 
 C -1.22478015312500 -2.88318296875000 -2.22441449375000 
 N -0.109203153124996 -6.69321296875000 -2.50202349375000 
 N -2.36245915312500 -6.08219896875000 -3.65425049375000 
 N -2.97007915312500 -6.65738096875000 0.245394506250002 
 N -0.194309153124997 -2.76797296875000 -3.00868849375000 
 N -2.45724815312500 -2.54614796875000 -4.21724449375000 
 N -2.92712715312500 -3.14861996875000 -0.305064493749998 
 S -0.711638153124997 -6.25480196875000 -3.97433649375000 
 S -3.73026715312500 -6.16817496875000 -1.10603949375000 
 S -1.30989015312500 -7.15807596875000 1.364450625000191E-002
 S -0.776928153124996 -2.62791796875000 -4.59678849375000 
 S -3.77724215312500 -2.87191596875000 -1.74427249375000 
 S -1.27083715312500 -3.05144796875000 -0.507766493749998 
