16

 C -2.37492543125000 -6.32523674687500 -2.57722704687500 
 C -1.15896543125000 -6.68161074687500 -1.85590104687500 
 C -2.39030443125000 -2.76313874687500 -2.61088804687500 
 C -1.15933943125000 -3.10769274687500 -1.95053204687500 
 N -0.101797431249997 -6.93412874687500 -2.63396104687500 
 N -2.22030943125000 -6.28195174687500 -3.88382904687500 
 N -3.04361643125000 -6.30707474687500 -9.727304687499827E-002
 N -0.134160431249996 -3.25399274687500 -2.76898704687500 
 N -2.29881943125000 -2.57083774687500 -3.93740404687500 
 N -2.87337743125000 -2.98466574687500 -5.962804687499812E-002
 S -0.604740431249996 -6.62218074687500 -4.23811504687500 
 S -3.85194343125000 -6.22292374687500 -1.58220004687500 
 S -1.49644643125000 -6.84489074687500 -0.102966046874998 
 S -0.729668431249997 -2.83253774687500 -4.29900004687500 
 S -3.72054943125000 -2.56169074687500 -1.43399604687500 
 S -1.22834843125000 -3.24260174687500 -0.181332046874998 
