16

 C -2.48264277500000 -6.70934084375000 -2.45640936562500 
 C -1.18354477500000 -7.00322384375000 -1.86569836562500 
 C -2.58145377500000 -2.90363984375000 -2.24277436562500 
 C -1.35097077500000 -3.32584284375000 -1.67815836562500 
 N -0.224412774999997 -7.20951584375000 -2.74635236562500 
 N -2.45383577500000 -6.67712984375000 -3.77073036562500 
 N -2.91862677500000 -6.88805384375000 0.131451634375002 
 N -0.359596774999996 -3.37432484375000 -2.55615436562500 
 N -2.52094677500000 -2.64308184375000 -3.53187236562500 
 N -3.02865677500000 -3.05141184375000 0.302771634375002 
 S -0.861983774999997 -6.93515784375000 -4.26586836562500 
 S -3.69940777500000 -6.40098084375000 -1.30211036562500 
 S -1.30441477500000 -7.11831784375000 -0.109238365624998 
 S -0.993682774999996 -3.02307484375000 -4.02154936562500 
 S -3.82316277500000 -2.46379284375000 -1.03129636562500 
 S -1.42919377500000 -3.48106984375000 3.851063437500235E-002
