16

 C -2.52387614062500 -6.52184567500000 -2.41610124375000 
 C -1.41908414062500 -7.09134567500000 -1.70017924375000 
 C -2.31096014062500 -2.76509367500000 -2.53595724375000 
 C -1.11059614062500 -3.27519767500000 -1.84996224375000 
 N -0.344655140624997 -7.39539667500000 -2.43029424375000 
 N -2.31806614062500 -6.39369867500000 -3.70942224375000 
 N -3.34065814062500 -6.54211367500000 4.567756250001720E-003
 N -0.100552140624997 -3.47819167500000 -2.70973424375000 
 N -2.15688414062500 -2.49282467500000 -3.82615224375000 
 N -3.00535014062500 -2.97514067500000 -2.772324374999835E-002
 S -0.755876140624998 -6.96113567500000 -3.99826424375000 
 S -3.84541514062500 -6.04806867500001 -1.45178724375000 
 S -1.75102114062500 -7.05034967500000 3.587275625000186E-002
 S -0.613923140624998 -3.00393367500000 -4.14952524375000 
 S -3.68606214062500 -2.66784867500000 -1.51014624375000 
 S -1.39199914062500 -3.37103867500000 -0.134655243749998 
