16

 C -2.24907815937501 -6.45322760937500 -2.16920684375000 
 C -1.07703015937501 -7.00267660937500 -1.49369684375000 
 C -2.38267415937501 -2.71321360937500 -2.36869184375000 
 C -1.18690415937501 -3.16671060937500 -1.75207884375000 
 N -3.955615937500578E-002 -7.22906460937500 -2.32087984375000 
 N -2.10218015937501 -6.26982060937500 -3.48909284375000 
 N -3.00305615937501 -6.75239560937500 0.284117156249999 
 N -0.106883159375005 -3.28201760937500 -2.54246684375000 
 N -2.25721015937501 -2.35540160937500 -3.65109684375000 
 N -2.94671115937501 -3.15249060937500 0.153395156249999 
 S -0.565869159375006 -6.77218360937500 -3.84339084375000 
 S -3.65093215937501 -6.29936760937500 -1.20400084375000 
 S -1.42629515937501 -7.22932760937500 0.259745156249999 
 S -0.702597159375006 -2.69837660937500 -4.03294084375000 
 S -3.78631315937501 -2.66000260937500 -1.21841384375000 
 S -1.38131115937501 -3.68767260937500 -5.333284375000069E-002
