16

 C -2.68914697812500 -6.49575631250000 -2.35514862812500 
 C -1.49611497812500 -6.88923031250000 -1.66702462812500 
 C -2.52482097812500 -2.61223531250000 -2.47987162812500 
 C -1.26193997812500 -3.11514931250001 -1.83200162812500 
 N -0.477249978124999 -7.23648631250000 -2.47069262812500 
 N -2.47412497812500 -6.36242331250000 -3.66098962812500 
 N -3.19708797812500 -6.48432131250000 0.182976371874999 
 N -0.375406978124999 -3.41399331250001 -2.75130262812500 
 N -2.52116797812500 -2.63852031250001 -3.81264662812500 
 N -2.93707797812500 -2.90488431250000 7.987437187499902E-002
 S -0.961467978124999 -6.91101031250000 -4.00986262812500 
 S -3.99643597812500 -6.18374131250000 -1.26882862812500 
 S -1.56731197812500 -6.90193031250000 9.700737187499908E-002
 S -1.01291297812500 -3.13899131250000 -4.26194162812500 
 S -3.80401197812500 -2.62759331250000 -1.26772462812500 
 S -1.34233897812500 -3.36613931250000 -9.794362812500079E-002
