16

 C -2.39243425000000 -6.51966850312500 -2.49422022812500 
 C -1.28938425000000 -7.01954150312500 -1.68397122812500 
 C -2.35127625000000 -2.86659350312500 -2.55826022812500 
 C -1.14888125000000 -3.31662050312500 -1.89119822812500 
 N -0.182906249999996 -7.23347650312500 -2.36467222812500 
 N -2.14726525000000 -6.40755550312500 -3.78935422812500 
 N -3.21421025000000 -6.79277050312500 -4.217122812500218E-002
 N -9.142624999999605E-002 -3.48985650312500 -2.70352922812500 
 N -2.18856425000000 -2.60853950312500 -3.85813422812500 
 N -2.93577925000000 -3.07248350312500 -4.093622812500231E-002
 S -0.552600249999996 -6.96005650312500 -3.96332922812500 
 S -3.80749725000000 -6.20204450312500 -1.50449022812500 
 S -1.60863325000000 -7.28296250312500 -1.094422812500206E-002
 S -0.606348249999996 -3.07616250312500 -4.16442622812500 
 S -3.77691325000000 -2.68880350312500 -1.50524922812500 
 S -1.34996525000000 -3.61553650312500 -0.168662228125002 
