16

 C -2.33973271250000 -6.34466690000000 -2.31480994687500 
 C -1.12153171250000 -6.87090290000000 -1.77108794687500 
 C -2.39265071250000 -2.92830490000000 -2.48943394687500 
 C -1.13306771250000 -3.32638490000000 -1.82155394687500 
 N -0.133824712499997 -7.04540390000000 -2.65854294687500 
 N -2.30125771250000 -6.15480390000000 -3.63116994687500 
 N -2.83202571250000 -6.83895290000000 0.139982053125002 
 N -9.884171249999785E-002 -3.31508690000000 -2.63938194687500 
 N -2.35112671250000 -2.75432990000000 -3.78165894687500 
 N -2.99931671250000 -3.37328690000000 1.564053125001852E-003
 S -0.747901712499997 -6.46476290000000 -4.06526494687500 
 S -3.68782571250000 -6.40493190000000 -1.20762394687500 
 S -1.22414871250000 -7.24457190000000 -8.186894687499802E-002
 S -0.790128712499998 -2.96990790000000 -4.27340394687500 
 S -3.73810571250000 -2.92996990000000 -1.38156494687500 
 S -1.35489871250000 -3.63274590000000 -0.148562946874998 
