16

 C -2.44304035312500 -6.40776820312500 -2.48108921250000 
 C -1.23333635312500 -6.86257020312500 -1.82572921250000 
 C -2.46436935312500 -2.49394520312500 -2.17487821250000 
 C -1.25651535312500 -2.97709320312500 -1.58699921250000 
 N -0.163520353124997 -7.01145920312500 -2.62130821250000 
 N -2.24192035312500 -6.21454920312500 -3.79262421250000 
 N -3.02701235312500 -6.59926220312500 6.228878749999911E-002
 N -0.276175353124997 -3.12184720312500 -2.47327521250000 
 N -2.50150735312500 -2.42508220312500 -3.52596221250000 
 N -2.94131935312500 -2.92796620312500 0.340975787499999 
 S -0.685076353124997 -6.64361920312500 -4.17761221250000 
 S -3.71476935312500 -6.08057420312500 -1.35634921250000 
 S -1.42162435312500 -7.08946020312500 -7.225021250000108E-002
 S -0.962444353124997 -2.83314720312500 -3.96028721250000 
 S -3.74965335312500 -2.35146420312500 -0.948532212500001 
 S -1.35341435312500 -3.38913220312500 0.112564787499999 
