16

 C -2.51877193750001 -6.53207426250000 -2.41801635937500 
 C -1.23030593750001 -6.93387026250000 -1.94217035937500 
 C -2.64294893750001 -2.76085626250000 -2.48650535937500 
 C -1.48661993750001 -3.22267226250000 -1.71319135937500 
 N -0.280924937500008 -6.90950626250000 -2.88498235937500 
 N -2.51243693750001 -6.36511426250000 -3.74193435937500 
 N -2.77971393750001 -6.86119226250000 7.093364062500185E-002
 N -0.497261937500008 -3.59292326250000 -2.51434835937500 
 N -2.41608393750001 -2.71290626250000 -3.79156335937500 
 N -3.28457293750001 -2.67282226250000 -5.989935937499835E-002
 S -1.02070393750001 -6.55517826250000 -4.33829735937500 
 S -3.74947093750001 -6.46080526250000 -1.25581435937500 
 S -1.23070493750001 -7.48422226250000 -0.247035359374998 
 S -0.867188937500008 -3.32535526250000 -4.07721135937500 
 S -3.89840193750001 -2.06325526250000 -1.52300035937500 
 S -1.75125193750001 -3.23450226250000 -3.946635937499821E-002
