16

 C -2.44606697187500 -6.38420123124999 -2.51858802812500 
 C -1.26994497187500 -6.73383723124999 -1.82556602812500 
 C -2.74657797187500 -2.91854523124999 -2.54114702812500 
 C -1.59777497187500 -3.55572723124999 -1.90888302812500 
 N -0.199489971875000 -6.97304023124999 -2.57972902812500 
 N -2.33709897187500 -6.29853223124999 -3.82271302812500 
 N -3.12359597187500 -6.64390823124999 -8.006102812500093E-002
 N -0.513386971875000 -3.66449823124999 -2.68090502812500 
 N -2.51131697187500 -2.58259823124999 -3.83368802812500 
 N -3.35456097187500 -3.32037523124999 3.629971874999027E-003
 S -0.759294971875000 -6.68717523125000 -4.13930602812500 
 S -3.81846197187500 -6.20904323124999 -1.58592902812500 
 S -1.54430997187500 -7.04399023124999 -0.185233028125001 
 S -1.00732997187500 -3.10082523124999 -4.20717302812500 
 S -4.06452797187500 -2.70895123124999 -1.37223402812500 
 S -1.76111897187500 -3.81443823124999 -0.169047028125001 
