16

 C -2.38074225625000 -6.32918380000000 -2.54618201250000 
 C -1.08372425625000 -6.55589880000000 -1.94486501250000 
 C -2.80565425625000 -2.78084080000000 -2.36701501250000 
 C -1.60249125625000 -3.31541280000000 -1.70876901250000 
 N -0.135176256250000 -6.84693580000000 -2.81674801250000 
 N -2.39601125625000 -6.35761980000000 -3.87321201250000 
 N -2.77345025625000 -6.35063180000000 -2.108501250000061E-002
 N -0.533141256250000 -3.47620780000000 -2.51442301250000 
 N -2.71195625625000 -2.56839680000000 -3.69512901250000 
 N -3.27824425625000 -2.84498080000000 0.203934987499999 
 S -0.799453256250001 -6.71606380000000 -4.34412101250000 
 S -3.60536425625000 -6.08522280000000 -1.42799801250000 
 S -1.16822425625000 -6.70026280000000 -0.188007012500000 
 S -1.15396125625000 -3.09550980000000 -4.04901001250000 
 S -4.08451825625000 -2.54981680000000 -1.22210301250000 
 S -1.69766825625000 -3.23889280000000 3.612498749999937E-002
