16

 C -2.64344005000000 -6.39756371875000 -2.31719372500000 
 C -1.46147705000000 -6.91971071875000 -1.64083572500000 
 C -2.47655705000000 -2.73118371875000 -2.42032272500000 
 C -1.23440005000000 -3.10630871875000 -1.87204372500000 
 N -0.461583050000001 -7.21150371875000 -2.45203172500000 
 N -2.55111405000000 -6.30222371875000 -3.63318972500000 
 N -3.17557905000000 -6.46198171875000 0.188870275000001 
 N -0.283909050000000 -3.48382271875000 -2.73273372500000 
 N -2.47937705000000 -2.63173571875000 -3.74860072500000 
 N -2.90450605000000 -2.92679971875000 0.153329275000001 
 S -1.01064505000000 -6.89810771875000 -3.98789972500000 
 S -4.01786505000000 -6.17334371875000 -1.24240872500000 
 S -1.58798305000000 -6.96700071875000 4.232727500000055E-002
 S -0.949395050000001 -3.15037671875000 -4.23410272500000 
 S -3.75208905000000 -2.62728171875000 -1.28324972500000 
 S -1.31529705000000 -3.33782971875000 -0.122799724999999 
