16

 C -2.28266196250000 -6.07140145625000 -2.27920656562500 
 C -1.11454796250000 -6.72766445625000 -1.73645156562500 
 C -2.73377796250000 -2.45091545625000 -2.71073656562500 
 C -1.49379896250000 -2.83180645625000 -2.08124656562500 
 N -0.233925962500000 -7.04916845625000 -2.66974756562500 
 N -2.23783696250000 -5.85415745625000 -3.58994356562500 
 N -2.66129696250000 -6.40303445625000 0.297175434374997 
 N -0.490064962500000 -3.09166745625000 -2.97499256562500 
 N -2.65865996250000 -2.29333945625000 -4.04753356562500 
 N -3.18140396250000 -2.38597245625000 -0.163414565625003 
 S -0.813002962500000 -6.55444945625000 -4.14457356562500 
 S -3.49078096250000 -5.75007745625000 -1.03633556562500 
 S -1.20455796250000 -7.04179445625000 -7.471456562500300E-002
 S -1.11277796250000 -2.75583645625000 -4.38830556562500 
 S -3.98872496250000 -2.17613545625000 -1.63588556562500 
 S -1.60857796250000 -2.83477845625000 -0.365262565625003 
