16

 C -2.58059603125000 -6.34156881250000 -2.54079984375000 
 C -1.41390103125000 -6.87459081250000 -1.89769884375000 
 C -2.71663603125000 -2.57266781250000 -2.48704584375000 
 C -1.59069203125000 -3.17437181250000 -1.80690884375000 
 N -0.374356031250002 -6.90241781250000 -2.69777284375000 
 N -2.44532003125000 -6.03072481250000 -3.80822084375000 
 N -3.23131503125000 -6.57536381250000 -6.513384375000086E-002
 N -0.473244031250002 -3.35038381250000 -2.55539384375000 
 N -2.45152803125000 -2.34954781250000 -3.77107584375000 
 N -3.41373903125000 -2.80573081250000 1.400115624999909E-002
 S -0.875852031250003 -6.48935781250000 -4.24299984375000 
 S -3.88907203125000 -6.01986881250000 -1.47662784375000 
 S -1.65548303125000 -7.22059581250000 -0.203040843750001 
 S -0.834579031250002 -2.85991381250000 -4.02156084375000 
 S -4.12708403125000 -2.47138181250000 -1.46025584375000 
 S -1.89733703125000 -3.44157181250000 -0.103723843750001 
