16

 C -2.42094926562500 -6.51990091562500 -2.32644396250000 
 C -1.22784626562500 -7.00464591562500 -1.61490196250000 
 C -2.53282326562500 -2.71046591562500 -2.52640296250000 
 C -1.28386726562500 -3.14056091562500 -1.82257496250000 
 N -0.218764265625004 -7.18058491562500 -2.45134196250000 
 N -2.32258326562500 -6.28933691562500 -3.62025896250000 
 N -3.15304026562500 -6.61652891562500 0.146496037500001 
 N -0.176042265625004 -3.26430191562500 -2.58051296250000 
 N -2.32080926562500 -2.47756791562500 -3.83197396250000 
 N -3.14762426562500 -3.18482991562500 -3.057596249999861E-002
 S -0.747657265625004 -6.75962691562500 -4.00340596250000 
 S -3.87495426562500 -6.36272491562500 -1.34616796250000 
 S -1.58649026562500 -7.23535691562500 0.125889037500001 
 S -0.721774265625005 -2.76210791562500 -4.10241696250000 
 S -3.87541226562500 -2.74017791562500 -1.45101596250000 
 S -1.51334526562500 -3.40383191562500 -8.578596249999881E-002
