16

 C -2.41084731250000 -6.41039879687500 -2.34251395625000 
 C -1.18912831249999 -6.82390379687500 -1.69545095625000 
 C -2.47815431249999 -3.16099879687500 -2.04834295625000 
 C -1.20432731249999 -3.44459179687500 -1.39737095625000 
 N -0.185732312499995 -6.89076279687500 -2.56050695625000 
 N -2.34353231249999 -6.24507179687500 -3.67362595625000 
 N -2.98149231250000 -6.94407879687500 0.177158043749999 
 N -0.158236312499995 -3.48038279687500 -2.25271295625000 
 N -2.29534931249999 -2.94181979687500 -3.35703595625000 
 N -2.97645931249999 -3.37059579687500 0.458156043749999 
 S -0.784024312499995 -6.66119279687500 -4.09446695625000 
 S -3.75566031249999 -6.53265679687500 -1.20715695625000 
 S -1.28117631250000 -7.09994979687500 6.414704374999869E-002
 S -0.725284312499995 -3.25190779687500 -3.75866695625000 
 S -3.80786431250000 -3.05696479687500 -0.988406956250001 
 S -1.33161231249999 -3.55107979687500 0.348321043749999 
