16

 C -2.34085960000000 -6.36500367187500 -2.49077928125000 
 C -1.16187360000000 -6.82739667187500 -1.79739128125000 
 C -2.34546560000000 -2.59140167187500 -2.40436328125000 
 C -1.19223260000000 -3.05633867187500 -1.74006528125000 
 N -0.147116600000002 -6.96794767187500 -2.64395628125000 
 N -2.21717560000000 -6.18292567187500 -3.81066428125000 
 N -3.04000160000000 -6.65790867187500 2.017371874999596E-002
 N -0.169611600000002 -3.32238367187500 -2.52250928125000 
 N -2.20741460000000 -2.48040067187500 -3.70534028125000 
 N -3.00220860000000 -2.88031767187500 3.076271874999592E-002
 S -0.695169600000002 -6.57331067187500 -4.17644028125000 
 S -3.71814460000000 -6.30135567187500 -1.50305028125000 
 S -1.43963360000000 -7.05560567187500 -0.130411281250004 
 S -0.633465600000003 -3.03154967187500 -4.07567328125000 
 S -3.66210060000000 -2.36599367187500 -1.42055928125000 
 S -1.40788060000000 -3.13123767187500 -9.531281250004131E-003
