16

 C -2.30626002500000 -6.49000379687500 -2.50830755937500 
 C -1.07985102500000 -6.83615179687500 -1.83941255937500 
 C -2.50883402500000 -2.50019879687500 -2.64655455937500 
 C -1.44319902500000 -3.06507979687500 -1.86483555937500 
 N -1.489302500000278E-002 -6.92692579687500 -2.64563655937500 
 N -2.13980402500000 -6.22050079687500 -3.82286355937500 
 N -2.93560602500000 -6.54935379687500 -3.778559374999713E-003
 N -0.377816025000003 -3.36276979687500 -2.56042655937500 
 N -2.25981502500000 -2.28879279687500 -3.92797155937500 
 N -3.47380702500000 -2.81462479687500 -0.264300559375000 
 S -0.574435025000003 -6.56623579687500 -4.21996955937500 
 S -3.71640302500000 -6.31688879687500 -1.52237655937500 
 S -1.28659702500000 -6.78277779687500 -9.052155937499973E-002
 S -0.628597025000003 -2.68159479687500 -4.08522555937500 
 S -3.96357702500000 -2.23313279687500 -1.73455455937500 
 S -1.85896102500000 -3.28833779687500 -0.195107559375000 
