16

 C -2.60063895625000 -6.34616022812500 -2.60138008125000 
 C -1.32227095625000 -6.84642722812500 -2.06912208125000 
 C -2.66238695625000 -2.95302622812500 -2.30714608125000 
 C -1.50906495625000 -3.43669922812500 -1.63437308125000 
 N -0.409569956250002 -6.97161822812500 -3.02227308125000 
 N -2.69624895625000 -6.21989422812500 -3.93461108125000 
 N -2.80252695625000 -6.55628522812500 2.678991874999892E-002
 N -0.438640956250002 -3.63442622812500 -2.37345608125000 
 N -2.48519095625000 -2.70122322812500 -3.58478908125000 
 N -3.34345195625000 -3.18353222812500 0.171869918749999 
 S -1.15130395625000 -6.66176422812500 -4.46793408125000 
 S -3.85336295625000 -6.31663822812500 -1.21185808125000 
 S -1.26353995625000 -7.14635622812500 -0.327921081250001 
 S -0.928191956250002 -3.15952322812500 -3.89323408125000 
 S -3.98278095625000 -2.67400122812500 -1.23954408125000 
 S -1.71997795625000 -3.40932522812500 0.105637918749999 
