16

 C -2.51632145312500 -6.61359403750000 -2.53162634687500 
 C -1.19056745312500 -6.81669703750000 -1.90499734687500 
 C -2.33663445312500 -3.17849803750000 -2.19600934687500 
 C -1.11604245312500 -3.63607303750000 -1.55401234687500 
 N -0.128064453124999 -6.94052503750000 -2.69400434687500 
 N -2.39478545312500 -6.54339803750000 -3.83773534687500 
 N -2.99408245312500 -6.58749803750000 4.485653124997491E-003
 N -0.111164453124998 -3.90935703750000 -2.37743234687500 
 N -2.22968945312500 -2.90458303750000 -3.51863834687500 
 N -2.87949645312500 -3.52590203750000 0.330748653124997 
 S -0.790272453124999 -6.83827703750000 -4.23843534687500 
 S -3.83098845312500 -6.39663603750000 -1.39958234687500 
 S -1.36618645312500 -6.78004303750000 -0.143639346875002 
 S -0.635393453124999 -3.31138503750000 -3.82709234687500 
 S -3.72504545312500 -3.25349103750000 -1.11321734687500 
 S -1.24896045312500 -3.75803003750000 0.228036653124998 
