16

 C -2.53451835625001 -6.70641496875001 -2.37604929375000 
 C -1.29639435625001 -6.94495996875001 -1.69296029375000 
 C -2.25489735625001 -3.00596796875001 -2.46250529375000 
 C -1.02767535625001 -3.40843696875001 -1.81043929375000 
 N -0.259439356250009 -6.89774496875000 -2.53737629375000 
 N -2.49526335625001 -6.44617496875001 -3.68659529375000 
 N -3.04821935625001 -7.16350996875001 0.149892706250000 
 N 3.084064374998974E-002 -3.57235396875001 -2.62913929375000 
 N -2.07650935625001 -2.73482696875001 -3.75440229375000 
 N -2.78086635625001 -2.99489696875001 6.060870625000003E-002
 S -0.855448356250009 -6.53113196875000 -4.06458629375000 
 S -3.90962135625001 -6.92225596875001 -1.28332929375000 
 S -1.41082135625001 -7.14227096875001 3.881706250000061E-003
 S -0.510456356250010 -3.27094296875001 -4.16027529375000 
 S -3.62796835625001 -2.76830596875001 -1.41349629375000 
 S -1.20737735625001 -3.42140396875001 -2.581529375000002E-002
