16

 C -2.57927668124999 -6.45668093437500 -2.33562029062500 
 C -1.32103868124999 -6.92716693437500 -1.71507329062500 
 C -2.41970268124999 -2.89041293437500 -2.18081829062500 
 C -1.15221468124999 -3.30327993437500 -1.64173929062500 
 N -0.311021681249994 -7.07302593437500 -2.55109229062500 
 N -2.43145568124999 -6.27336093437500 -3.63971329062500 
 N -3.06630968124999 -6.80521893437500 0.131051709374999 
 N -0.170062681249994 -3.45719893437500 -2.51888029062500 
 N -2.38412568124999 -2.66070493437500 -3.47857129062500 
 N -2.83661868124999 -2.95052893437500 0.353776709374999 
 S -0.924017681249994 -6.76421793437500 -4.04979229062500 
 S -3.96856768124999 -6.38331093437500 -1.26324029062500 
 S -1.46019568124999 -7.19728793437500 -7.152906250005309E-004
 S -0.791336681249994 -2.99432093437500 -4.03810329062500 
 S -3.68283368124999 -2.48366493437500 -1.02556829062500 
 S -1.27308168124999 -3.47240993437500 0.141021709374999 
