16

 C -2.65899407500000 -6.20750069375000 -2.28161650625000 
 C -1.41452307500000 -6.68280069375000 -1.69627750625000 
 C -2.38235107500000 -2.56182069375000 -2.49716850625000 
 C -1.21364607500000 -3.02164769375000 -1.77368550625000 
 N -0.388908074999999 -6.97382469375000 -2.51820150625000 
 N -2.59506107500000 -6.11885969375000 -3.61430950625000 
 N -3.12434607500000 -6.45778069375000 0.235159493750002 
 N -0.175285074999999 -3.34640869375000 -2.52792550625000 
 N -2.28993407500000 -2.48599069375000 -3.80785650625000 
 N -3.08460007500000 -2.74956769375000 5.455549375000213E-002
 S -1.03073907500000 -6.55219669375000 -3.99803550625000 
 S -3.87865607500000 -5.84293869375000 -1.09040050625000 
 S -1.49446207500000 -6.86506169375000 -8.525062499977754E-004
 S -0.732536074999999 -2.98061769375000 -4.11363150625000 
 S -3.72264807500000 -2.30663069375000 -1.38235750625000 
 S -1.45635107500000 -3.02673069375000 -3.823350624999788E-002
