16

 C -2.31235743749999 -6.55309398437500 -2.24030532187500 
 C -1.17913343749999 -7.04605798437500 -1.49808632187500 
 C -2.42115243749999 -2.70678898437500 -2.34912732187500 
 C -1.23660843749999 -3.16002598437500 -1.74542832187500 
 N -0.112088437499994 -7.20459798437500 -2.25256532187500 
 N -2.12006343749999 -6.34459398437500 -3.53374232187500 
 N -3.07176443749999 -6.74091898437500 0.214947678125002 
 N -0.184987437499994 -3.16894998437500 -2.56789932187500 
 N -2.30450343749999 -2.45200498437500 -3.64255832187500 
 N -3.01047243749999 -3.21761098437500 0.105472678125002 
 S -0.526426437499994 -6.75822998437500 -3.83475532187500 
 S -3.73636843749999 -6.21152698437500 -1.21272932187500 
 S -1.45269143749999 -7.22413098437500 0.238730678125002 
 S -0.635665437499994 -2.67026098437500 -4.04507632187500 
 S -3.76552343749999 -2.69417198437500 -1.28873232187500 
 S -1.38974443749999 -3.66437698437500 -7.712332187499760E-002
