16

 C -2.44683760937500 -6.38937683125000 -2.38034363750000 
 C -1.18586160937500 -6.81350683125000 -1.79200763750000 
 C -2.31806760937500 -2.94670183125000 -2.46468563750000 
 C -1.05665460937500 -3.26549083125000 -1.82955763750000 
 N -0.207188609375000 -6.97091683125000 -2.69648263750000 
 N -2.43420460937500 -6.33519383125000 -3.72609463750000 
 N -2.92122160937500 -6.46240083125000 0.167315362500000 
 N -3.488609375000173E-003 -3.44445883125000 -2.64590363750000 
 N -2.25529560937500 -2.88228283125000 -3.80767763750000 
 N -2.77065860937500 -3.15835483125000 9.759836249999987E-002
 S -0.902440609375000 -6.72500683125000 -4.24223463750000 
 S -3.78579260937500 -6.28349183125000 -1.25730963750000 
 S -1.33346760937500 -6.91975183125000 -2.535763749999997E-002
 S -0.678746609375000 -3.20307483125000 -4.14497263750000 
 S -3.63170560937500 -2.69995983125000 -1.25646663750000 
 S -1.20029260937500 -3.49366483125000 -7.864263750000022E-002
