16

 C -2.55966562812500 -6.35297559062500 -2.38525279375000 
 C -1.31351362812500 -6.64965159062500 -1.77091479375000 
 C -2.49805862812500 -2.36919559062500 -2.87765979375000 
 C -1.32807662812500 -2.88453059062500 -2.16057079375000 
 N -0.224761628125000 -6.71989259062500 -2.55654579375000 
 N -2.40804562812500 -6.16808359062500 -3.68988379375000 
 N -3.00554662812500 -6.57652159062500 0.175812206250002 
 N -0.228097628125000 -3.05374759062500 -2.88138879375000 
 N -2.20630462812500 -2.13048559062500 -4.13390079375000 
 N -3.27836862812500 -2.72998159062500 -0.420511793749998 
 S -0.818196628124999 -6.42805759062500 -4.06264379375000 
 S -3.88564162812500 -6.53938559062500 -1.29948579375000 
 S -1.41309962812500 -6.88558159062500 -4.672979374999819E-002
 S -0.636323628125000 -2.50693659062500 -4.40287679375000 
 S -3.99172162812500 -2.16133059062500 -1.88580779375000 
 S -1.64769262812500 -3.16208859062500 -0.481435793749998 
