16

 C -2.43245986250000 -6.38293626250000 -2.48979710937500 
 C -1.24646586250000 -6.89346726250000 -1.81202810937500 
 C -2.47071186250000 -2.51060826250000 -2.15642110937500 
 C -1.28332586250000 -2.97367826250000 -1.59166610937500 
 N -0.173183862499998 -7.00316926250000 -2.60727210937500 
 N -2.28668286250000 -6.22270526250000 -3.81224510937500 
 N -3.04605986250000 -6.63680626250000 5.019089062500037E-002
 N -0.305014862499998 -3.15225726250000 -2.45488610937500 
 N -2.49265086250000 -2.43457726250000 -3.48183510937500 
 N -2.93239986250000 -2.93672926250000 0.324326890625000 
 S -0.705309862499998 -6.65121426250000 -4.17671410937500 
 S -3.69999786250000 -6.05333126250000 -1.36603910937500 
 S -1.43924986250000 -7.09268726250000 -8.046910937499963E-002
 S -0.946329862499998 -2.83472726250000 -3.96917310937500 
 S -3.73386386250000 -2.33159626250000 -0.948846109375000 
 S -1.35760186250000 -3.38711326250000 0.104649890625000 
