16

 C -2.41750886562500 -6.56881797500000 -2.28641386250000 
 C -1.26749286562500 -7.11120897500000 -1.59700186250000 
 C -2.46643586562500 -2.54401197500000 -2.42587086250000 
 C -1.24929486562500 -3.04755497500000 -1.80207386250000 
 N -0.297269865625000 -7.45066997500000 -2.45648086250000 
 N -2.31911386562500 -6.60949997500000 -3.59040286250000 
 N -3.06831686562500 -6.45685097500000 0.163229137499997 
 N -0.191486865625000 -3.13381597500000 -2.60640386250000 
 N -2.32198186562500 -2.36880597500000 -3.74332286250000 
 N -3.10460686562500 -2.96040197500000 -3.447286250000303E-002
 S -0.857493865625000 -7.25447497500000 -4.02805886250000 
 S -3.73951186562500 -6.25303097500000 -1.28550986250000 
 S -1.57554286562500 -7.28008597500000 9.125213749999705E-002
 S -0.745865865625000 -2.68048997500000 -4.11202786250000 
 S -3.75996886562500 -2.20227597500000 -1.37243486250000 
 S -1.53437186562500 -3.35283097500000 -0.181339862500003 
