16

 C -2.59528003750000 -6.18995134062500 -2.69673125000000 
 C -1.34904403750000 -6.53192434062500 -2.03198025000000 
 C -2.45825503750000 -2.70263634062500 -2.53683325000000 
 C -1.16195903750000 -2.98146834062500 -1.85550025000000 
 N -0.311921037499998 -6.66790034062500 -2.82981125000000 
 N -2.47810303750000 -5.98110834062500 -4.00891825000000 
 N -3.23385903750000 -6.74386534062500 -0.266594249999999 
 N -0.145578037499997 -3.23794534062500 -2.69219525000000 
 N -2.38887403750000 -2.65612434062500 -3.86896525000000 
 N -2.98088503750000 -2.84076334062500 2.121750000000588E-003
 S -0.896798037499997 -6.40761834062500 -4.35272925000000 
 S -3.97749603750000 -6.19452434062500 -1.68370925000000 
 S -1.53044403750000 -6.94806534062500 -0.344502250000000 
 S -0.791873037499998 -2.97026934062500 -4.17931725000000 
 S -3.83082903750000 -2.71673234062500 -1.39634925000000 
 S -1.35652203750000 -3.16077734062500 -0.141355250000000 
