16

 C -2.45130907187501 -6.58668225624999 -2.25484753125000 
 C -1.18404007187501 -6.77981925624999 -1.56370753125000 
 C -2.40320507187501 -2.80233325624999 -2.55715453125000 
 C -1.17609807187501 -3.24026825624999 -1.96219553125000 
 N -0.139827071875006 -6.83556625624999 -2.37116653125000 
 N -2.37496707187501 -6.46731625624999 -3.58595253125000 
 N -2.90995207187501 -6.82397625624999 0.232556468750002 
 N -0.165763071875006 -3.51935825624999 -2.78097453125000 
 N -2.26267507187501 -2.58000325624999 -3.88484353125000 
 N -2.80389507187501 -2.96390825624999 -1.165253124999821E-002
 S -0.747483071875006 -6.70154725624999 -3.89504253125000 
 S -3.78417107187501 -6.73753425624999 -1.17529853125000 
 S -1.31779007187501 -7.01192725624999 9.333946875000176E-002
 S -0.793706071875007 -3.08733925624999 -4.28121453125000 
 S -3.59768207187501 -2.41369125624999 -1.39266353125000 
 S -1.21200907187501 -3.40718425624999 -0.235801531249998 
