16

 C -2.35452735937500 -6.36883253750000 -2.53338617500000 
 C -1.14995535937500 -6.82549353750000 -1.84342017500000 
 C -2.29902635937500 -2.93661253750000 -2.43536017500000 
 C -1.00671635937500 -3.19784453750000 -1.84957717500000 
 N -3.148735937500291E-002 -6.93305053750000 -2.57234717500000 
 N -2.16395935937500 -6.27401553750000 -3.85217317500000 
 N -2.94175035937500 -6.50942553750000 -1.745817499999980E-002
 N -5.128135937500300E-002 -3.40551553750000 -2.74127117500000 
 N -2.31450235937500 -2.84393953750000 -3.76032517500000 
 N -2.70748635937500 -2.89596353750000 6.423682500000005E-002
 S -0.555227359375003 -6.67105753750000 -4.17248717500000 
 S -3.65888735937500 -6.07398253750000 -1.44396217500000 
 S -1.27368635937500 -6.75136453750000 -0.105656175000000 
 S -0.744243359375003 -3.09709953750000 -4.26598417500000 
 S -3.59755235937500 -2.74091653750000 -1.27248017500000 
 S -1.14041335937500 -3.38000153750000 -0.111826175000000 
