16

 C -2.42449709687500 -6.31207871250000 -2.15405717500000 
 C -1.19821009687500 -6.84168771250000 -1.61055117500000 
 C -2.21017609687500 -2.70927071250000 -2.62783117500000 
 C -1.00403609687500 -3.09465271250000 -1.92036217500000 
 N -0.149117096874996 -7.01798771250000 -2.46824817500000 
 N -2.29087409687500 -6.09965271250000 -3.47422017500000 
 N -2.84226109687500 -6.88073971250000 0.413311825000000 
 N 0.122179903125003 -3.22973871250000 -2.62066817500000 
 N -2.04164009687500 -2.61205671250000 -3.95639917500000 
 N -2.94504109687500 -2.73085371250000 -0.174335175000000 
 S -0.761442096874996 -6.53467371250000 -3.94334517500000 
 S -3.75468309687500 -6.45915571250000 -0.981697175000000 
 S -1.33505209687500 -7.46491871250000 4.420982500000026E-002
 S -0.458032096874996 -3.00170471250000 -4.16838817500000 
 S -3.60297109687500 -2.29062271250000 -1.61331617500000 
 S -1.31249009687500 -3.16193471250000 -0.195094175000000 
