16

 C -2.17147616250000 -6.77228925312500 -2.49543479375000 
 C -1.05740516250000 -7.38887625312500 -1.79832579375000 
 C -2.55236116250000 -2.65840325312500 -2.58176879375000 
 C -1.34147416250000 -3.01933425312500 -1.85739879375000 
 N -4.737516249999629E-002 -7.75040525312500 -2.61963179375000 
 N -2.07357916250000 -6.69030425312500 -3.79277579375000 
 N -2.73964116250000 -6.68568025312500 6.713620625000383E-002
 N -0.336615162499996 -3.35094725312500 -2.63794979375000 
 N -2.38446816250000 -2.55552925312500 -3.90669279375000 
 N -3.20459816250000 -2.84092825312500 -0.153737793749996 
 S -0.579793162499996 -7.43346425312500 -4.20812879375000 
 S -3.47309116250000 -6.41934925312500 -1.34503979375000 
 S -1.28460316250000 -7.47740225312500 -7.986779374999609E-002
 S -0.943338162499996 -3.19558425312500 -4.20714779375000 
 S -3.94059316250000 -2.41087025312500 -1.58625579375000 
 S -1.51906616250000 -3.08659925312500 -9.418479374999600E-002
