16

 C -2.22913083437500 -6.55609133750000 -2.28558498125000 
 C -0.932652834374998 -6.85450133750000 -1.82770898125000 
 C -2.53423483437500 -2.85625233750000 -2.37220398125000 
 C -1.33590083437500 -3.25465033750000 -1.78601098125000 
 N -3.966883437499735E-002 -6.92964633750000 -2.81134198125000 
 N -2.32741183437500 -6.46387433750000 -3.63062698125000 
 N -2.39689283437500 -6.91887433750000 0.288571018749998 
 N -0.295751834374998 -3.49865633750000 -2.58989998125000 
 N -2.44590183437500 -2.65749833750000 -3.67513598125000 
 N -3.10859183437500 -2.92050433750000 0.147530018749998 
 S -0.817308834374997 -6.72596933750000 -4.22726998125000 
 S -3.41240683437500 -6.70847933750000 -0.953625981250002 
 S -0.834564834374997 -7.24855933750000 -0.187177981250002 
 S -0.919540834374997 -3.09112933750000 -4.08459998125000 
 S -3.83501983437500 -2.46754733750000 -1.25470098125000 
 S -1.54131083437500 -3.49597833750000 -2.550998125000170E-002
