16

 C -2.29946673437500 -6.31827039062500 -2.58412129062500 
 C -1.04633473437500 -6.66247439062500 -1.96579829062500 
 C -2.78390373437500 -2.74847039062500 -2.32205529062500 
 C -1.58675173437500 -3.11882639062500 -1.68260329062500 
 N -4.955073437500257E-002 -6.89723439062500 -2.80093229062500 
 N -2.27886173437500 -6.33800039062500 -3.89745629062500 
 N -2.77124673437500 -6.40681639062500 -6.383029062500123E-002
 N -0.522918734375003 -3.34931539062500 -2.45415229062500 
 N -2.74248773437500 -2.74723539062500 -3.65026829062500 
 N -3.37154373437500 -2.81898839062500 0.196186709374999 
 S -0.702362734375003 -6.83488939062500 -4.34617629062500 
 S -3.63533573437500 -6.04409139062500 -1.45443329062500 
 S -1.15226073437500 -6.80886939062500 -0.261978290625001 
 S -1.11142273437500 -2.99365439062500 -4.00468729062500 
 S -4.12579573437500 -2.37830239062500 -1.26296829062500 
 S -1.75234773437500 -3.15648439062500 6.266370937499888E-002
