16

 C -2.27384166875000 -6.37023098437500 -2.39793271875000 
 C -1.11750266875000 -7.01438498437500 -1.80175371875000 
 C -2.24826066875000 -2.64023598437500 -2.46949071875000 
 C -1.15313566875000 -3.23761798437500 -1.76541171875000 
 N -0.148993668750004 -7.31954898437500 -2.65157071875000 
 N -2.16539166875000 -6.11169198437500 -3.69785871875000 
 N -2.75052466875000 -6.65096898437499 0.195923281250000 
 N -1.473466875000362E-002 -3.36602398437500 -2.45647371875000 
 N -2.01239366875000 -2.43697598437500 -3.76170671875000 
 N -3.06496666875000 -2.91416198437499 4.791028124999963E-002
 S -0.623890668750004 -6.75963498437499 -4.14070371875000 
 S -3.50633166875000 -6.17958898437499 -1.17245371875000 
 S -1.20691366875000 -7.23126198437499 -0.101012718750000 
 S -0.470842668750004 -2.92426598437499 -4.03460471875000 
 S -3.60443866875000 -2.42318898437500 -1.40912871875000 
 S -1.40998366875000 -3.29484998437499 -1.740971875000041E-002
