16

 C -2.47547621250000 -6.36724090625000 -2.59077790000000 
 C -1.27699521250000 -6.73972090625000 -1.82718990000000 
 C -2.42615221250000 -2.90533690625000 -2.53532790000000 
 C -1.15057221250000 -3.12965190625000 -1.87156590000000 
 N -0.186233212499996 -6.77223890625000 -2.59193290000000 
 N -2.33965821250000 -6.17891390625000 -3.90777490000000 
 N -3.05364621250000 -6.47091890625000 -6.369290000000083E-002
 N -8.769521249999546E-002 -3.27975790625000 -2.68843390000000 
 N -2.32325321250000 -2.86096690625000 -3.88160090000000 
 N -2.94580521250000 -2.75789390625000 -4.087490000000082E-002
 S -0.719177212499996 -6.52381890625000 -4.13075290000000 
 S -3.80589521250000 -6.19882390625000 -1.54043590000000 
 S -1.46150521250000 -6.76501290625000 -0.156290900000001 
 S -0.761940212499996 -3.08430690625000 -4.20565190000000 
 S -3.70468421250000 -2.54425990625000 -1.47616690000000 
 S -1.36762821250000 -3.14437090625000 -0.147650900000001 
