16

 C -2.47055696875000 -6.51419058437500 -2.55947453437500 
 C -1.20611696875000 -6.71840658437500 -1.87146353437500 
 C -2.39165496875000 -3.23651058437500 -2.12313953437500 
 C -1.08712796875000 -3.57243458437500 -1.52627953437500 
 N -0.135188968750001 -6.93940058437500 -2.62521353437500 
 N -2.30410396875000 -6.52188358437500 -3.87486853437500 
 N -2.93339996875000 -6.56522358437500 -7.861534374999257E-003
 N -9.133196875000138E-002 -3.64083158437500 -2.40316553437500 
 N -2.35187696875000 -3.03605358437500 -3.42601653437500 
 N -2.84254596875000 -3.59295358437500 0.387668465625001 
 S -0.697912968750002 -6.74307958437500 -4.17671353437500 
 S -3.74150496875000 -6.31312558437500 -1.48651253437500 
 S -1.27367096875000 -6.79661058437500 -0.136990534374999 
 S -0.821844968750002 -3.38972058437500 -3.90971453437500 
 S -3.71345196875000 -3.35448958437500 -0.998360534374999 
 S -1.19244996875000 -3.69344158437500 0.193737465625001 
