16

 C -2.41016106562500 -6.26346758437500 -2.49622829062500 
 C -1.23934206562500 -6.64292158437500 -1.73936429062500 
 C -2.28233306562500 -2.94103358437500 -2.43786429062500 
 C -0.960191065624998 -3.22618958437500 -1.85116629062500 
 N -0.180446065624999 -6.72543558437500 -2.53355929062500 
 N -2.24014606562500 -6.21013058437500 -3.80321829062500 
 N -3.07164306562500 -6.46634558437500 5.981670937499928E-002
 N 5.162993437500241E-002 -3.26651458437500 -2.68227029062500 
 N -2.21641006562500 -2.70238358437500 -3.72502429062500 
 N -2.72973506562500 -3.24235558437500 6.261770937499933E-002
 S -0.665301065624998 -6.63173358437500 -4.13461529062500 
 S -3.77125306562500 -6.08846058437500 -1.39242029062500 
 S -1.48047806562500 -6.75384958437500 -1.864029062500072E-002
 S -0.647099065624999 -3.04066058437500 -4.19486729062500 
 S -3.53661406562500 -2.87285458437500 -1.30987729062500 
 S -1.12249206562500 -3.50332958437500 -0.165862290625001 
