16

 C -2.65514978750000 -6.46637008125000 -2.30073672187500 
 C -1.39959978750000 -6.97291108125000 -1.78142572187500 
 C -2.31520878750000 -2.99285208125000 -2.43350872187500 
 C -1.15775478750000 -3.47909208125000 -1.76285572187500 
 N -0.413376787500000 -7.09790008125000 -2.67471772187500 
 N -2.61516378750000 -6.34447508125000 -3.63229672187500 
 N -2.97827678750000 -6.75608208125000 0.195033278124999 
 N -9.870278749999972E-002 -3.66866808125000 -2.56049472187500 
 N -2.19061978750000 -2.69607808125000 -3.73684172187500 
 N -2.92750178750000 -3.11305708125000 5.980727812499897E-002
 S -1.06863078750000 -6.61919908125000 -4.10614672187500 
 S -3.89175578750000 -6.22633008125000 -1.14568972187500 
 S -1.35827178750000 -7.05314908125000 -6.328472187500078E-002
 S -0.663034787499999 -3.20732008125000 -4.04986072187500 
 S -3.69952278750000 -2.77980208125000 -1.35430972187500 
 S -1.35993678750000 -3.62055308125000 2.863827812499897E-002
