16

 C -2.37580458437500 -6.62487761250000 -2.36754419375000 
 C -1.09087858437500 -6.98383161250000 -1.76288319375000 
 C -2.24537758437500 -3.43095561250000 -2.24779019375000 
 C -1.03303058437500 -3.58953861250000 -1.53562619375000 
 N -7.702258437500031E-002 -7.16638761250000 -2.64537019375000 
 N -2.29944958437500 -6.57947361250000 -3.68818719375000 
 N -2.84700958437500 -6.53082761250000 9.265780625000053E-002
 N 5.242841562499923E-002 -3.69575061250000 -2.30746919375000 
 N -2.11949958437500 -3.41131061250000 -3.56405619375000 
 N -2.81522258437500 -3.24689161250000 0.285437806250001 
 S -0.768869584375000 -6.90886961250000 -4.16336919375000 
 S -3.67274658437500 -6.34960561250000 -1.31828419375000 
 S -1.22652258437500 -6.90089461250000 -2.539619374999935E-002
 S -0.489211584375001 -3.63422361250000 -3.90044619375000 
 S -3.57602258437500 -3.17913461250000 -1.17027819375000 
 S -1.20967858437500 -3.57974461250000 0.175891806250001 
