16

 C -2.30836503750000 -6.44529498750000 -2.45394034687500 
 C -1.07618203750000 -6.72549298750000 -1.76566334687500 
 C -2.55189303750000 -2.64059698750000 -2.57252434687500 
 C -1.40880103750000 -3.14697398750000 -1.78926434687500 
 N -6.404503749999968E-002 -6.92215998750000 -2.58266034687500 
 N -2.20267303750000 -6.30629898750000 -3.76365234687500 
 N -2.85330003750000 -6.70567898750000 5.735365312500051E-002
 N -0.437696037499999 -3.55572898750000 -2.60735534687500 
 N -2.33991703750000 -2.66507098750000 -3.90725234687500 
 N -3.28580603750000 -2.93916198750000 -6.426434687499949E-002
 S -0.639931037499999 -6.66632798750000 -4.12683534687500 
 S -3.64048803750000 -6.28114698750000 -1.37051334687500 
 S -1.19284003750000 -6.89136798750000 -1.506734687499933E-002
 S -0.828700037500000 -3.25240598750000 -4.17363934687500 
 S -3.94861503750000 -2.45828298750000 -1.55044134687500 
 S -1.68573203750000 -3.38670698750000 -9.753934687499921E-002
