16

 C -2.16445273750000 -6.52592855625000 -2.29494539375000 
 C -0.963321737499996 -6.98377755625000 -1.69019439375000 
 C -2.54848373750000 -2.64502455625000 -2.48440039375000 
 C -1.29105773750000 -2.92276155625000 -1.82113439375000 
 N 0.109790262500004 -7.05909455625000 -2.50324539375000 
 N -2.02760473750000 -6.37694055625000 -3.62408939375000 
 N -2.63303273750000 -6.75479355625000 0.254907606249998 
 N -0.301411737499996 -3.08976755625000 -2.68203839375000 
 N -2.47495473750000 -2.47907255625000 -3.79789039375000 
 N -3.03825873750000 -2.72636655625000 8.351860624999774E-002
 S -0.488919737499996 -6.76944655625000 -3.99984539375000 
 S -3.44838173750000 -6.42329655625000 -1.14258639375000 
 S -1.06513973750000 -7.23245255625000 4.356060624999758E-002
 S -0.933920737499996 -2.79414255625000 -4.19168639375000 
 S -3.86293473750000 -2.45211855625000 -1.35467239375000 
 S -1.43774173750000 -3.03064755625000 -7.713439375000219E-002
