16

 C -2.19665344375000 -6.36646386250000 -2.55809456562500 
 C -1.02489844375000 -6.97535786250000 -1.91997356562500 
 C -2.67024744375000 -2.40704286250000 -2.37120556562500 
 C -1.52910944375000 -3.06188386250000 -1.69367956562500 
 N 5.332556250000842E-003 -7.30090786250000 -2.69461256562500 
 N -1.99429944375000 -6.22115586250000 -3.84515656562500 
 N -2.81377144375000 -6.55270586250000 -6.064456562499942E-002
 N -0.587841443749999 -3.43420086250000 -2.57023356562500 
 N -2.43912244375000 -2.19911286250000 -3.67384956562500 
 N -3.24851944375000 -2.42360686250000 9.461243437500055E-002
 S -0.518921443749999 -6.86998086250000 -4.23429756562500 
 S -3.55811244375000 -6.13019286250000 -1.48702156562500 
 S -1.33534044375000 -7.28544286250000 -0.207462565625000 
 S -0.900575443749999 -2.78232686250000 -4.05418356562500 
 S -4.00402644375000 -1.98041786250000 -1.34434756562500 
 S -1.78887444375000 -3.13220486250000 -3.493256562499947E-002
