16

 C -2.39536933437500 -6.45019107812500 -2.60790271562500 
 C -1.24532533437500 -6.78994507812500 -1.90952371562500 
 C -2.32109933437500 -2.53779307812500 -2.53516071562500 
 C -1.08779633437500 -3.01716407812500 -1.99192271562500 
 N -0.143023334374999 -6.96201507812500 -2.61712171562500 
 N -2.21508733437500 -6.28205107812500 -3.91338971562500 
 N -2.98075233437500 -6.42929707812500 -8.961571562500126E-002
 N -6.858133437499969E-002 -3.10013807812500 -2.85331971562500 
 N -2.28333133437500 -2.31579707812500 -3.86489071562500 
 N -2.83608633437500 -3.17072607812500 -7.486071562500118E-002
 S -0.634013334374999 -6.74170307812500 -4.18942671562500 
 S -3.71710933437500 -6.14440207812500 -1.61563671562500 
 S -1.40324333437500 -6.87448807812500 -0.205575715625001 
 S -0.721347334374999 -2.69575707812500 -4.37180071562500 
 S -3.67101033437500 -2.63928207812500 -1.41485171562500 
 S -1.20112633437500 -3.41643007812500 -0.363699715625001 
