16

 C -2.59698795624999 -6.23344958437500 -2.45221910000000 
 C -1.44757995624999 -7.05518658437500 -2.06167310000000 
 C -2.59795995624999 -2.58226658437500 -2.34514710000000 
 C -1.43517695624999 -3.19104058437500 -1.69931010000000 
 N -0.520877956249994 -7.27762258437500 -2.96202210000000 
 N -2.49749095624999 -5.88551358437500 -3.72009410000000 
 N -3.09395495624999 -7.05821058437500 -9.385909999999975E-002
 N -0.464572956249994 -3.44540858437500 -2.57182310000000 
 N -2.41923995624999 -2.15516358437500 -3.59010810000000 
 N -3.14628695624999 -3.02743758437500 0.159743900000000 
 S -1.09589695624999 -6.54137158437500 -4.34617210000000 
 S -3.73484595624999 -5.96759558437500 -1.28123310000000 
 S -1.55155095624999 -7.60781458437500 -0.374269100000000 
 S -0.964379956249994 -2.79638858437500 -4.07052510000000 
 S -3.86803095624999 -2.42146758437500 -1.19553610000000 
 S -1.57553395624999 -3.42880958437500 -3.050509999999962E-002
