16

 C -2.30048049375000 -6.48068142187500 -2.50471247500000 
 C -1.07687649375000 -6.83459442187500 -1.82739247500000 
 C -2.50756349375000 -2.50254542187500 -2.64754847500000 
 C -1.44143349375000 -3.06848942187500 -1.87476847500000 
 N -2.460349374999993E-002 -6.92063842187500 -2.64400047500000 
 N -2.14284549375000 -6.22148542187500 -3.81712347500000 
 N -2.94343949375000 -6.55278342187500 -1.148347500000124E-002
 N -0.373990493749999 -3.36211342187500 -2.56839947500000 
 N -2.25369649375000 -2.28473742187500 -3.92422747500000 
 N -3.47725949375000 -2.80784242187500 -0.268555475000001 
 S -0.576217493749999 -6.56990342187500 -4.22070247500000 
 S -3.71276649375000 -6.32097942187500 -1.52388147500000 
 S -1.28639149375000 -6.77838042187500 -9.408147500000119E-002
 S -0.627029493749999 -2.67367842187500 -4.08536747500000 
 S -3.97005249375000 -2.22126042187500 -1.73631947500000 
 S -1.86056349375000 -3.29544142187500 -0.196198475000001 
