16

 C -2.32043467812500 -6.47754221875000 -2.40945826562500 
 C -1.14356567812500 -7.12868221875000 -1.83399226562500 
 C -2.49276567812500 -2.88622121875000 -2.36588326562500 
 C -1.19911867812500 -3.06885421875000 -1.69266426562500 
 N -0.107070678125001 -7.34948621875000 -2.64392726562500 
 N -2.13888567812500 -6.15525321875000 -3.67274426562500 
 N -2.89967767812500 -6.83248421875000 0.140231734375001 
 N -0.241366678125001 -3.37904221875000 -2.52846026562500 
 N -2.49832967812500 -2.97929721875000 -3.68346526562500 
 N -2.89790867812500 -2.72173421875000 0.242698734375002 
 S -0.645513678125001 -6.69160121875000 -4.08505826562500 
 S -3.63087167812500 -6.21543821875000 -1.22810026562500 
 S -1.21942067812500 -7.26038321875000 -2.621226562499857E-002
 S -0.876326678125001 -3.26120921875000 -4.05927126562500 
 S -3.70863967812500 -2.79858521875000 -1.18334026562500 
 S -1.28725867812500 -3.11475721875000 4.341073437500165E-002
