16

 C -2.46100399062500 -6.56825847812500 -2.26770873750000 
 C -1.18369199062500 -6.79344047812500 -1.58857773750000 
 C -2.42111899062500 -2.78167047812500 -2.59071073750000 
 C -1.16815999062500 -3.28597547812500 -1.94921273750000 
 N -0.137633990625000 -6.89863647812500 -2.40406573750000 
 N -2.33514699062500 -6.46669047812500 -3.60169573750000 
 N -2.93294699062500 -6.78596147812500 0.245302262499999 
 N -0.166830990625000 -3.54021947812500 -2.78551473750000 
 N -2.28056999062500 -2.55135247812500 -3.87979273750000 
 N -2.82233699062500 -2.98785947812500 -3.656573750000103E-002
 S -0.744976990625000 -6.71013647812500 -3.90330973750000 
 S -3.82273399062500 -6.73554947812500 -1.15502873750000 
 S -1.27448699062500 -6.99443547812500 0.100943262499999 
 S -0.775309990625000 -3.09763847812500 -4.28461873750000 
 S -3.65227499062500 -2.40448047812500 -1.37777573750000 
 S -1.24824599062500 -3.39894947812500 -0.193924737500001 
