16

 C -2.14816747500001 -6.01177915937501 -2.61344448125000 
 C -1.05429547500001 -6.62605715937501 -1.85173848125000 
 C -2.40074147500001 -2.81434115937501 -2.52068548125000 
 C -1.19573847500001 -3.08900315937501 -1.87140548125000 
 N 2.646752499999483E-002 -6.92596215937501 -2.56954748125000 
 N -1.91756447500001 -6.00407215937501 -3.92466648125000 
 N -3.02166847500001 -6.28218815937501 -0.170784481249999 
 N -0.138435475000005 -3.21221115937501 -2.66679348125000 
 N -2.31275147500001 -2.70636915937501 -3.83864048125000 
 N -3.01754147500001 -2.97074815937501 -5.715648124999895E-002
 S -0.349335475000006 -6.55585215937501 -4.20316648125000 
 S -3.64878347500001 -5.83442415937501 -1.63014948125000 
 S -1.45707847500000 -6.83759815937501 -0.190309481249999 
 S -0.726671475000005 -3.03402415937501 -4.25248248125000 
 S -3.75484847500001 -2.73739015937501 -1.48847648125000 
 S -1.37990947500001 -3.30748815937501 -0.108544481249999 
