16

 C -2.20823563749999 -6.47071439375000 -2.52084379375000 
 C -1.03207663749999 -7.01012839375000 -1.85803679375000 
 C -2.64766463749999 -2.33236439375000 -2.43197979375000 
 C -1.56106363749999 -3.06224039375000 -1.75073879375000 
 N -3.701637499991861E-003 -7.28602339375000 -2.65889879375000 
 N -2.01326263749999 -6.32306439375000 -3.84457179375000 
 N -2.75727863749999 -6.53062839375000 -2.259879375000051E-002
 N -0.556547637499992 -3.25160339375000 -2.57563979375000 
 N -2.45924163749999 -2.17738439375000 -3.73642879375000 
 N -3.25516663749999 -2.56394639375000 6.486220624999950E-002
 S -0.517996637499992 -6.84731239375000 -4.16088479375000 
 S -3.46152263749999 -6.11810439375000 -1.44812779375000 
 S -1.30200663749999 -7.35151939375000 -0.132067793750001 
 S -0.997592637499992 -2.84926339375000 -4.08313479375000 
 S -3.86381363749999 -1.87031139375000 -1.31295779375000 
 S -1.72149863749999 -3.17821639375000 -5.673779375000043E-002
