16

 C -2.34330321250000 -6.58106590624999 -2.16265708750000 
 C -1.12758521250000 -7.02687390624999 -1.58886608750000 
 C -2.24979221250000 -2.73028690624999 -2.68325508750000 
 C -1.06509921250000 -3.13955790624999 -1.95236308750000 
 N -0.123714212500000 -6.97287090624999 -2.42891008750000 
 N -2.24054321250000 -6.02600590624999 -3.34833608750000 
 N -2.88920021250000 -7.11619390624999 0.294030912500000 
 N 2.153878750000082E-002 -3.36661090624999 -2.72104108750000 
 N -2.12943721250000 -2.73361890624999 -4.00752808750000 
 N -2.86439421250000 -2.51233990624999 -0.147746087500000 
 S -0.734361212500000 -6.28069390624999 -3.82735308750000 
 S -3.65213221250000 -6.33466390624999 -1.06230708750000 
 S -1.27179221250000 -7.38386590624999 0.114545912500000 
 S -0.516861212500000 -3.05969390624999 -4.28080708750000 
 S -3.59114821250000 -2.34826490624999 -1.62137108750000 
 S -1.33559921250000 -3.23973890624999 -0.188138087500000 
