16

 C -2.53351666250000 -6.23333414687500 -2.46903839375000 
 C -1.39906466250000 -6.80514614687500 -1.85320539375000 
 C -2.44523966250000 -2.41200314687500 -2.51606839375000 
 C -1.27790566250000 -2.88084514687500 -1.87171839375000 
 N -0.460791662500004 -7.12460714687500 -2.72405939375000 
 N -2.45578066250000 -6.07835214687500 -3.77918239375000 
 N -2.95081866250000 -6.28692514687500 7.536760625000083E-002
 N -0.282437662500004 -3.24864614687500 -2.71224839375000 
 N -2.36718266250000 -2.38510514687500 -3.84100239375000 
 N -3.06637666250000 -2.59030614687500 -6.022339374999897E-002
 S -0.930144662500004 -6.65177014687500 -4.19895939375000 
 S -3.77997566250000 -5.84086014687500 -1.29121439375000 
 S -1.47384166250000 -7.11303314687500 -0.188276393749999 
 S -0.862803662500004 -2.95748614687500 -4.28608339375000 
 S -3.78524066250000 -2.05752414687500 -1.50164039375000 
 S -1.42951066250000 -2.98352414687500 -0.166094393749999 
