16

 C -2.31328215624999 -6.70508907812500 -2.59705438125000 
 C -1.05990515624999 -7.08901907812500 -1.96288338125000 
 C -2.55582315624999 -2.69548307812500 -2.52754338125000 
 C -1.28305615624999 -3.16071207812500 -1.97205138125000 
 N -0.100167156249992 -7.52342907812500 -2.79169538125000 
 N -2.24860915624999 -6.93321407812500 -3.89939538125000 
 N -2.72546915624999 -6.50388007812500 -3.315538124999895E-002
 N -0.327766156249992 -3.39649107812500 -2.86227738125000 
 N -2.53880815624999 -2.52837007812500 -3.87085938125000 
 N -2.94347815624999 -2.75166007812500 4.949618750000884E-003
 S -0.672472156249992 -7.38226207812500 -4.37422838125000 
 S -3.55762115624999 -6.22865907812500 -1.44619238125000 
 S -1.11958815624999 -6.94462907812500 -0.190914381249999 
 S -1.03152315624999 -2.91726207812500 -4.33671738125000 
 S -3.69828015624999 -2.21412007812500 -1.32166938125000 
 S -1.44735915624999 -3.40306807812500 -0.261584381249999 
