16

 C -2.63367101874999 -6.32553654062499 -2.21866446875000 
 C -1.42953201874999 -6.88163954062499 -1.74309246875000 
 C -2.37435601875000 -2.67168754062499 -2.47973346875000 
 C -1.16416201874999 -3.21799654062499 -1.85356246875000 
 N -0.482320018749995 -7.15774854062499 -2.65293146875000 
 N -2.57975601875000 -6.08573354062499 -3.51951946875000 
 N -3.06801001874999 -6.73646154062499 0.225314531250001 
 N -0.193046018749995 -3.39399854062499 -2.73222846875000 
 N -2.23367701874999 -2.31512454062499 -3.73437746875000 
 N -2.93224901874999 -3.04321254062499 7.949531250000863E-003
 S -1.05224801874999 -6.49603854062499 -4.09404446875000 
 S -3.90029901874999 -6.11669554062499 -1.10236046875000 
 S -1.53223401875000 -7.25548654062499 -2.897946874999890E-002
 S -0.666226018749995 -2.82583654062499 -4.14496546875000 
 S -3.67920401874999 -2.47810454062499 -1.34220546875000 
 S -1.32134101874999 -3.40515154062499 -0.142176468749999 
