16

 C -2.32517303125000 -7.01409759687500 -2.43935991875000 
 C -1.19844203125000 -7.45425259687500 -1.67208491875000 
 C -2.81641703125000 -2.88266159687500 -2.35595391875000 
 C -1.68303003125000 -3.60801859687500 -1.77464691875000 
 N -0.104401031249996 -7.49722559687500 -2.43251991875000 
 N -2.16769903125000 -6.81933459687500 -3.74984491875000 
 N -2.98233803125000 -6.75922059687500 4.909908125000118E-002
 N -0.698977031249996 -3.92883259687500 -2.64690191875000 
 N -2.66144703125000 -2.58876259687500 -3.66211591875000 
 N -3.30515303125000 -3.08624559687500 0.165989081250001 
 S -0.525987031249996 -7.07495959687500 -3.97253191875000 
 S -3.65292503125000 -6.48961859687500 -1.44003291875000 
 S -1.39930803125000 -7.44221759687500 7.520108125000124E-002
 S -1.27939603125000 -3.42615159687500 -4.18525091875000 
 S -4.06616303125000 -2.42006959687500 -1.20484891875000 
 S -1.78497603125000 -3.81223559687500 -3.993918749998882E-003
