16

 C -2.62331827812500 -6.65033418125000 -2.14090171875000 
 C -1.42247027812500 -7.21624118125000 -1.63084271875000 
 C -2.31950627812500 -2.73517518125000 -2.33749271875000 
 C -1.15461627812500 -3.35014718125000 -1.74174271875000 
 N -0.570323278125004 -7.52280018125000 -2.58894471875000 
 N -2.57119727812500 -6.31504218125000 -3.44089671875000 
 N -2.97528827812500 -6.98211718125000 0.427867281250000 
 N -0.221375278125004 -3.68709218125000 -2.63366671875000 
 N -2.18353027812500 -2.56391918125000 -3.63029171875000 
 N -2.82447727812500 -2.98883218125000 0.140122281250000 
 S -1.15271127812500 -6.95996018125000 -4.04165671875000 
 S -3.87393527812500 -6.47005018125000 -0.876841718749999 
 S -1.43771327812500 -7.52843218125000 5.477828125000039E-002
 S -0.705067278125004 -3.12348818125000 -4.12451871875000 
 S -3.58402127812500 -2.50144118125000 -1.25509171875000 
 S -1.26174427812500 -3.44848018125000 -5.046571874999928E-002
