16

 C -2.33314296874999 -6.37366702812500 -2.24296245312500 
 C -1.12881196874999 -6.87247802812500 -1.64562345312500 
 C -2.39330996874999 -2.69064902812500 -2.44096845312500 
 C -1.18783896874999 -3.11965202812500 -1.82925645312500 
 N -0.116427968749993 -6.92253602812500 -2.49648245312500 
 N -2.28090696874999 -6.15569502812500 -3.56726845312500 
 N -2.89188596874999 -6.72382102812500 0.306594546875001 
 N -0.164764968749992 -3.15467802812500 -2.71052545312500 
 N -2.28937696874999 -2.39008102812500 -3.74471745312500 
 N -3.01268496874999 -3.11894802812500 -3.721453124999385E-003
 S -0.708979968749992 -6.48403302812500 -4.03802945312500 
 S -3.65060096874999 -6.26821102812500 -1.14442545312500 
 S -1.33581096874999 -7.23414302812500 8.411954687500045E-002
 S -0.738319968749993 -2.71828602812500 -4.19400945312500 
 S -3.78387196874999 -2.53252502812500 -1.39484245312500 
 S -1.32101896874999 -3.49388902812500 -9.035345312499943E-002
