16

 C -2.57816566562500 -6.19469139062499 -2.46302933750000 
 C -1.28294766562500 -6.56292639062499 -1.84218133750000 
 C -2.38283866562500 -2.94370739062499 -2.55330933750000 
 C -1.19345666562500 -3.24413539062499 -1.79343133750000 
 N -0.277410665624999 -6.72806239062499 -2.73672833750000 
 N -2.51449266562500 -6.10499539062499 -3.80324533750000 
 N -2.94119266562500 -6.44090539062499 6.323566250000190E-002
 N -0.178208665624999 -3.54760339062499 -2.62977033750000 
 N -2.27590666562500 -3.05967439062499 -3.90523033750000 
 N -3.09095266562500 -2.82295539062499 -4.109433749999813E-002
 S -0.983307665624999 -6.47522739062499 -4.20061933750000 
 S -3.79589166562500 -5.93673839062499 -1.34854533750000 
 S -1.33942266562500 -6.82969639062499 -0.133252337499998 
 S -0.685765665625000 -3.35243339062499 -4.17730233750000 
 S -3.76204166562500 -2.77264439062499 -1.56176033750000 
 S -1.41561766562500 -3.17253739062499 -5.753033749999803E-002
