16

 C -2.39234137812500 -6.27736518125000 -2.67936342812500 
 C -1.21162837812500 -6.73647418125000 -2.00895442812500 
 C -2.52899737812500 -2.81709718125000 -2.61858742812500 
 C -1.23893437812500 -3.05338818125000 -1.87386142812500 
 N -0.152501378125002 -6.90853718125000 -2.78693742812500 
 N -2.20812337812500 -6.01512418125000 -3.96952842812500 
 N -3.13517237812500 -6.44687318125000 -0.193383428125000 
 N -0.164215378125001 -3.10785218125000 -2.66653342812500 
 N -2.34805037812500 -2.68196218125000 -3.93275542812500 
 N -3.12111137812500 -2.87007618125000 -8.094342812500033E-002
 S -0.609284378125001 -6.35442318125000 -4.27354842812500 
 S -3.80149937812500 -5.95435418125000 -1.66077442812500 
 S -1.51205637812500 -6.85033118125000 -0.283345428125000 
 S -0.704086378125001 -2.88989018125000 -4.18871442812500 
 S -3.84682537812500 -2.67242618125000 -1.50562442812500 
 S -1.46817837812500 -3.20398118125000 -0.134250428125000 
