16

 C -2.22665290000000 -6.46497385625000 -2.44358842187500 
 C -0.956102899999999 -6.79201385625000 -1.81732142187500 
 C -2.59159390000000 -2.91453785625000 -2.52462442187500 
 C -1.44495290000000 -3.37992085625000 -1.77928642187500 
 N 7.054910000000092E-002 -6.92163385625000 -2.65582642187500 
 N -2.13295790000000 -6.16134985625000 -3.71852342187500 
 N -2.70158990000000 -6.73571985625000 0.103066578125001 
 N -0.374186899999998 -3.56754085625000 -2.55830642187500 
 N -2.34415290000000 -2.78950985625000 -3.82484942187500 
 N -3.28905490000000 -2.85827185625000 -6.413442187499951E-002
 S -0.547643899999998 -6.50588185625000 -4.16527442187500 
 S -3.56271390000000 -6.37272685625000 -1.28783042187500 
 S -1.02972990000000 -6.98743285625000 -6.617042187499944E-002
 S -0.726798899999999 -3.09497085625000 -4.11410442187500 
 S -3.90296090000000 -2.44278885625000 -1.56558942187500 
 S -1.69033390000000 -3.32346585625000 -6.509342187499945E-002
