16

 C -2.48787482187500 -6.39989375937500 -2.57573135625000 
 C -1.37895382187500 -6.85528375937500 -1.81041635625000 
 C -2.51169382187500 -2.56705075937500 -2.43278335625000 
 C -1.28012082187500 -2.88934175937500 -1.72922135625000 
 N -0.281177821875002 -7.06664775937500 -2.51384935625000 
 N -2.20426482187500 -6.22744575937500 -3.85733235625000 
 N -3.23781282187500 -6.62138475937500 -0.120846356250001 
 N -0.243459821875002 -3.06906875937500 -2.50640435625000 
 N -2.32537482187500 -2.37840575937500 -3.69860335625000 
 N -3.11297482187500 -2.53297175937500 9.882764374999886E-002
 S -0.619382821875003 -6.73169875937500 -4.07238135625000 
 S -3.87262282187500 -6.04186675937500 -1.56133835625000 
 S -1.61341282187500 -6.94498575937500 -0.126211356250001 
 S -0.759046821875002 -2.76511275937500 -4.08537235625000 
 S -3.80902682187500 -2.25524675937500 -1.37170435625000 
 S -1.55100282187500 -3.04052875937500 -1.643335625000120E-002
