16

 C -2.56054943125000 -6.15798171250000 -2.44643445000000 
 C -1.27816043125000 -6.57998871250000 -1.90263245000000 
 C -2.38576143125000 -2.99302171250000 -2.59757645000000 
 C -1.16596943125000 -3.27448771250000 -1.79695945000000 
 N -0.277077431250004 -6.78263071250000 -2.72958645000000 
 N -2.53058643125000 -6.11724271250000 -3.77278645000000 
 N -2.91681243125000 -6.39762171250000 6.490554999999976E-002
 N -0.168437431250005 -3.58308671250000 -2.61542945000000 
 N -2.26452743125000 -3.05216871250000 -3.92868245000000 
 N -3.09640243125000 -2.84005771250000 -6.020745000000027E-002
 S -0.969593431250004 -6.46877771250000 -4.20849945000000 
 S -3.82574743125000 -5.91369671250000 -1.32938445000000 
 S -1.32787143125000 -6.82255371250000 -0.131402450000000 
 S -0.668864431250004 -3.32684271250000 -4.20072445000000 
 S -3.79876643125000 -2.79002771250000 -1.54404545000000 
 S -1.39445843125000 -3.19342671250000 -3.187345000000019E-002
