16

 C -2.28439527500000 -6.34644990000000 -2.43868413125000 
 C -1.10223127500000 -6.84065690000000 -1.74148413125000 
 C -2.81442227500000 -2.57427290000000 -2.49347313125000 
 C -1.54643227500000 -2.80910690000000 -1.85125813125000 
 N 4.549725000001281E-003 -7.00720790000000 -2.48164613125000 
 N -2.00216827500000 -6.14554890000000 -3.73466913125000 
 N -2.92103827500000 -6.53692990000000 6.073686874999917E-002
 N -0.520370274999999 -2.90849790000000 -2.69468113125000 
 N -2.67145227500000 -2.31250990000000 -3.79491013125000 
 N -3.33914527500000 -2.89029790000000 -3.390013125000069E-002
 S -0.434251274999998 -6.57487690000000 -4.02423013125000 
 S -3.66766627500000 -6.17097290000000 -1.39351513125000 
 S -1.37930027500000 -7.07134090000000 -5.716913125000067E-002
 S -1.09287227500000 -2.47411490000000 -4.26731513125000 
 S -4.15602827500000 -2.47694690000000 -1.39260513125000 
 S -1.67779327500000 -2.97231290000000 -0.109434131250001 
