16

 C -2.37371968124999 -6.48917759375000 -2.52950353125000 
 C -1.14234468124999 -6.62083959375000 -1.81061253125000 
 C -2.46911768124999 -2.06400759375000 -2.70558553125000 
 C -1.45046368124999 -2.89269759375000 -2.00003153125000 
 N -4.039468124999246E-002 -6.59118459375000 -2.59278153125000 
 N -2.29609868124999 -6.43836059375000 -3.88976953125000 
 N -2.95314868124999 -6.61125059375000 2.667346875000010E-002
 N -0.388482681249993 -3.24456659375000 -2.69495053125000 
 N -2.10615968124999 -1.86566159375000 -3.96909653125000 
 N -3.45215668124999 -2.61769359375000 -0.410700531250000 
 S -0.669003681249993 -6.57262759375000 -4.12515853125000 
 S -3.81801268124999 -6.37261259375000 -1.43665353125000 
 S -1.36695268124999 -6.77208459375000 -0.101669531250000 
 S -0.554399681249993 -2.50673759375000 -4.21819253125000 
 S -3.97856068124999 -1.86111259375000 -1.80829353125000 
 S -1.99605368124999 -3.43292859375000 -0.442601531250000 
