16

 C -2.27370371562500 -6.79740522500000 -2.38003600000000 
 C -1.09652571562500 -7.21334522500000 -1.63448100000000 
 C -2.97313071562500 -3.00759022500000 -2.35792800000000 
 C -1.74391871562500 -3.54905222500000 -1.74616400000000 
 N -0.108016715624999 -7.47870222500000 -2.44628500000000 
 N -2.11856671562500 -6.72575322500000 -3.70443500000000 
 N -3.00903471562500 -6.84533322500000 7.584000000000279E-002
 N -0.746954715624999 -3.93951222500000 -2.52563200000000 
 N -2.83763971562500 -2.94246322500000 -3.66025000000000 
 N -3.45153371562500 -3.30759622500000 0.154795000000003 
 S -0.547727715624999 -7.16540122500000 -4.01509300000000 
 S -3.69884271562500 -6.53174422500000 -1.34991500000000 
 S -1.38617571562500 -7.29369222500000 2.052000000002829E-003
 S -1.27800971562500 -3.41687222500000 -4.04047100000000 
 S -4.19022371562500 -2.74583622500000 -1.20396200000000 
 S -1.88849471562500 -3.74749122500000 -1.092899999999730E-002
