16

 C -2.26645100625001 -6.64824438750000 -2.36044630937500 
 C -1.15942700625001 -7.22589438750000 -1.66355230937500 
 C -2.45154800625001 -2.52955938750000 -2.31036430937500 
 C -1.46087400625001 -3.41275638750000 -1.80503530937500 
 N -0.138278006250006 -7.42775138750000 -2.50415730937500 
 N -2.17548700625001 -6.44790838750000 -3.65308730937500 
 N -3.07738300625001 -7.15527038750000 -2.664309375000062E-003
 N -0.492117006250005 -3.82896138750000 -2.60818030937500 
 N -2.30158000625001 -2.25033938750000 -3.58499630937500 
 N -2.95938600625001 -2.71623438750000 0.272486690625000 
 S -0.636741006250006 -6.96362338749999 -4.00243730937500 
 S -3.69456300625001 -6.47585138750000 -1.35402930937500 
 S -1.36275200625001 -7.34746638750000 3.336906249999938E-004
 S -0.936453006250005 -3.08321938750000 -4.07984730937500 
 S -3.57342000625001 -2.02743038750000 -1.14506330937500 
 S -1.69786600625001 -3.75350038750000 -5.871730937499997E-002
