16

 C -2.48930310000000 -6.65288519062500 -2.10917997812500 
 C -1.21337310000000 -7.24895019062500 -1.64857597812500 
 C -2.43439010000000 -2.71939019062500 -2.47591697812500 
 C -1.25745010000000 -3.27050019062500 -1.81701797812500 
 N -0.309788100000000 -7.23192919062500 -2.61358897812500 
 N -2.56030010000000 -6.28119619062500 -3.38904297812500 
 N -2.83472510000000 -6.97636919062500 0.413639021875000 
 N -0.229639100000000 -3.57779619062500 -2.61098997812500 
 N -2.37569410000000 -2.70177719062500 -3.80792397812500 
 N -3.09903310000000 -3.01409519062500 7.455021875000245E-003
 S -1.06748610000000 -6.65380319062500 -3.98561897812500 
 S -3.71566810000000 -6.36690019062500 -0.915951978125000 
 S -1.26311510000000 -7.54294319062500 4.861302187500027E-002
 S -0.795059100000000 -3.15830419062500 -4.10364297812500 
 S -3.71663010000000 -2.34516819062500 -1.35951797812500 
 S -1.53357010000000 -3.59825119062500 -0.117140978125000 
