16

 C -2.41492573750000 -6.31518671250000 -2.53269235937500 
 C -1.25864273750000 -6.88547371250000 -1.91498935937500 
 C -2.18979673750000 -2.83829071250000 -2.31647435937500 
 C -0.966179737500003 -3.44281671250000 -1.83483035937500 
 N -0.163509737500003 -7.04904971250000 -2.66623435937500 
 N -2.21951573750000 -6.09274871250000 -3.81938535937500 
 N -3.06751273750000 -6.52347471250000 -8.984535937499949E-002
 N 3.211626249999799E-002 -3.52228871250000 -2.71045935937500 
 N -2.19396773750000 -2.49172071250000 -3.60373335937500 
 N -2.57648973750000 -3.37307571250000 0.194985640625000 
 S -0.632452737500002 -6.52878771250000 -4.20069535937500 
 S -3.70596573750000 -5.93376271250000 -1.49355035937500 
 S -1.52676773750000 -7.03790571250000 -0.212753359375000 
 S -0.640363737500002 -2.86822471250000 -4.14041035937500 
 S -3.53490773750000 -2.94322771250000 -1.08501835937500 
 S -1.03175773750000 -3.92846871250000 -0.176727359375000 
