16

 C -2.48222948437501 -6.53255295312500 -2.55936213750000 
 C -1.29878748437501 -6.97792595312500 -1.92378113750000 
 C -2.72290448437501 -2.90745895312500 -2.54406113750000 
 C -1.58575048437501 -3.48701095312500 -1.85024213750000 
 N -0.170014484375006 -7.07961695312500 -2.64030313750000 
 N -2.25063748437501 -6.25804195312500 -3.82974513750000 
 N -3.16076948437501 -6.72702095312500 -2.064713750000347E-002
 N -0.540693484375006 -3.60625695312500 -2.65897213750000 
 N -2.54884148437501 -2.56981795312500 -3.83005513750000 
 N -3.42461548437501 -3.23353395312500 -1.155413750000345E-002
 S -0.643136484375006 -6.64242295312500 -4.19755113750000 
 S -3.81044948437501 -6.32699295312500 -1.46316513750000 
 S -1.56945748437501 -7.19536795312500 -0.212408137500003 
 S -1.04371948437501 -3.16388295312500 -4.19420213750000 
 S -3.97261548437501 -2.51230695312500 -1.40458313750000 
 S -1.89363648437501 -3.78672795312500 -0.128934137500003 
