16

 C -2.36613129062500 -6.03771295937500 -2.12072957812500 
 C -1.18952229062500 -6.63842195937500 -1.61882657812500 
 C -2.54941329062500 -2.45489195937500 -2.51456157812500 
 C -1.38281129062500 -2.93426195937500 -1.86068557812500 
 N -0.273093290624999 -6.93344295937500 -2.53239857812500 
 N -2.33557429062500 -5.88835295937500 -3.42800957812500 
 N -2.77904829062500 -6.26029395937500 0.323653421874998 
 N -0.400008290624999 -3.17258595937500 -2.71278357812500 
 N -2.49363929062500 -2.39131595937500 -3.83361757812500 
 N -3.05352029062500 -2.40490595937500 -2.032757812500230E-002
 S -0.886136290624999 -6.42902695937500 -3.97917957812500 
 S -3.67424829062500 -5.88700295937500 -1.06854057812500 
 S -1.28408229062500 -6.84775795937500 8.337742187499764E-002
 S -0.940546290624999 -2.81267395937500 -4.22960957812500 
 S -3.84923729062500 -2.14304995937500 -1.44968957812500 
 S -1.54649029062500 -2.93813895937500 -0.153000578125002 
