16

 C -2.26654441562501 -6.38179368437500 -2.48918030000000 
 C -1.07096241562501 -6.77315468437500 -1.79299830000000 
 C -2.55062141562501 -2.50784668437500 -2.64754730000000 
 C -1.45848241562501 -3.13157668437500 -1.91941430000000 
 N -7.466341562500567E-002 -6.87629668437500 -2.63698030000000 
 N -2.18175341562501 -6.24594868437500 -3.77462030000000 
 N -3.00099541562501 -6.58947468437500 -9.022729999999890E-002
 N -0.311833415625006 -3.31531168437500 -2.64759830000000 
 N -2.17476841562501 -2.21355868437500 -3.90188930000000 
 N -3.47168341562501 -2.74256868437500 -0.308846299999999 
 S -0.599722415625006 -6.60456368437500 -4.19854830000000 
 S -3.67654241562501 -6.36123268437500 -1.52785430000000 
 S -1.29385741562501 -6.74806768437500 -0.115366299999999 
 S -0.611248415625006 -2.61796068437500 -4.09774230000000 
 S -4.02704041562501 -2.11186568437500 -1.75386030000000 
 S -1.88517241562501 -3.36034068437500 -0.216601299999999 
