16

 C -2.20468816249999 -6.42729243125000 -2.41565923125000 
 C -0.950162162499995 -6.80292743125000 -1.78834823125000 
 C -2.55007316250000 -2.88647743125000 -2.55479023125000 
 C -1.41524916249999 -3.32784043125000 -1.80381323125000 
 N 3.979383750000487E-002 -6.83590243125000 -2.65130223125000 
 N -2.15500516249999 -6.19132443125000 -3.72863923125000 
 N -2.63402616250000 -6.68562243125000 9.928276875000042E-002
 N -0.316573162499995 -3.50222643125000 -2.51699623125000 
 N -2.40888316250000 -2.79801443125000 -3.88399723125000 
 N -3.23523116250000 -2.83058143125000 -6.305423124999932E-002
 S -0.555305162499995 -6.48621643125000 -4.13112623125000 
 S -3.50093616250000 -6.39643943125000 -1.30365723125000 
 S -1.00736116250000 -7.05132643125000 -7.866423124999944E-002
 S -0.743788162499995 -3.05945743125000 -4.07926423125000 
 S -3.91710716250000 -2.46047443125000 -1.50716323125000 
 S -1.67577116249999 -3.35806143125000 -2.193523124999963E-002
