16

 C -2.53279422812500 -6.15289265937500 -2.44701992812500 
 C -1.27787922812500 -6.59159465937500 -1.90310992812500 
 C -2.39379222812500 -3.01776865937500 -2.60336392812500 
 C -1.16910322812500 -3.28547365937500 -1.81825492812500 
 N -0.286614228125002 -6.80383265937500 -2.73062392812500 
 N -2.53419522812500 -6.11890565937500 -3.75969892812500 
 N -2.92155622812500 -6.37468565937500 6.163307187499933E-002
 N -0.151248228125001 -3.59128765937500 -2.60355692812500 
 N -2.26392022812500 -3.03866865937500 -3.92251492812500 
 N -3.08417122812500 -2.84877065937500 -6.651292812500076E-002
 S -0.959888228125001 -6.46712965937500 -4.21608392812500 
 S -3.83435522812500 -5.90804965937500 -1.31265792812500 
 S -1.32705822812500 -6.81558865937500 -0.137098928125001 
 S -0.659437228125001 -3.31934965937500 -4.20841892812500 
 S -3.81232822812500 -2.79725865937500 -1.53779992812500 
 S -1.39002522812500 -3.20301165937500 -2.935892812500063E-002
