16

 C -2.48355280625000 -6.26223428437500 -2.50527997187500 
 C -1.22885480625000 -6.61266928437500 -1.88221997187500 
 C -2.43125880625000 -2.88795128437500 -2.56456797187500 
 C -1.18603080625000 -3.08670528437500 -1.87538797187500 
 N -0.201658806250004 -6.71900228437500 -2.70948397187500 
 N -2.45958480625000 -6.21342428437500 -3.83726297187500 
 N -3.04649780625000 -6.58826328437500 5.258102812499721E-002
 N -0.100065806250003 -3.32724228437500 -2.60358997187500 
 N -2.26635980625000 -2.95291628437500 -3.86433197187500 
 N -3.01639580625000 -2.71554128437500 -6.154497187500296E-002
 S -0.849388806250004 -6.43157428437500 -4.24506297187500 
 S -3.85618880625000 -6.06116428437500 -1.35262097187500 
 S -1.45187980625000 -6.77719228437500 -0.133400971875003 
 S -0.717703806250004 -3.39840528437500 -4.14368197187500 
 S -3.84361580625000 -2.63328428437500 -1.49007197187500 
 S -1.38971080625000 -3.15616528437500 -0.128238971875003 
