16

 C -2.42246701562500 -6.52061990625001 -2.41804310312500 
 C -1.14960401562500 -6.81304390625001 -1.77057910312500 
 C -2.64783101562500 -2.62992490625001 -2.42971110312500 
 C -1.41363501562500 -3.15533590625001 -1.79731510312500 
 N -0.146934015625003 -7.00675190625001 -2.61525910312500 
 N -2.35019701562500 -6.56844490625001 -3.75017610312500 
 N -2.82773201562500 -6.63244690625001 0.115491896874998 
 N -0.382962015625004 -3.45552090625001 -2.60261010312500 
 N -2.46020801562500 -2.44589990625001 -3.75878410312500 
 N -3.15191601562500 -2.81091190625001 0.159168896874998 
 S -0.767873015625003 -6.86117990625001 -4.12378010312500 
 S -3.75337001562500 -6.32627590625001 -1.22553310312500 
 S -1.24018501562500 -7.09369390625001 -3.337310312500175E-002
 S -0.950317015625004 -2.98866290625001 -4.12971410312500 
 S -3.95255001562500 -2.29158890625001 -1.27623310312500 
 S -1.62837201562500 -3.51888590625001 -9.723710312500189E-002
