16

 C -2.35997767187500 -6.43466407812500 -2.32428033437500 
 C -1.09488467187500 -6.86435807812500 -1.77831133437500 
 C -2.55962867187500 -2.69941107812500 -2.39084633437500 
 C -1.44987667187500 -3.29563507812500 -1.73404933437500 
 N -0.158025671874999 -6.92450407812500 -2.70545533437500 
 N -2.34228067187500 -6.20270007812500 -3.62065933437500 
 N -2.68831467187500 -6.78855307812500 0.234216665625000 
 N -0.344894671874999 -3.45182907812500 -2.51035633437500 
 N -2.36336667187500 -2.53097007812500 -3.69222433437500 
 N -3.26211867187500 -2.98095907812500 2.884666562500038E-002
 S -0.780825671874999 -6.46415407812500 -4.14455433437500 
 S -3.58951067187500 -6.39638507812500 -1.10481633437500 
 S -1.07859767187500 -7.16764407812500 -8.201433437499972E-002
 S -0.837651671874999 -3.00024907812500 -4.05808333437500 
 S -3.91614367187500 -2.39879807812500 -1.43560133437500 
 S -1.64872067187500 -3.38601707812500 -7.482334374999677E-003
