16

 C -2.55115229375001 -6.50987591875000 -2.14308269687500 
 C -1.41092129375001 -7.20898591875000 -1.64665869687500 
 C -2.36670229375001 -2.73786691875000 -2.44814669687500 
 C -1.17574829375001 -3.34990591875000 -1.81302969687500 
 N -0.500979293750007 -7.45930691875000 -2.57081569687500 
 N -2.62404429375001 -6.30839091875000 -3.47951069687500 
 N -2.84453329375001 -6.89131691875000 0.461662303125001 
 N -0.141662293750008 -3.59877391875000 -2.65662669687500 
 N -2.23332929375001 -2.47368491875000 -3.75400669687500 
 N -2.91227329375001 -2.89454991875000 0.124209303125001 
 S -1.10216029375001 -6.86745891875000 -3.99856469687500 
 S -3.78212329375001 -6.49998691875000 -0.815617696875000 
 S -1.39799329375001 -7.58007591875000 5.011530312500057E-002
 S -0.763537293750008 -3.17948991875000 -4.14681669687500 
 S -3.70029029375001 -2.44512491875000 -1.26318769687500 
 S -1.33528229375001 -3.51301291875000 -6.589469687499960E-002
