16

 C -2.38088542187501 -6.60634761562499 -2.29594213750000 
 C -1.14191642187501 -6.90079761562499 -1.69211513750000 
 C -2.52972342187501 -2.59492661562499 -2.39838813750000 
 C -1.40751742187501 -3.24307461562499 -1.81586513750000 
 N -0.144405421875012 -7.03807761562499 -2.54204413750000 
 N -2.38276542187501 -6.52911661562499 -3.61997513750000 
 N -2.87504842187501 -6.66431261562499 0.208659862500000 
 N -0.409534421875012 -3.41657561562499 -2.65752513750000 
 N -2.42580642187501 -2.44071361562499 -3.70979613750000 
 N -3.06916342187501 -2.87205461562499 -4.236137500000181E-003
 S -0.799399421875012 -6.81306661562499 -4.08698213750000 
 S -3.73415142187501 -6.41079961562499 -1.24924813750000 
 S -1.22171742187501 -7.00052361562499 1.387186249999983E-002
 S -0.915502421875012 -3.04674761562499 -4.16523113750000 
 S -3.85369142187501 -2.33477461562499 -1.37792713750000 
 S -1.52717642187501 -3.49237361562499 -0.111822137500000 
