16

 C -2.21986691250000 -6.19693717812500 -2.45988517187500 
 C -1.08664891250000 -6.87345017812500 -1.88013617187500 
 C -2.26197291250000 -2.87425417812500 -2.33047817187500 
 C -1.00475291250000 -3.39729917812500 -1.77619617187500 
 N -8.582191249999660E-002 -7.14245817812500 -2.70953517187500 
 N -2.06405591250000 -5.98786717812500 -3.74283717187500 
 N -2.99528991250000 -6.81722017812500 -0.114796171875001 
 N -0.101277912499997 -3.59919317812500 -2.74817917187500 
 N -2.15456891250000 -2.58419317812500 -3.63558017187500 
 N -2.67355191250000 -3.10084517812500 0.199124828124999 
 S -0.638645912499997 -6.58583617812500 -4.18360317187500 
 S -3.60615991250000 -6.11750917812500 -1.46878117187500 
 S -1.37575891250000 -7.16142517812500 -0.174465171875001 
 S -0.679402912499997 -3.06140417812500 -4.17386517187500 
 S -3.55081791250000 -2.68371017812500 -1.16531017187500 
 S -1.10228991250000 -3.68130717812500 -0.129544171875001 
