16

 C -2.55667924062500 -6.30824240625000 -2.25632177812500 
 C -1.37587124062500 -6.84920640625000 -1.58313177812500 
 C -2.51052724062500 -3.10263940625000 -2.31511777812500 
 C -1.23677124062500 -3.28896940625000 -1.68428977812500 
 N -0.392271240624996 -7.04980440625000 -2.45623077812500 
 N -2.50231224062500 -6.17851040625000 -3.59739877812500 
 N -3.04327324062500 -6.58780340625000 0.294046221874999 
 N -0.201038240624996 -3.43772640625000 -2.51984977812500 
 N -2.44450124062500 -3.04102840625000 -3.63837977812500 
 N -3.02495224062500 -3.16967440625000 0.147806221874998 
 S -0.919304240624996 -6.61838740625000 -3.98028377812500 
 S -3.83356024062500 -6.15857740625000 -1.09479877812500 
 S -1.52784224062500 -7.09966840625000 9.393722187499853E-002
 S -0.899915240624996 -3.19228440625000 -4.02889577812500 
 S -3.85161324062500 -2.88983840625000 -1.27402677812500 
 S -1.35764924062500 -3.37906940625000 5.697922187499849E-002
