16

 C -2.65087105937501 -6.29904820625000 -2.25239292812500 
 C -1.44187105937501 -6.89800320625000 -1.74833492812500 
 C -2.39395505937501 -2.96399720625000 -2.37784792812500 
 C -1.30568605937501 -3.54552920625000 -1.68795392812500 
 N -0.512018059375007 -7.04490720625000 -2.70930392812500 
 N -2.66904305937501 -6.08287820625000 -3.56539492812500 
 N -3.09109005937501 -6.76395620625000 0.220084071875001 
 N -0.231910059375006 -3.71067920625000 -2.44984492812500 
 N -2.20591605937501 -2.71439020625000 -3.67649492812500 
 N -3.02421105937501 -3.00867020625000 9.712707187500147E-002
 S -1.21018305937501 -6.59661120625000 -4.10929192812500 
 S -3.89132105937501 -6.16428820625000 -1.11742192812500 
 S -1.52127605937501 -7.31054320625000 -5.871792812499832E-002
 S -0.618430059375006 -3.21915320625000 -3.97958992812500 
 S -3.78926205937501 -2.72141020625000 -1.31132892812500 
 S -1.59169705937501 -3.84156220625000 4.756071875001489E-003
