16

 C -2.40233496562500 -6.26103360312501 -2.37910730625000 
 C -1.33728796562500 -6.96900760312501 -1.68640430625000 
 C -2.43357396562500 -2.30418560312501 -2.46184630625000 
 C -1.31786896562500 -2.94733360312501 -1.84204130625000 
 N -0.252043965625002 -7.09716760312501 -2.44264530625000 
 N -2.12641896562500 -5.93960260312500 -3.64351330625000 
 N -3.12891696562500 -6.55798960312501 6.586869374999993E-002
 N -0.358750965625002 -3.32572960312500 -2.67354030625000 
 N -2.28851696562500 -2.09867760312501 -3.75059430625000 
 N -3.06253496562500 -2.34216560312501 4.076569375000005E-002
 S -0.606001965625001 -6.58760860312501 -4.01497830625000 
 S -3.75502996562500 -5.97455560312501 -1.37506830625000 
 S -1.59499396562500 -7.23352460312501 -2.132430624999992E-002
 S -0.788811965625002 -2.80374560312501 -4.11510130625000 
 S -3.78013196562500 -2.02635860312501 -1.43987130625000 
 S -1.55762696562500 -3.00845660312501 -5.976130624999998E-002
