16

 C -2.26494770937500 -6.37913056250000 -2.39499362187500 
 C -1.11300170937500 -7.01973356250000 -1.80244462187500 
 C -2.24975870937500 -2.63930756250000 -2.47099662187500 
 C -1.15021070937500 -3.23816756250000 -1.76892162187500 
 N -0.149380709375004 -7.32373556250000 -2.65141262187500 
 N -2.17115170937500 -6.11441356250000 -3.69746362187500 
 N -2.74427270937500 -6.64532756250000 0.192673378125001 
 N -6.918709375003829E-003 -3.36711356250000 -2.45920862187500 
 N -2.01172570937500 -2.43803156250000 -3.76719662187500 
 N -3.06714570937500 -2.91218156250000 4.784337812500072E-002
 S -0.625027709375003 -6.76015656250000 -4.13755362187500 
 S -3.50118470937500 -6.17588856250000 -1.16440262187500 
 S -1.20561170937500 -7.23608256250000 -9.955362187499928E-002
 S -0.474064709375003 -2.91965356250000 -4.03133262187500 
 S -3.60449970937500 -2.42192556250000 -1.41000262187500 
 S -1.40717470937500 -3.30302156250000 -1.661162187499921E-002
