16

 C -2.57176867500000 -6.66618202812499 -2.34523561875000 
 C -1.36864767500000 -7.09760002812499 -1.73679761875000 
 C -2.37721067500000 -3.04768502812499 -2.35691961875000 
 C -1.10771567500000 -3.55343802812499 -1.85977861875000 
 N -0.399513675000002 -7.35966202812499 -2.59929861875000 
 N -2.55219667500000 -6.62372702812499 -3.69528861875000 
 N -3.00921667500000 -6.81596702812499 0.189484381250001 
 N -0.175935675000002 -3.65177202812499 -2.79352061875000 
 N -2.39556767500000 -2.83188302812499 -3.68885561875000 
 N -2.73568267500000 -3.30869102812499 0.199181381250001 
 S -0.957633675000002 -7.00957202812499 -4.09332161875000 
 S -3.86739267500000 -6.50906802812499 -1.15830961875000 
 S -1.39922267500000 -7.21379902812499 -2.500761874999924E-002
 S -0.848902675000002 -3.24331102812499 -4.19754161875000 
 S -3.61803367500000 -2.75534402812499 -1.13959561875000 
 S -1.22295867500000 -3.90304902812499 -9.025761874999949E-002
