16

 C -2.41541716875000 -6.44251175937500 -2.34069300000000 
 C -1.12168516875000 -6.85733575937500 -1.80039400000000 
 C -2.54973016875000 -2.79190575937500 -2.42063900000000 
 C -1.36057916875000 -3.24864575937500 -1.67466700000000 
 N -8.479316875000009E-002 -6.91600275937500 -2.62683000000000 
 N -2.36562016875000 -6.18135775937500 -3.65559800000000 
 N -2.75332716875000 -6.83070675937500 0.211609000000000 
 N -0.330910168750000 -3.44870075937500 -2.43382800000000 
 N -2.38235416875000 -2.61972575937500 -3.72106300000000 
 N -3.21430216875000 -2.94955975937500 1.052600000000004E-002
 S -0.813513168749999 -6.55367575937500 -4.11486500000000 
 S -3.68112116875000 -6.44227775937500 -1.09031700000000 
 S -1.13458516875000 -7.16777875937500 -0.100185000000000 
 S -0.838823168749999 -3.02496575937500 -4.05604000000000 
 S -3.89574616875000 -2.40176675937500 -1.38471700000000 
 S -1.60457916875000 -3.43530075937500 2.543299999999982E-002
