16

 C -2.43707759062500 -6.36575439375000 -2.56534114062500 
 C -1.30484959062500 -6.69509639375000 -1.77106814062500 
 C -2.30204659062500 -2.66606639375000 -2.38979914062500 
 C -1.18440759062500 -3.26659339375001 -1.73632914062500 
 N -0.207627590625001 -6.96433239375000 -2.44489314062500 
 N -2.19869559062500 -6.36186339375000 -3.87799914062500 
 N -3.27705559062500 -6.48284839375000 -0.120488140625001 
 N -0.182106590625001 -3.56369439375000 -2.54940614062500 
 N -2.22901059062500 -2.55608839375000 -3.70408514062500 
 N -3.04036159062500 -2.86227039375000 6.272385937499858E-002
 S -0.579262590625001 -6.79330139375000 -4.07667514062500 
 S -3.89495159062500 -6.11122039375000 -1.60945114062500 
 S -1.66447159062500 -6.77095639375001 -7.468714062500137E-002
 S -0.692311590625001 -3.06625539375000 -4.12468514062500 
 S -3.67154259062500 -2.36029339375001 -1.36197614062500 
 S -1.43141759062500 -3.42849839375001 -2.239140625001301E-003
