16

 C -2.62801805937500 -6.66329380937500 -2.30423519687500 
 C -1.37020205937500 -7.00922980937500 -1.61818419687500 
 C -2.69631705937500 -2.40898280937500 -2.35953419687500 
 C -1.51707005937500 -2.93860480937500 -1.73447919687500 
 N -0.353165059375002 -7.05211380937500 -2.46808519687500 
 N -2.51944805937500 -6.43021880937500 -3.60493719687500 
 N -3.24347405937500 -6.76888180937500 0.193198803124999 
 N -0.472226059375001 -3.22252780937500 -2.50908319687500 
 N -2.50224905937500 -2.19730080937500 -3.64623719687500 
 N -3.42729205937500 -2.87112380937500 2.810880312499875E-002
 S -0.887251059375001 -6.63721580937500 -4.00255919687500 
 S -4.04433005937500 -6.54134080937500 -1.26517419687500 
 S -1.59069105937500 -7.14354980937500 0.113512803124999 
 S -0.996315059375001 -2.75458080937500 -4.06591019687500 
 S -4.07260705937500 -2.06419680937500 -1.27041219687500 
 S -1.81197205937500 -3.29856480937500 2.871803124998795E-003
