16

 C -2.46901394375000 -6.79797898750001 -2.21807977500000 
 C -1.17835694375000 -7.12814398750001 -1.66160777500000 
 C -2.60934194375000 -2.77128498750001 -2.38720477500000 
 C -1.31368194375000 -3.30508098750001 -1.81776277500000 
 N -0.199799943750000 -7.30788998750001 -2.53201577500000 
 N -2.48744694375000 -6.72925698750001 -3.53935777500000 
 N -2.81769894375000 -7.12143998750001 0.270485225000001 
 N -0.352691943749999 -3.40230498750001 -2.70954577500000 
 N -2.59828494375000 -2.56622798750001 -3.70357077500000 
 N -2.98571994375000 -2.99831398750001 7.793522500000116E-002
 S -0.928277943750000 -7.04771298750001 -4.01537477500000 
 S -3.74289594375000 -6.65768198750001 -1.00101977500000 
 S -1.15260494375000 -7.33616498750001 6.874622500000127E-002
 S -0.998051943749999 -2.92017498750001 -4.13561077500000 
 S -3.85874094375000 -2.52810998750001 -1.25188177500000 
 S -1.37026194375000 -3.44838998750001 -8.518477499999877E-002
