16

 C -2.49024724687499 -6.52421273125000 -2.30617125625000 
 C -1.20099424687499 -6.83956573125000 -1.73287025625000 
 C -2.29721324687499 -2.95453473125000 -2.26802425625000 
 C -1.07778924687499 -3.37187173125000 -1.70538025625000 
 N -0.216623246874994 -7.05163673125000 -2.61483925625000 
 N -2.42537924687499 -6.34661673125000 -3.63124925625000 
 N -2.91604724687499 -6.73422073125000 0.211324743749999 
 N -0.103475246874993 -3.48174873125000 -2.57868425625000 
 N -2.26884724687499 -2.69243173125000 -3.57255325625000 
 N -2.69721624687499 -3.40878573125000 0.257638743749999 
 S -0.870890246874994 -6.69267873125000 -4.07412425625000 
 S -3.79843824687499 -6.32968473125000 -1.21055825625000 
 S -1.29415324687499 -7.00524573125000 -2.579625625000093E-002
 S -0.685993246874993 -3.07016273125000 -4.05267025625000 
 S -3.61206924687499 -3.00401273125000 -1.07206725625000 
 S -1.08791324687499 -3.69661973125000 1.294574374999913E-002
