16

 C -2.53116026250000 -6.69980237812500 -2.36070396875000 
 C -1.37907226250000 -7.28112437812500 -1.67372296875000 
 C -2.49956626250000 -2.45300937812500 -2.47704796875000 
 C -1.30154126250000 -3.02436337812500 -1.78184596875000 
 N -0.344375262500000 -7.58073337812500 -2.45893396875000 
 N -2.33042826250000 -6.63134037812500 -3.69247196875000 
 N -3.06891226250000 -6.53737137812500 9.716503124999964E-002
 N -0.315857262500000 -3.30803237812500 -2.62376396875000 
 N -2.38125426250000 -2.28648537812500 -3.78934396875000 
 N -3.17872526250000 -3.05563737812500 -2.063096875000037E-002
 S -0.796068262500000 -7.13371837812500 -4.00469896875000 
 S -3.79989926250000 -6.14584037812500 -1.30702496875000 
 S -1.54712826250000 -7.22929037812500 9.355503124999975E-002
 S -0.855782262500000 -2.89847037812500 -4.14597396875000 
 S -3.82064726250000 -2.21238137812500 -1.33429096875000 
 S -1.56159326250000 -3.37355937812500 -3.377496875000041E-002
