16

 C -2.19689335937500 -6.51964543125000 -2.47872375937500 
 C -1.03928335937500 -7.11467543125000 -1.82030875937500 
 C -2.66229635937500 -2.35778843125000 -2.42424175937500 
 C -1.41280235937500 -2.91906443125000 -1.75444575937500 
 N -1.553593749967774E-004 -7.31488143125000 -2.60997975937500 
 N -2.06636935937500 -6.39720943125000 -3.80428675937500 
 N -2.70164035937500 -6.54850143125000 5.620624062499813E-002
 N -0.450854359374996 -3.26898143125000 -2.60801175937500 
 N -2.53350135937500 -2.22901643125000 -3.73299375937500 
 N -3.25708235937500 -2.65503243125000 3.795024062499808E-002
 S -0.447557359374996 -6.84837943125000 -4.15802275937500 
 S -3.47531935937500 -6.11616943125000 -1.35776375937500 
 S -1.22973935937500 -7.31517843125000 -0.133018759375002 
 S -1.02876535937500 -2.85723043125000 -4.14746775937500 
 S -3.89916135937500 -1.88968143125000 -1.29038375937500 
 S -1.65901135937500 -3.18467343125000 -4.321675937500191E-002
