16

 C -2.31809012812500 -6.40529530312499 -2.17364055000000 
 C -1.14838212812500 -6.95487630312499 -1.55657355000000 
 C -2.35734312812500 -2.74919930312499 -2.64835055000000 
 C -1.13965712812500 -3.18632930312499 -1.98583755000000 
 N -0.103884128125005 -7.00165330312499 -2.39455455000000 
 N -2.13105612812500 -6.04308930312499 -3.45672355000000 
 N -2.85857212812500 -6.98864230312499 0.318739450000000 
 N -0.136446128125004 -3.39272930312499 -2.78220755000000 
 N -2.15881512812500 -2.57841330312499 -3.94151855000000 
 N -2.90213912812500 -2.69959330312499 -0.172200550000000 
 S -0.531794128125004 -6.25681530312499 -3.80328355000000 
 S -3.64478112812500 -6.31467230312499 -0.992793550000000 
 S -1.29600412812500 -7.33208930312499 9.372544999999977E-002
 S -0.636245128125005 -3.11704630312499 -4.35020555000000 
 S -3.67377312812500 -2.42387930312499 -1.63749955000000 
 S -1.29827512812500 -3.21776130312499 -0.273913550000000 
