16

 C -2.75241827812500 -6.38838671875000 -2.75166263125000 
 C -1.50024027812500 -6.71653271875000 -2.06438663125000 
 C -2.40918827812500 -2.87915771875000 -2.43025163125000 
 C -1.11801727812500 -3.16815171875000 -1.88243963125000 
 N -0.436064278124999 -6.72680571875000 -2.85378363125000 
 N -2.60048127812500 -6.06911871875000 -4.04350963125000 
 N -3.36227627812500 -6.92992771875000 -0.212294631249999 
 N -8.637427812499876E-002 -3.29993371875000 -2.72511063125000 
 N -2.41421727812500 -2.73456471875000 -3.75016163125000 
 N -2.77739327812500 -2.99237571875000 0.112554368750001 
 S -0.958095278125000 -6.26521171875000 -4.39515663125000 
 S -4.05597127812500 -6.24307571875000 -1.59044863125000 
 S -1.67243027812500 -7.00375871875000 -0.320091631250000 
 S -0.852022278124999 -2.99156671875000 -4.20353563125000 
 S -3.70247327812500 -2.65492471875000 -1.24877063125000 
 S -1.18057327812500 -3.23228671875000 -9.783163124999961E-002
