16

 C -2.53640475625001 -6.34133278125001 -2.50437649375000 
 C -1.32960375625001 -6.68232278125001 -1.83726149375000 
 C -2.78436775625001 -2.67988978125001 -2.58548149375000 
 C -1.54780075625001 -3.09017678125001 -1.93313549375000 
 N -0.321212756250006 -6.73645578125001 -2.69760949375000 
 N -2.46693575625001 -6.03209978125001 -3.78530949375000 
 N -3.21865275625001 -6.65616178125001 -4.520149375000182E-002
 N -0.480751756250006 -3.22932578125001 -2.75342549375000 
 N -2.67507375625001 -2.44106978125001 -3.89069549375000 
 N -3.26599275625001 -3.08128778125001 -2.863449375000160E-002
 S -0.906230756250006 -6.46095078125001 -4.21759549375000 
 S -3.95098975625001 -6.35394478125001 -1.48798549375000 
 S -1.54682275625001 -6.88662778125001 -8.833549375000160E-002
 S -1.07416375625001 -2.72687678125001 -4.29949649375000 
 S -4.03546575625001 -2.44785878125001 -1.36353349375000 
 S -1.66134075625001 -3.37341378125001 -0.245045493750002 
