16

 C -2.28988649062500 -6.31582609687501 -2.40424361562500 
 C -1.14716449062500 -6.95394909687501 -1.82681261562500 
 C -2.26064449062500 -2.67371509687501 -2.42958561562500 
 C -1.14078249062500 -3.17943109687501 -1.69298961562500 
 N -0.154267490625001 -7.25711709687500 -2.64932661562500 
 N -2.09546849062500 -6.09744709687500 -3.71243261562500 
 N -2.80205249062500 -6.70766909687501 0.176191384375000 
 N -9.277349062500129E-002 -3.38340709687500 -2.47282661562500 
 N -2.03205149062500 -2.42373709687500 -3.71530261562500 
 N -2.99912649062500 -2.93963409687501 3.133938437499983E-002
 S -0.637637490625001 -6.74222309687500 -4.16684561562500 
 S -3.59644449062500 -6.20689909687501 -1.26236061562500 
 S -1.22209449062500 -7.18516609687501 -9.699561562500048E-002
 S -0.443961490625001 -2.96909309687501 -4.05539761562500 
 S -3.64685349062500 -2.41932609687501 -1.41982261562500 
 S -1.42628749062500 -3.22268509687501 -1.800961562500025E-002
