16

 C -2.40700375937500 -6.51989201250000 -2.42964486562500 
 C -1.15354375937500 -6.80747201250000 -1.77600586562500 
 C -2.65477575937500 -2.63480801250000 -2.42336286562500 
 C -1.41995675937500 -3.14557101250000 -1.80030186562500 
 N -0.152629759374998 -7.00193201250000 -2.61913386562500 
 N -2.34916975937500 -6.56620401250000 -3.77161886562500 
 N -2.83370675937500 -6.62868201250000 0.104805134375000 
 N -0.386759759374998 -3.45898701250000 -2.60392186562500 
 N -2.47989775937500 -2.44529701250000 -3.75015786562500 
 N -3.16437475937500 -2.80427201250000 0.163948134375000 
 S -0.766846759374998 -6.86325601250000 -4.12778486562500 
 S -3.74553275937500 -6.32088501250000 -1.21999586562500 
 S -1.24858775937500 -7.10079601250000 -4.332186562499962E-002
 S -0.945776759374998 -2.98444701250000 -4.12572786562500 
 S -3.95218475937500 -2.29073801250000 -1.26366886562500 
 S -1.64333775937500 -3.51704101250000 -9.530286562499946E-002
