16

 C -2.51047418124999 -6.25577908125000 -2.49036496250000 
 C -1.39414618124999 -6.87972708125000 -1.88630996250000 
 C -2.48918418124999 -2.61188508125000 -2.20937696250000 
 C -1.31011018124999 -3.32352308125000 -1.63078596250000 
 N -0.405832181249989 -7.12045508125000 -2.74500696250000 
 N -2.38009218124999 -6.01879408125000 -3.81300096250000 
 N -3.07861318124999 -6.63094008125000 5.910003750000103E-002
 N -0.389030181249990 -3.67459208125000 -2.54518296250000 
 N -2.34970518124999 -2.29414208125000 -3.51386296250000 
 N -2.95057718124999 -2.73866708125000 0.351762037500001 
 S -0.903327181249990 -6.68264608125000 -4.24055396250000 
 S -3.78549618124999 -5.99715808125000 -1.28269996250000 
 S -1.56970218124999 -7.26265108125000 -0.184540962499999 
 S -0.899449181249990 -2.96216908125000 -3.93243096250000 
 S -3.74986618124999 -2.38273908125000 -1.06802396250000 
 S -1.46306218124999 -3.53933108125000 0.104024037500001 
