16

 C -2.60783405625000 -6.69910792812500 -2.20822324375000 
 C -1.44015105625000 -7.25426992812500 -1.64438324375000 
 C -2.26581505625000 -2.88096892812500 -2.30575124375000 
 C -1.10717105625000 -3.40715892812500 -1.71013724375000 
 N -0.563495056249997 -7.51009192812500 -2.60265924375000 
 N -2.67225205625000 -6.47909192812500 -3.50792324375000 
 N -3.11514705625000 -7.05558592812500 0.301136756250000 
 N -9.644705624999705E-002 -3.56566492812500 -2.51796724375000 
 N -2.13498105625000 -2.69025892812500 -3.60614724375000 
 N -2.80833105625000 -3.16367792812500 0.176335756250001 
 S -1.20045605625000 -6.98732792812500 -4.03131624375000 
 S -3.88983305625000 -6.42803592812500 -1.07919124375000 
 S -1.51227005625000 -7.43605892812500 3.977375625000046E-002
 S -0.606974056249997 -3.20161392812500 -4.07337024375000 
 S -3.57218505625000 -2.54925492812500 -1.20306724375000 
 S -1.21920005625000 -3.56949492812500 4.257475625000051E-002
