16

 C -2.21879320000000 -6.70788521875000 -2.21207806875000 
 C -0.903097200000001 -7.06941621874999 -1.71869606875000 
 C -2.54337620000000 -2.69228821874999 -2.32035406875000 
 C -1.30354820000000 -3.26518621874999 -1.72224006875000 
 N -6.042200000001330E-003 -7.06438421874999 -2.70902706875000 
 N -2.25913520000000 -6.43380121874999 -3.49957406875000 
 N -2.53189220000000 -6.99658021874999 0.284966931250001 
 N -0.336192200000002 -3.49153421874999 -2.60768106875000 
 N -2.41938520000000 -2.50350421874999 -3.63228906875000 
 N -3.01842620000000 -3.08967721875000 0.166977931250001 
 S -0.765031200000002 -6.62699021875000 -4.11265106875000 
 S -3.42713020000000 -6.46668021874999 -1.00739106875000 
 S -0.872097200000002 -7.26237921875000 2.020493125000078E-002
 S -0.909321200000002 -3.05507021874999 -4.07309606875000 
 S -3.76079420000000 -2.46415821874999 -1.15277606875000 
 S -1.42250620000000 -3.54412121874999 -2.717906874999931E-002
