16

 C -2.51694439687499 -6.25052766250000 -2.49860104375000 
 C -1.24207739687499 -6.61190666250000 -1.87687704375000 
 C -2.42005539687499 -2.90636266250000 -2.55381304375000 
 C -1.17464439687499 -3.09774366250000 -1.85435804375000 
 N -0.195195396874987 -6.70165366250000 -2.71954204375000 
 N -2.47113339687499 -6.19603566250000 -3.81799804375000 
 N -3.03740139687499 -6.58041666250000 5.465595625000308E-002
 N -8.495039687498629E-002 -3.34058466250000 -2.58653804375000 
 N -2.27309239687499 -2.94720466250000 -3.87282104375000 
 N -3.02530039687499 -2.72537266250000 -7.991904374999703E-002
 S -0.863109396874987 -6.44109466250000 -4.24866504375000 
 S -3.83113139687499 -6.05456866250000 -1.34700404375000 
 S -1.45822339687499 -6.78056266250000 -0.134919043749997 
 S -0.729238396874987 -3.40839966250000 -4.13586304375000 
 S -3.83570539687499 -2.64505666250000 -1.49005504375000 
 S -1.40022039687499 -3.15394366250000 -0.142098043749997 
