16

 C -2.56130570937500 -6.63770442187500 -2.36484147500000 
 C -1.33998570937500 -6.90522942187500 -1.66228147500000 
 C -2.63673970937500 -2.82465642187500 -2.47611547500000 
 C -1.41556070937500 -3.27079242187500 -1.92573247500000 
 N -0.308432709374999 -7.13082842187500 -2.49141547500000 
 N -2.41670070937500 -6.54002942187500 -3.68554247500000 
 N -3.15786170937500 -6.46983042187500 0.107700525000001 
 N -0.381654709374999 -3.40859442187500 -2.74643647500000 
 N -2.58219670937500 -2.67608742187500 -3.79624447500000 
 N -3.04949670937500 -2.88988242187500 6.075052500000133E-002
 S -0.865406709374999 -6.84529342187500 -4.02722347500000 
 S -3.92297570937500 -6.17872242187500 -1.35652747500000 
 S -1.54082670937500 -6.84312542187500 2.462352500000131E-002
 S -1.04178970937500 -3.01540742187500 -4.23252747500000 
 S -3.89099170937500 -2.49925242187500 -1.29750547500000 
 S -1.47641870937500 -3.36386342187500 -0.181487474999999 
