16

 C -2.59134967812500 -6.47223406875000 -2.21040440000000 
 C -1.33016067812500 -6.93012006875000 -1.57354440000000 
 C -2.46848367812500 -2.94816506875000 -2.25589040000000 
 C -1.23719867812500 -3.29699606875000 -1.62707140000000 
 N -0.331004678125003 -7.04186206875000 -2.44918740000000 
 N -2.46727767812500 -6.20200206875000 -3.50825140000000 
 N -3.05753967812500 -6.61038306875000 0.300426600000001 
 N -0.200055678125003 -3.38871406875000 -2.47573740000000 
 N -2.41279567812500 -2.86935106875000 -3.58193240000000 
 N -2.96795967812500 -3.10663206875000 0.316905600000001 
 S -0.948394678125004 -6.56948106875000 -3.90019640000000 
 S -3.95232967812500 -6.18296806875000 -1.14139240000000 
 S -1.47872967812500 -7.10649406875000 8.701060000000105E-002
 S -0.803291678125004 -3.28762006875000 -4.01465340000000 
 S -3.76295867812500 -2.81431806875000 -1.10865040000000 
 S -1.35226767812500 -3.32547506875000 0.134256600000001 
