16

 C -2.33800245312500 -6.52911981875000 -2.41992357187500 
 C -1.07602845312500 -7.05878881875000 -1.86051157187500 
 C -2.39831745312499 -2.97806881875000 -2.41647957187500 
 C -1.20767045312500 -3.33039881875000 -1.72707957187500 
 N -4.410145312499480E-002 -7.07781781875000 -2.70927357187500 
 N -2.19206045312499 -6.10026781875000 -3.67432957187500 
 N -2.82013345312500 -6.76480381875000 0.122249428124999 
 N -0.115704453124995 -3.41951081875000 -2.48380357187500 
 N -2.28780845312500 -2.89147081875000 -3.75056057187500 
 N -2.98165545312500 -3.41978181875000 4.198242812499853E-002
 S -0.697939453124995 -6.52377181875000 -4.16250057187500 
 S -3.56739245312500 -6.27094981875000 -1.24557057187500 
 S -1.26196745312500 -7.37596681875000 -7.786157187500153E-002
 S -0.683787453124995 -3.15473181875000 -4.09897057187500 
 S -3.76752145312500 -2.81785581875000 -1.30087157187500 
 S -1.30564845312500 -3.66417481875000 -7.432457187500141E-002
