16

 C -2.79337084999999 -6.41628460625000 -2.48452583437500 
 C -1.59868784999999 -6.82366460625000 -1.78038083437500 
 C -2.30275484999999 -2.88564160625000 -2.22847283437500 
 C -1.09618884999999 -3.28338460625000 -1.62978883437500 
 N -0.529957849999994 -6.91769460625000 -2.58510983437500 
 N -2.62285984999999 -6.19514960625000 -3.80772983437500 
 N -3.37030784999999 -6.59677160625000 3.559916562499943E-002
 N -7.100184999999382E-002 -3.34135360625000 -2.47864083437500 
 N -2.19034784999999 -2.71891360625000 -3.53853383437500 
 N -2.84975184999999 -3.12234560625000 0.251150165624999 
 S -1.04887484999999 -6.46135660625000 -4.08384483437500 
 S -4.15427584999999 -6.08090760625000 -1.35342483437500 
 S -1.75849784999999 -7.00024260625000 -6.916283437500037E-002
 S -0.678838849999994 -3.14979060625000 -4.00152683437500 
 S -3.66751884999999 -2.86241460625000 -1.19283483437500 
 S -1.24821584999999 -3.49362060625000 0.120090165625000 
