16

 C -2.39625547187500 -6.67085363437500 -2.29858864062500 
 C -1.25826347187500 -7.14792063437500 -1.58954464062500 
 C -2.46822847187500 -2.48522863437500 -2.41797164062500 
 C -1.28034847187500 -3.01167663437500 -1.79702164062500 
 N -0.301464471875000 -7.47032463437500 -2.45181964062500 
 N -2.33388447187500 -6.57010663437500 -3.64438364062500 
 N -3.08279647187500 -6.45543563437500 0.205152359375001 
 N -0.261010471875000 -3.18246263437500 -2.61497564062500 
 N -2.34062847187500 -2.40750563437500 -3.70832464062500 
 N -3.14889447187500 -3.00795663437500 -6.227364062499929E-002
 S -0.856055471875000 -7.24762663437500 -4.02770864062500 
 S -3.73560747187500 -6.23405263437500 -1.30256164062500 
 S -1.60004447187500 -7.26080863437500 8.630735937500056E-002
 S -0.767455471875000 -2.71474263437500 -4.13197464062500 
 S -3.76102247187500 -2.18954263437500 -1.36156364062500 
 S -1.52689647187500 -3.36325563437500 -0.142619640625000 
