16

 C -2.41718196562499 -6.59896378750000 -2.40762963125000 
 C -1.15600096562499 -6.92376878750000 -1.77862163125000 
 C -2.11768896562499 -2.69884478750000 -2.29279863125000 
 C -0.984514965624992 -3.26792578750000 -1.59623663125000 
 N -0.113565965624993 -6.90353378750000 -2.65056063125000 
 N -2.30099596562499 -6.39114278750000 -3.74433763125000 
 N -2.96761396562499 -6.87876378750000 0.164817368750000 
 N 9.221603437500825E-002 -3.46086678750000 -2.36127663125000 
 N -1.91872896562499 -2.45876878750000 -3.57929163125000 
 N -2.90829896562499 -3.16767978750000 8.654936874999963E-002
 S -0.734807965624992 -6.69014478750000 -4.17555463125000 
 S -3.76676896562499 -6.64255678750000 -1.24408663125000 
 S -1.36814696562499 -7.24194478750000 -6.806763125000037E-002
 S -0.310052965624992 -2.84547978750000 -3.86416863125000 
 S -3.48940296562499 -2.50318378750000 -1.27130763125000 
 S -1.32956296562499 -3.71249578750000 3.294336874999959E-002
