16

 C -2.70858497812500 -6.71223457187499 -2.36857541875000 
 C -1.45167197812500 -7.03985457187500 -1.82731841875000 
 C -2.23712997812500 -3.02579457187499 -2.23390741875000 
 C -1.06294197812500 -3.45425457187500 -1.54706741875000 
 N -0.415063978125002 -7.24671057187500 -2.63472441875000 
 N -2.57005197812500 -6.58042957187499 -3.67444341875000 
 N -3.10753597812500 -6.80435457187500 0.149165581250001 
 N -4.606897812500232E-002 -3.60056557187499 -2.35159541875000 
 N -2.10264797812500 -2.98865257187500 -3.54447841875000 
 N -2.87782097812500 -3.31227357187499 0.208426581250001 
 S -1.02831197812500 -7.00672557187499 -4.14161141875000 
 S -3.98997497812500 -6.45984857187499 -1.24098741875000 
 S -1.44438297812500 -7.14586857187500 -9.807741874999931E-002
 S -0.512510978125002 -3.26630357187500 -3.92701541875000 
 S -3.57369797812500 -2.80121357187500 -1.20816641875000 
 S -1.29891097812500 -3.85350357187500 0.126870581250001 
