16

 C -2.63567192812500 -6.29199471562500 -2.26382927187500 
 C -1.46477692812500 -6.96368471562500 -1.72067227187500 
 C -2.30015592812500 -2.48928371562500 -2.46015927187500 
 C -1.10543892812500 -3.00844671562500 -1.89439027187500 
 N -0.500638928124997 -7.13960771562500 -2.59409227187500 
 N -2.46528592812500 -5.92005071562500 -3.52547127187500 
 N -3.07363192812500 -6.69448871562500 0.212231728125002 
 N -0.131751928124997 -3.28145571562500 -2.76822127187500 
 N -2.18490092812500 -2.20698571562500 -3.79059427187500 
 N -2.89190392812500 -2.75099171562500 -9.462271874997707E-003
 S -0.990377928124997 -6.55254771562500 -4.06289527187500 
 S -3.88068992812500 -6.10652471562500 -1.13751227187500 
 S -1.55699092812500 -7.23905071562500 -1.393927187499777E-002
 S -0.631398928124997 -2.74309571562500 -4.17926427187500 
 S -3.60218592812500 -2.18668771562500 -1.38409327187500 
 S -1.31623792812500 -3.27299671562500 -0.133499271874998 
