16

 C -2.35483070312500 -6.84427682500000 -2.38786698750000 
 C -1.01810470312500 -6.98605682500000 -1.88095598750000 
 C -2.52192770312500 -2.70166582500000 -2.38258598750000 
 C -1.37563970312500 -3.30434282500000 -1.73060498750000 
 N -0.105543703125000 -7.00790282500000 -2.82333298750000 
 N -2.51015670312500 -6.60265582500000 -3.68047098750000 
 N -2.59675270312500 -7.04473782500000 0.192078012499996 
 N -0.345677703125000 -3.59311882500000 -2.51589898750000 
 N -2.31258470312500 -2.54343082500000 -3.67906498750000 
 N -3.20320770312500 -2.98175182500000 4.384301249999600E-002
 S -0.938288703125000 -6.68251882500000 -4.29332698750000 
 S -3.57455870312500 -6.78020882500000 -1.14253698750000 
 S -0.992580703125000 -7.03114682500000 -0.147062987500004 
 S -0.726526703125000 -3.07975082500000 -4.05225598750000 
 S -3.89877370312500 -2.52326682500000 -1.40950598750000 
 S -1.63639470312500 -3.40812282500000 -3.527498750000402E-002
