16

 C -2.30929880937500 -6.32859652500000 -2.38853517812500 
 C -1.08895880937500 -6.84679952500000 -1.81106217812500 
 C -2.49913780937500 -3.16016052500000 -2.33730717812500 
 C -1.22589980937500 -3.27608352500000 -1.69502017812500 
 N -0.104968809374996 -7.18038852500000 -2.65378117812500 
 N -2.17507480937500 -6.12240752500000 -3.69720917812500 
 N -2.94808480937500 -6.94949152500000 2.640182187500062E-002
 N -0.166447809374996 -3.21462252500000 -2.54872317812500 
 N -2.38390380937500 -3.08830652500000 -3.67647217812500 
 N -3.00972380937500 -2.67704652500000 8.798882187500068E-002
 S -0.646656809374996 -6.67198252500000 -4.10634717812500 
 S -3.54860080937500 -6.14440052500000 -1.23304517812500 
 S -1.25175780937500 -7.24465952500000 -0.117063178124999 
 S -0.791320809374996 -3.16177652500000 -4.07279317812500 
 S -3.91636880937500 -2.69421752500000 -1.31793217812500 
 S -1.33576880937500 -3.04701752500000 3.005582187500067E-002
