16

 C -2.42360477187499 -6.62077942500000 -2.23793431875000 
 C -1.14444377187499 -6.76884442500000 -1.55391831875000 
 C -2.32392077187499 -2.69732842500000 -2.50166431875000 
 C -1.09528477187499 -3.24805642500000 -1.96384531875000 
 N -0.112492771874995 -6.74490042500000 -2.40835131875000 
 N -2.34296277187499 -6.52938942500000 -3.57321431875000 
 N -3.04189977187499 -6.91626842500000 0.258360681250000 
 N -0.170571771874994 -3.42563142500000 -2.88231431875000 
 N -2.36330577187499 -2.65117242500000 -3.83146931875000 
 N -2.74511877187499 -2.90645942500000 9.276812499998677E-004
 S -0.756042771874994 -6.64733942500000 -3.94856331875000 
 S -3.76513777187499 -6.70157242500000 -1.19754731875000 
 S -1.33304477187499 -7.05048042500000 0.145813681250000 
 S -0.780774771874994 -3.06453742500000 -4.35251031875000 
 S -3.55387877187499 -2.42410642500000 -1.36527731875000 
 S -1.18195177187499 -3.43283142500000 -0.258333318750000 
