16

 C -2.34034999062500 -6.23876840312500 -2.28402596562500 
 C -1.13047299062500 -6.81935440312500 -1.66636796562500 
 C -2.49540899062500 -2.77715240312500 -2.67630096562500 
 C -1.20764299062500 -2.98555240312500 -2.06358196562500 
 N -0.164585990625003 -7.01427640312500 -2.55005896562500 
 N -2.21855599062500 -5.80013340312500 -3.55221596562500 
 N -2.92304399062500 -6.79237040312500 0.226374034374999 
 N -0.147093990625003 -2.95444840312500 -2.84334296562500 
 N -2.41111299062500 -2.55139440312500 -3.97686996562500 
 N -2.88654299062500 -3.04629440312500 -0.165109965625001 
 S -0.680976990625003 -6.33193940312500 -3.94926196562500 
 S -3.68303799062500 -6.16830940312500 -1.08063196562500 
 S -1.25202399062500 -7.07735340312500 3.893603437499937E-002
 S -0.761813990625003 -2.56818240312500 -4.39146396562500 
 S -3.84559599062500 -2.94388440312500 -1.53294196562500 
 S -1.24796699062500 -3.37175440312500 -0.315186965625001 
