16

 C -2.45499492500001 -6.45668476875000 -2.13341915000000 
 C -1.25147892500001 -6.92786976875000 -1.46005015000000 
 C -2.33239092500001 -2.53134076875000 -2.43689815000000 
 C -1.08512292500001 -3.16773276875000 -1.88124515000000 
 N -0.243517925000006 -7.03204676875000 -2.30590915000000 
 N -2.29272292500001 -6.07788576875000 -3.38921415000000 
 N -3.14523192500001 -7.16313176875000 0.264532850000000 
 N -0.101253925000006 -3.40718776875000 -2.78789315000000 
 N -2.26937292500001 -2.39438776875000 -3.76635815000000 
 N -2.84241792500001 -3.04542076875000 3.358784999999997E-002
 S -0.739672925000006 -6.53670676875000 -3.79177515000000 
 S -3.88022592500001 -6.71250876875000 -1.15544715000000 
 S -1.50339392500001 -7.40973776875000 0.141686850000000 
 S -0.759768925000006 -2.81067376875000 -4.21503615000000 
 S -3.59113792500001 -2.36758976875000 -1.29900715000000 
 S -1.24888292500001 -3.35129176875000 -0.172269150000000 
