16

 C -2.54340055312501 -6.47487522499999 -2.30214977187500 
 C -1.38350155312501 -6.88534222500000 -1.63456777187500 
 C -2.45563555312501 -2.85430022499999 -2.16022077187500 
 C -1.20698955312501 -3.27611622499999 -1.56475777187500 
 N -0.365252553125008 -7.10273922499999 -2.48475577187500 
 N -2.48254155312501 -6.25939722499999 -3.63033377187500 
 N -3.11153155312501 -6.71344122500000 0.319554228124999 
 N -0.213710553125008 -3.48711422499999 -2.41748277187500 
 N -2.41415455312501 -2.77632122499999 -3.47800477187500 
 N -2.83702055312501 -2.91828122499999 0.321473228124999 
 S -0.914778553125007 -6.62064422499999 -3.96993677187500 
 S -3.86208755312501 -6.34555622499999 -1.14360477187500 
 S -1.55835055312501 -7.10531622499999 0.100203228124999 
 S -0.809335553125008 -3.16324122499999 -3.89696377187500 
 S -3.71937455312501 -2.67958422499999 -1.08758577187500 
 S -1.25007155312501 -3.39974822499999 0.129939228124999 
