16

 C -2.62219405937500 -6.23160094062500 -2.65394260000000 
 C -1.37075805937500 -6.56541694062500 -2.02090660000000 
 C -2.47443405937500 -2.73317994062500 -2.49091560000000 
 C -1.26745905937500 -3.06753394062500 -1.87731260000000 
 N -0.337109059374995 -6.68756894062500 -2.84683960000000 
 N -2.53311605937500 -6.05362594062500 -3.97105660000000 
 N -3.25426405937500 -6.85822594062500 -0.319126600000000 
 N -0.198562059374995 -3.21827594062500 -2.66216260000000 
 N -2.37992105937500 -2.66305094062500 -3.82071860000000 
 N -2.91125305937500 -2.91312694062500 9.722840000000010E-002
 S -0.973427059374996 -6.34257594062500 -4.38196260000000 
 S -4.00835305937500 -6.21318094062500 -1.66305660000000 
 S -1.59812405937500 -6.93499794062500 -0.380588600000000 
 S -0.783753059374996 -2.99680694062500 -4.22561660000000 
 S -3.77458205937500 -2.69684894062500 -1.35597660000000 
 S -1.27811605937500 -3.14916494062500 -0.141124600000000 
