16

 C -2.43989401249999 -6.60294229062499 -2.24620147812500 
 C -1.20121701249999 -6.76657929062499 -1.59446747812500 
 C -2.35825501249999 -2.78138629062499 -2.53620447812500 
 C -1.16982101249999 -3.23641829062499 -1.94692047812500 
 N -0.131718012499992 -6.79633729062499 -2.35918847812500 
 N -2.38745101249999 -6.48076729062499 -3.54776147812500 
 N -2.94860601249999 -6.85450329062499 0.228667521875000 
 N -0.193453012499992 -3.48325229062499 -2.80173447812500 
 N -2.29135001249999 -2.61015429062499 -3.84824747812500 
 N -2.80126001249999 -2.93900229062499 1.314521874999697E-003
 S -0.747995012499992 -6.68934429062499 -3.90801847812500 
 S -3.75539901249999 -6.73019929062499 -1.18802047812500 
 S -1.33257101249999 -7.02610729062499 0.105972521875000 
 S -0.786560012499992 -3.08193329062499 -4.29799947812500 
 S -3.56505601249999 -2.42218029062499 -1.39467747812500 
 S -1.19307501249999 -3.41382829062499 -0.267049478125000 
