16

 C -2.41803098750000 -6.32193783437500 -2.45393764375000 
 C -1.24698098750000 -6.83005483437501 -1.80751464375000 
 C -2.45665998750000 -2.44730083437500 -2.35320764375000 
 C -1.25911698750000 -2.98213983437500 -1.74712864375000 
 N -0.235129987500004 -6.91843183437500 -2.63466064375000 
 N -2.38900498750000 -6.08201483437500 -3.75641764375000 
 N -3.05968598750000 -6.43673583437501 9.116335625000205E-002
 N -0.216106987500003 -3.23343383437500 -2.58034464375000 
 N -2.38369998750000 -2.29864983437500 -3.70226464375000 
 N -3.08890298750000 -2.79540983437500 0.108245356250002 
 S -0.797281987500003 -6.49514183437500 -4.17185664375000 
 S -3.78138998750000 -6.00001283437500 -1.34249464375000 
 S -1.49140498750000 -6.95517083437501 -3.207664374999797E-002
 S -0.836747987500003 -2.71906583437501 -4.04103664375000 
 S -3.70590598750000 -1.97485883437500 -1.19715064375000 
 S -1.50509998750000 -3.21692683437500 -1.834264374999806E-002
