16

 C -2.30170831250000 -6.49066761875000 -2.41097696562500 
 C -1.12554331250000 -7.05799261875000 -1.86434696562500 
 C -2.43626731250000 -2.96286361875000 -2.42978996562500 
 C -1.20364731250000 -3.37549061875000 -1.73749596562500 
 N -7.701031249999701E-002 -7.11382461875000 -2.69999696562500 
 N -2.20248731250000 -6.16439361875000 -3.70140096562500 
 N -2.76854831250000 -6.76114961875000 0.113942034374999 
 N -0.101057312499997 -3.46690361875000 -2.45094596562500 
 N -2.27941431250000 -2.90530861875000 -3.71244096562500 
 N -3.00711231250000 -3.35891561875000 7.249503437499905E-002
 S -0.641669312499998 -6.54982661875000 -4.15491896562500 
 S -3.56984431250000 -6.25323761875000 -1.25666596562500 
 S -1.27131331250000 -7.39398861875000 -0.126212965625001 
 S -0.672149312499998 -3.17254561875000 -4.09580196562500 
 S -3.75163231250000 -2.81063961875000 -1.27645296562500 
 S -1.31218931250000 -3.65574161875000 -2.779696562500100E-002
