16

 C -2.38216372500000 -6.48850934687500 -2.52646910312500 
 C -1.14609072500000 -6.72205234687500 -1.79817910312500 
 C -2.61450372500000 -2.82017634687500 -2.49337010312500 
 C -1.42753872500000 -3.11494834687500 -1.75645110312500 
 N -5.741672499999773E-002 -6.93658934687500 -2.56470610312500 
 N -2.20486272500000 -6.44621034687500 -3.87801110312500 
 N -3.05868772500000 -6.48347734687500 -3.642710312500075E-002
 N -0.302355724999997 -3.03361734687500 -2.47960210312500 
 N -2.43934372500000 -2.60590334687500 -3.78177210312500 
 N -3.32137572500000 -3.07362734687500 1.126389687499918E-002
 S -0.556028724999997 -6.68025234687500 -4.12200210312500 
 S -3.74716872500000 -6.22849234687500 -1.49560710312500 
 S -1.42469672500000 -6.81271834687500 -1.626010312500092E-002
 S -0.789725724999997 -2.84127934687500 -4.04706010312500 
 S -3.96003072500000 -2.50425634687500 -1.41960310312500 
 S -1.66848172500000 -3.30389934687500 -2.144910312500081E-002
