16

 C -2.61064967500000 -6.46891883437500 -2.44244147187500 
 C -1.47460667500000 -7.02275683437500 -1.76769347187500 
 C -2.18580867500000 -2.86769683437500 -2.39899247187500 
 C -0.996851675000003 -3.50283583437500 -1.74102547187500 
 N -0.436885675000003 -7.27565583437500 -2.57893147187500 
 N -2.47017767500000 -6.30824183437500 -3.76686347187500 
 N -3.27354467500000 -6.82312983437500 -3.351347187499876E-002
 N 4.310432499999628E-002 -3.58629783437500 -2.57418547187500 
 N -1.96094367500000 -2.49725283437500 -3.66657447187500 
 N -2.88165967500000 -3.35011883437500 7.158152812500140E-002
 S -0.899215675000002 -6.77885283437500 -4.05578447187500 
 S -4.00210167500000 -6.21404483437500 -1.41099847187500 
 S -1.68177767500000 -7.22967883437500 -0.104598471874998 
 S -0.443803675000003 -3.03546283437500 -4.05078047187500 
 S -3.58073867500000 -2.78299983437500 -1.40266047187500 
 S -1.27287567500000 -3.69332283437500 -9.215471874998604E-003
