16

 C -2.57260080312499 -6.29847170312500 -2.46816811250000 
 C -1.38949880312499 -6.96145870312500 -1.91912811250000 
 C -2.65603880312499 -2.87302470312500 -2.35200211250000 
 C -1.45565480312499 -3.25319070312500 -1.61301011250000 
 N -0.434088803124994 -7.13207470312500 -2.80964111250000 
 N -2.55648280312499 -6.09029070312500 -3.77217911250000 
 N -2.93825280312499 -6.73755070312500 5.865688750000109E-002
 N -0.433178803124994 -3.58473970312500 -2.39409311250000 
 N -2.47937780312499 -3.01985770312500 -3.65977911250000 
 N -3.26188580312499 -2.73286870312500 7.090188750000115E-002
 S -1.07431980312499 -6.69027770312500 -4.25638711250000 
 S -3.78735880312499 -6.01859170312500 -1.21275211250000 
 S -1.44823280312499 -7.23158270312500 -0.277049112499999 
 S -0.919257803124994 -3.40063370312500 -3.96678811250000 
 S -4.03619280312499 -2.51690870312500 -1.41085111250000 
 S -1.76532580312499 -3.45946070312500 9.105088750000112E-002
