16

 C -2.41296240312499 -6.58849278437501 -2.26734922500000 
 C -1.24874440312499 -7.03185178437501 -1.53325722500000 
 C -2.43256440312499 -2.72405378437501 -2.41378222500000 
 C -1.19543840312499 -3.21216078437501 -1.76248322500000 
 N -0.138126403124994 -7.19348378437501 -2.25959722500000 
 N -2.10739640312499 -6.40109978437501 -3.55391022500000 
 N -3.07600840312499 -6.71905278437501 0.225821775000001 
 N -0.124021403124994 -3.13290978437501 -2.52753622500000 
 N -2.28610440312499 -2.45360078437501 -3.71262322500000 
 N -3.03739440312499 -3.27506078437501 5.785677500000053E-002
 S -0.535645403124994 -6.75990878437501 -3.78230122500000 
 S -3.74557040312499 -6.19823978437501 -1.21711322500000 
 S -1.50368040312499 -7.21280378437501 0.145444775000001 
 S -0.690502403124994 -2.66972478437501 -4.02332022500000 
 S -3.76868740312499 -2.71425478437501 -1.31331322500000 
 S -1.42116240312499 -3.61038878437501 -9.971522499999952E-002
