16

 C -2.58765487812500 -6.67283752499999 -2.36594414375000 
 C -1.32705187812500 -6.90617552499999 -1.68926214375000 
 C -2.24619287812500 -2.99596752499999 -2.46286914375000 
 C -1.01873687812500 -3.43845752500000 -1.79646714375000 
 N -0.257066878125000 -6.90566252500000 -2.52224314375000 
 N -2.52208087812500 -6.45177352499999 -3.67572514375000 
 N -3.07086687812500 -7.15809952500000 0.135404856250002 
 N -4.518878125000292E-003 -3.57811252500000 -2.65608414375000 
 N -2.10409387812500 -2.75516152500000 -3.78023514375000 
 N -2.77512887812500 -2.99231452499999 5.228085625000234E-002
 S -0.859457878125000 -6.54150152500000 -4.04286014375000 
 S -3.90879687812500 -6.92410352500000 -1.28447214375000 
 S -1.39393987812500 -7.13869852500000 -7.628143749997651E-003
 S -0.541863878125000 -3.26581652500000 -4.17920414375000 
 S -3.62278887812500 -2.78939152500000 -1.41188014375000 
 S -1.19531087812500 -3.40252552500000 -2.153014374999773E-002
