16

 C -2.40219323124999 -6.33118210000000 -2.53807291562500 
 C -1.10075723124999 -6.56887010000000 -1.94819991562500 
 C -2.81379223124999 -2.77311810000000 -2.36882791562500 
 C -1.58883823124999 -3.32709110000000 -1.69761591562500 
 N -0.134249231249992 -6.84953910000000 -2.82105391562500 
 N -2.40491523124999 -6.35489110000000 -3.86789491562500 
 N -2.78262423124999 -6.34502810000000 -1.776391562500002E-002
 N -0.546576231249992 -3.47436710000000 -2.51617591562500 
 N -2.70751123124999 -2.55297510000000 -3.69122091562500 
 N -3.27889823124999 -2.85474710000000 0.208780084375000 
 S -0.802735231249992 -6.70107410000000 -4.34725291562500 
 S -3.61018823124999 -6.09035110000000 -1.42260291562500 
 S -1.16690323124999 -6.69044510000000 -0.177935915625000 
 S -1.15341323124999 -3.11221710000000 -4.04899391562500 
 S -4.06858423124999 -2.56439710000000 -1.22192691562500 
 S -1.69131023124999 -3.25024610000000 2.445908437499988E-002
