16

 C -2.59870345937500 -6.61062115312501 -2.41320905000000 
 C -1.39973545937500 -7.01463315312501 -1.72308105000000 
 C -2.15352445937500 -2.86594915312501 -2.37542205000000 
 C -1.02999745937500 -3.50617515312501 -1.70109005000000 
 N -0.423558459375000 -7.22047815312501 -2.57479205000000 
 N -2.45106045937500 -6.36624715312501 -3.70843305000000 
 N -3.22205345937500 -6.66216315312501 0.172016950000001 
 N 5.634540624999573E-003 -3.69084715312501 -2.48306605000000 
 N -1.85818245937500 -2.59907215312501 -3.62222105000000 
 N -2.88164245937500 -3.32259215312501 2.427195000000104E-002
 S -0.916331459375001 -6.85057815312501 -4.12969405000000 
 S -3.90346345937500 -6.21075915312501 -1.28978705000000 
 S -1.60948045937500 -7.12944915312501 1.515395000000086E-002
 S -0.290200459375001 -3.02470415312501 -3.97548605000000 
 S -3.57656245937500 -2.81997715312501 -1.41551505000000 
 S -1.34823545937500 -3.85767715312501 -7.306904999999886E-002
