16

 C -2.36474097187500 -6.26777611249999 -2.67227511562500 
 C -1.23323497187500 -6.86138811249999 -1.96685211562500 
 C -2.47814197187500 -2.81838611249999 -2.57711211562500 
 C -1.26792997187500 -3.04829011249999 -1.86159611562500 
 N -0.123829971875003 -6.92426911249999 -2.67543411562500 
 N -2.11100697187500 -5.98764911249999 -3.92899211562500 
 N -3.06049497187500 -6.38900811249999 -0.281912115624999 
 N -0.196867971875003 -3.14464911249999 -2.61186611562500 
 N -2.31988397187500 -2.79309111249999 -3.89249411562500 
 N -3.07851797187500 -2.97145911249999 -6.652011562499904E-002
 S -0.538036971875003 -6.35956811249999 -4.21061011562500 
 S -3.68905797187500 -5.83680211249999 -1.72546011562500 
 S -1.44312097187500 -6.81167111249999 -0.204644115624999 
 S -0.671735971875003 -2.87983611249999 -4.20899611562500 
 S -3.87675897187500 -2.65188611249999 -1.51317311562500 
 S -1.46573697187500 -3.22823711249999 -0.205259115624999 
