16

 C -2.34576257812500 -6.28325120312500 -2.21754804375000 
 C -1.13894257812500 -6.74453320312500 -1.57302404375000 
 C -2.33176957812500 -2.49361220312500 -2.12383004375000 
 C -1.13638557812500 -3.15809420312500 -1.63930104375000 
 N -6.275057812500151E-002 -6.94776920312500 -2.35210104375000 
 N -2.17134457812500 -6.10989920312500 -3.51623804375000 
 N -3.06065257812500 -6.54707220312500 0.171456956249999 
 N -0.102244578125001 -3.09768020312500 -2.49026004375000 
 N -2.21575657812500 -1.98109420312500 -3.35094804375000 
 N -2.93359857812500 -3.37723620312500 0.270486956249999 
 S -0.660615578125001 -6.63246020312500 -3.88823404375000 
 S -3.71490057812500 -6.08144820312500 -1.30177204375000 
 S -1.45025757812500 -7.08858720312500 0.137292956250000 
 S -0.645687578125001 -2.46680420312500 -3.85441304375000 
 S -3.63918757812500 -2.48926920312500 -0.926319043750000 
 S -1.33781657812500 -3.76025420312500 -9.052704375000054E-002
