16

 C -2.64970687187501 -6.30950321250000 -2.31421378437500 
 C -1.44196087187501 -6.90508921250000 -1.73942978437500 
 C -2.38935487187501 -2.70916521250000 -2.46033078437500 
 C -1.20316787187501 -3.23153421250000 -1.83748278437500 
 N -0.464238871875005 -7.02933621250000 -2.62026778437500 
 N -2.60677587187501 -6.07549121250000 -3.62285278437500 
 N -3.07775287187501 -6.75914921250000 0.223779215624998 
 N -0.150561871875006 -3.40955121250000 -2.65971478437500 
 N -2.27756787187501 -2.44933821250000 -3.73800978437500 
 N -2.96456087187501 -3.12186021250000 5.205021562499801E-002
 S -1.05942687187501 -6.53768521250000 -4.05709578437500 
 S -3.89297087187501 -6.13035621250000 -1.06207378437500 
 S -1.48646987187501 -7.25469921250000 -4.033778437500191E-002
 S -0.758913871875006 -2.85034321250000 -4.18274778437500 
 S -3.70299187187501 -2.62536521250000 -1.37065778437500 
 S -1.35400487187501 -3.53067221250000 -0.116387784375002 
