16

 C -2.40962850625000 -6.44808528437499 -2.63920335625000 
 C -1.19634450625000 -6.94678328437499 -1.96629135625000 
 C -2.33101950625000 -2.66344328437499 -2.56324835625000 
 C -1.04900850625000 -3.14164028437499 -2.10443635625000 
 N -0.177951506249999 -7.15187428437499 -2.80206235625000 
 N -2.28918250625000 -6.29362228437499 -3.95932735625000 
 N -2.92440350625000 -6.57854228437499 -0.166610356249998 
 N -9.425550624999879E-002 -3.08050528437499 -3.02405135625000 
 N -2.26582950625000 -2.17224228437499 -3.80931035625000 
 N -2.68213250625000 -3.23420428437499 -7.072135624999798E-002
 S -0.790991506249998 -6.86108228437499 -4.29460635625000 
 S -3.64874950625000 -6.19030528437499 -1.55417135625000 
 S -1.31817350625000 -7.08923128437499 -0.260605356249998 
 S -0.671683506249999 -2.34270728437499 -4.33234135625000 
 S -3.58712150625000 -2.56969528437499 -1.27551435625000 
 S -1.12501250625000 -3.62024428437499 -0.456050356249998 
