16

 C -2.46817101562500 -6.44707926562500 -2.53409438750000 
 C -1.27658501562500 -6.87653526562500 -1.82365738750000 
 C -2.69416801562500 -2.92020126562500 -2.49608438750000 
 C -1.53489301562500 -3.47788826562500 -1.88635038750000 
 N -0.210606015624998 -6.98428826562500 -2.66557438750000 
 N -2.32378501562500 -6.27715426562500 -3.84752738750000 
 N -3.17672401562500 -6.68948426562500 -2.347838750000042E-002
 N -0.513342015624999 -3.61161526562500 -2.71716238750000 
 N -2.57349201562500 -2.56655726562500 -3.77485038750000 
 N -3.31055801562500 -3.29470926562500 1.222661249999968E-002
 S -0.741879015624999 -6.67091926562500 -4.19010038750000 
 S -3.86987101562500 -6.15779826562500 -1.38600938750000 
 S -1.54323901562500 -6.98685026562500 -0.121975387500000 
 S -1.00022601562500 -3.12040326562500 -4.20431938750000 
 S -4.00280401562500 -2.86497526562500 -1.43356238750000 
 S -1.75961201562500 -3.73878026562500 -0.172799387500000 
