16

 C -2.32764941874999 -6.54793697500000 -2.40981799375000 
 C -1.10488441874999 -6.86873697500000 -1.70076899375000 
 C -2.47556241874999 -3.20457397500000 -2.29901199375000 
 C -1.21048441874999 -3.50073397500000 -1.66655499375000 
 N -8.083541874999156E-002 -6.95719097500000 -2.55011199375000 
 N -2.21028541874999 -6.45653697500000 -3.73422799375000 
 N -3.05015941874999 -6.67356697500000 1.175600624999928E-002
 N -0.212632418749991 -3.62577297500000 -2.50173999375000 
 N -2.40368941874999 -3.20007997500000 -3.62881599375000 
 N -2.96152041874999 -3.34961397500000 0.273646006249999 
 S -0.650532418749991 -6.85055497500000 -4.11571299375000 
 S -3.72131641874999 -6.33841197500000 -1.44299599375000 
 S -1.38253241874999 -6.94671797500000 -1.430999375000042E-002
 S -0.769909418749991 -3.46871397500000 -3.99007099375000 
 S -3.85160941874999 -3.35722897500000 -1.17425399375000 
 S -1.30558041874999 -3.55133097500000 7.956300624999946E-002
