16

 C -2.21916014062500 -6.70930444375000 -2.21810482500000 
 C -0.897914140625002 -7.06351844375000 -1.71594282500000 
 C -2.54158514062500 -2.68953644375000 -2.31312482500000 
 C -1.31179814062500 -3.26440844375000 -1.72485282500000 
 N -9.622140625002551E-003 -7.05953444375000 -2.70809082500000 
 N -2.26637414062500 -6.43320344375000 -3.50140682500000 
 N -2.52424514062500 -6.99599944375000 0.283313175000000 
 N -0.341361140625002 -3.48738144375000 -2.60881882500000 
 N -2.42660714062500 -2.51347344375000 -3.62704982500000 
 N -3.01638214062500 -3.08496644375000 0.165440175000000 
 S -0.767130140625002 -6.62832844375000 -4.11919282500000 
 S -3.42847514062500 -6.47023944375000 -1.00823982500000 
 S -0.864826140625002 -7.26471044375000 1.715117500000019E-002
 S -0.905942140625002 -3.05805644375000 -4.07763882500000 
 S -3.76344014062500 -2.46287544375000 -1.15867082500000 
 S -1.42418314062500 -3.54506644375000 -2.418482499999985E-002
