16

 C -2.37746209687500 -6.31127242812500 -2.26559479375000 
 C -1.19245809687500 -6.74937242812500 -1.62918779375000 
 C -2.50935809687500 -2.75267542812500 -2.82692879375000 
 C -1.18339009687500 -2.89294542812500 -2.22387579375000 
 N -0.174182096875002 -6.71272942812500 -2.47537079375000 
 N -2.30956509687500 -6.00384142812500 -3.53804879375000 
 N -2.82704409687500 -6.55501542812500 0.231959206250001 
 N -0.157371096875002 -2.85962842812500 -3.10204379375000 
 N -2.39454609687500 -2.64516542812500 -4.16775879375000 
 N -2.89835809687500 -3.12278942812500 -0.313535793749999 
 S -0.713409096875002 -6.25436742812500 -3.99355479375000 
 S -3.71898509687500 -6.17585942812500 -1.14975679375000 
 S -1.33675009687500 -7.19550442812500 -2.521679374999919E-002
 S -0.802144096875002 -2.57898142812500 -4.58134579375000 
 S -3.83293209687500 -2.94990642812500 -1.71206079375000 
 S -1.23689109687500 -3.10947142812500 -0.442852793749999 
