16

 C -2.35327289062501 -6.53576748437500 -2.49779951562500 
 C -1.11734889062501 -6.81539648437500 -1.74323651562500 
 C -2.36877889062501 -3.42032548437499 -2.27277551562500 
 C -1.14212489062501 -3.48881948437499 -1.54750451562500 
 N -3.138589062500508E-002 -7.06274548437499 -2.51874151562500 
 N -2.21371289062501 -6.63290648437500 -3.83444051562500 
 N -2.95243289062501 -6.62153348437499 2.002148437500062E-002
 N -8.145289062500538E-002 -3.60698548437500 -2.34321951562500 
 N -2.29511289062501 -3.40662648437499 -3.56978651562500 
 N -2.93431189062501 -3.41029448437499 0.254949484375001 
 S -0.603047890625006 -6.86482248437500 -4.08772451562500 
 S -3.70829889062501 -6.29671648437500 -1.38397751562500 
 S -1.30465589062501 -6.92821348437499 -4.873551562499934E-002
 S -0.713436890625005 -3.56575248437500 -3.96995051562500 
 S -3.71412989062501 -3.27353548437500 -1.19306151562500 
 S -1.29122689062501 -3.52243348437499 0.164257484375001 
