16

 C -2.60881327500000 -6.24789077500000 -2.37230843125000 
 C -1.45121027500000 -6.79914477500000 -1.70856143125000 
 C -2.50072327500000 -3.05750777500000 -2.37911743125000 
 C -1.18711827500000 -3.23702177500000 -1.74283543125000 
 N -0.527914275000001 -7.30305077500000 -2.52325043125000 
 N -2.51150127500000 -6.22179977500000 -3.66589543125000 
 N -3.25847727500000 -6.37023777500000 6.905556874999985E-002
 N -0.224221275000001 -3.43312277500000 -2.61965843125000 
 N -2.47397527500000 -3.05327577500000 -3.71639043125000 
 N -2.90349227500000 -3.05491577500000 0.174440568750000 
 S -1.12445827500000 -7.05118377500000 -4.06428343125000 
 S -3.93630327500000 -6.00877677500000 -1.34958543125000 
 S -1.57508527500000 -6.83665777500000 1.830256875000003E-002
 S -0.836655275000002 -3.17448077500000 -4.10606443125000 
 S -3.81157827500000 -3.24284077500000 -1.18070143125000 
 S -1.24533227500000 -3.23588177500000 -5.390943125000014E-002
