16

 C -2.43492085625000 -6.47072708750000 -2.35917520312500 
 C -1.20255385625000 -6.91582208750000 -1.74590820312500 
 C -2.34539885625000 -3.05260708750000 -2.18197220312500 
 C -1.07105885625000 -3.34071708750000 -1.69179020312500 
 N -0.188197856250004 -6.99368008750000 -2.59044120312500 
 N -2.36616585625000 -6.34584608750000 -3.66012820312500 
 N -2.89906085625000 -6.71939608750000 9.963779687499819E-002
 N -0.147428856250005 -3.43479508750000 -2.62060920312500 
 N -2.40564885625000 -2.81214008750000 -3.46672120312500 
 N -2.59981585625000 -3.36045908750000 0.363688796874998 
 S -0.811225856250005 -6.61397208750000 -4.09399420312500 
 S -3.70659985625000 -6.34801908750000 -1.26648320312500 
 S -1.26055185625000 -7.01664508750000 1.959879687499821E-002
 S -0.903003856250004 -3.11710108750000 -4.09215320312500 
 S -3.60741585625000 -3.15195508750000 -0.971047203125002 
 S -1.00274085625000 -3.52746308750000 -1.209203125001945E-003
