16

 C -2.47468320937500 -6.57620378750000 -2.41174956250000 
 C -1.17870820937500 -6.91714178750000 -1.81323556250000 
 C -2.19155220937500 -3.27817478750000 -2.22899956250000 
 C -0.962907209375003 -3.58335978750000 -1.54664756250000 
 N -0.186532209375003 -7.22608678750000 -2.62313056250000 
 N -2.41761320937500 -6.54249978750000 -3.74864556250000 
 N -2.84027020937500 -6.64998578750000 0.185503437500000 
 N 6.723279062499632E-002 -3.89324078750000 -2.30469856250000 
 N -2.04277520937500 -3.18577078750000 -3.56837256250000 
 N -2.72975820937500 -3.22997978750000 0.211676437500000 
 S -0.872481209375003 -6.98839578750000 -4.14322156250000 
 S -3.67774820937500 -6.39459778750000 -1.18306256250000 
 S -1.18602420937500 -6.95563278750000 -3.302956249999944E-002
 S -0.513964209375003 -3.59799478750000 -3.96891556250000 
 S -3.56561920937500 -3.11407378750000 -1.21534756250000 
 S -1.12907720937500 -3.65228578750000 0.171205437500001 
