16

 C -2.32268561875000 -6.35839955312500 -2.51864556562500 
 C -1.16077161875000 -6.80042955312500 -1.74614256562500 
 C -2.69287961875000 -2.51322355312500 -2.44798756562500 
 C -1.44902461875000 -2.79655755312500 -1.77246256562500 
 N -4.822361874999626E-002 -7.02866055312500 -2.44581556562500 
 N -2.08889561875000 -6.19324455312500 -3.81227656562500 
 N -3.09705461875000 -6.46584955312500 -5.742256562499870E-002
 N -0.369292618749996 -2.86217655312500 -2.54803756562500 
 N -2.56549361875000 -2.33458255312500 -3.76066756562500 
 N -3.27435261875000 -2.82597055312500 2.747743437500128E-002
 S -0.532025618749996 -6.63356655312500 -4.02094756562500 
 S -3.74532661875000 -6.17085055312500 -1.58154156562500 
 S -1.52174561875000 -7.06406155312500 -7.557565624998652E-003
 S -1.00886361875000 -2.59194555312500 -4.13624256562500 
 S -4.02198161875000 -2.42723555312500 -1.39495156562500 
 S -1.60477161875000 -2.95923155312500 -0.117538565624999 
