16

 C -2.19598650312500 -6.90147253437500 -2.53460690312500 
 C -1.02759850312500 -7.33472153437500 -1.79395790312500 
 C -2.57801950312500 -2.67684753437501 -2.55937790312500 
 C -1.35031950312500 -3.12125253437500 -1.95794390312500 
 N -3.007950312499741E-002 -7.64246653437501 -2.64246490312500 
 N -2.18317950312500 -6.92432953437500 -3.83491790312500 
 N -2.76790450312500 -6.61346553437501 -0.105288903124999 
 N -0.360697503124998 -3.51803953437501 -2.76906090312500 
 N -2.44001150312500 -2.55818853437501 -3.89896590312500 
 N -3.03607350312500 -2.67183453437501 -1.023890312499964E-002
 S -0.630392503124997 -7.44013853437500 -4.19454890312500 
 S -3.47532450312500 -6.27812753437501 -1.56100090312500 
 S -1.16374650312500 -7.24025253437500 -0.155678903125000 
 S -0.916522503124997 -2.99128853437501 -4.28480290312500 
 S -3.82615550312500 -2.35392853437501 -1.38368590312500 
 S -1.47966150312500 -3.19804653437501 -0.208475903125000 
