16

 C -2.52154396875000 -6.51203967187500 -2.29845496562500 
 C -1.23571596875000 -6.85886267187500 -1.75144096562500 
 C -2.28433296875000 -2.95523367187500 -2.25536396562500 
 C -1.08317696875000 -3.36684167187500 -1.67740496562500 
 N -0.218496968750003 -7.03435867187500 -2.61489296562500 
 N -2.40931696875000 -6.35195167187500 -3.62064796562500 
 N -2.93024596875000 -6.71859467187500 0.223507034374997 
 N -0.120203968750002 -3.50200467187500 -2.55536696562500 
 N -2.22015796875000 -2.70555267187500 -3.57223296562500 
 N -2.69657396875000 -3.41879767187500 0.234312034374997 
 S -0.869215968750003 -6.71458367187500 -4.09712096562500 
 S -3.79866396875000 -6.32829967187500 -1.17547696562500 
 S -1.32154796875000 -6.99791167187500 -2.759496562500319E-002
 S -0.640511968750002 -3.05032967187500 -4.05935396562500 
 S -3.60426796875000 -2.97140267187500 -1.10818796562500 
 S -1.11948796875000 -3.73566267187500 1.221103437499704E-002
