16

 C -2.44050629687500 -6.33666032500000 -2.55750439062500 
 C -1.28453229687500 -6.83289032500000 -1.84044639062500 
 C -2.26087129687500 -2.88029432500000 -2.28845339062500 
 C -0.972820296875004 -3.42425532500000 -1.79733639062500 
 N -0.261261296875005 -7.05189432500000 -2.66178539062500 
 N -2.27270129687500 -6.10356232500000 -3.85954339062500 
 N -3.14752629687500 -6.49191032500000 -0.115420390624998 
 N -7.824296875004855E-003 -3.34131532500000 -2.70206339062500 
 N -2.11017229687500 -2.48308832500000 -3.54493639062500 
 N -2.56899929687500 -3.41508032500000 0.189035609375002 
 S -0.738123296875004 -6.52558932500000 -4.16494239062500 
 S -3.79104229687500 -5.87217932500000 -1.52701639062500 
 S -1.54784829687500 -7.03653532500000 -0.148486390624998 
 S -0.617147296875005 -2.88973232500000 -4.14583639062500 
 S -3.50843829687500 -2.98475032500000 -1.08973739062500 
 S -1.01859829687500 -3.96575532500000 -0.140580390624998 
