16

 C -2.60798704999999 -6.66836942500000 -2.14414248125000 
 C -1.41709804999999 -7.23932442500000 -1.63126148125000 
 C -2.29910704999999 -2.74643842500000 -2.34869748125000 
 C -1.14588604999999 -3.34208642500000 -1.74588948125000 
 N -0.568716049999989 -7.52261842500000 -2.58038248125000 
 N -2.58135004999999 -6.31864842500000 -3.43278548125000 
 N -2.98985804999999 -6.99626742500000 0.389909518750000 
 N -0.215319049999989 -3.70290942500000 -2.62359548125000 
 N -2.19231704999999 -2.57203442500000 -3.64534648125000 
 N -2.83092004999999 -3.00215942500000 0.143104518750000 
 S -1.16705404999999 -6.96693342500000 -4.03805648125000 
 S -3.89184304999999 -6.45906242500000 -0.893163481250000 
 S -1.43634704999999 -7.52164142500000 5.829751875000033E-002
 S -0.700905049999989 -3.11787942500000 -4.10794248125000 
 S -3.57584104999999 -2.50601042500000 -1.25020448125000 
 S -1.24496904999999 -3.45247442500000 -3.579548124999965E-002
