16

 C -2.68297587500000 -6.42009507500000 -2.29101982500000 
 C -1.42383887500000 -6.93097107500000 -1.76931182500000 
 C -2.35156087500000 -2.94891207500000 -2.38022382500000 
 C -1.21898787500000 -3.47602407500000 -1.71152282500000 
 N -0.450274875000000 -7.05516507500000 -2.68128982500000 
 N -2.65692887500000 -6.14647807500000 -3.58636982500000 
 N -3.06564987500000 -6.76085707500000 0.259333174999999 
 N -0.163046875000000 -3.76414107500000 -2.47397082500000 
 N -2.16267487500000 -2.70939407500000 -3.68379082500000 
 N -2.97601687500000 -2.95375807500000 0.126752174999999 
 S -1.15674087500000 -6.61349007500000 -4.17470182500000 
 S -3.86426187500000 -6.23425407500000 -1.07854782500000 
 S -1.52183887500000 -7.20638607500000 -2.114982500000062E-002
 S -0.625027875000000 -3.20681307500000 -4.01038782500000 
 S -3.78258087500000 -2.80305007500000 -1.34503282500000 
 S -1.52368187500000 -3.77245807500000 -1.987582500000062E-002
