16

 C -2.58253104687500 -6.48488279375000 -2.21555031875000 
 C -1.32833904687500 -6.94880579375000 -1.58284931875000 
 C -2.46687304687500 -2.92412779375000 -2.24754431875000 
 C -1.22388304687500 -3.28017379375000 -1.62830231875000 
 N -0.335372046875000 -7.03531979375000 -2.44716331875000 
 N -2.46890504687500 -6.20448579375000 -3.50629631875000 
 N -3.06022404687500 -6.61776179375000 0.303687681250002 
 N -0.192681046875000 -3.41037179375000 -2.47210731875000 
 N -2.38916004687500 -2.87112179375000 -3.57686831875000 
 N -2.96420904687500 -3.08830379375000 0.323500681250002 
 S -0.938112046875000 -6.56796079375000 -3.92004031875000 
 S -3.96420404687500 -6.19012379375000 -1.13764331875000 
 S -1.48243004687500 -7.10512579375000 0.103412681250002 
 S -0.799783046875000 -3.28254579375000 -4.01036231875000 
 S -3.77972604687500 -2.80372979375000 -1.08861231875000 
 S -1.33932304687500 -3.32998379375000 0.139023681250002 
