16

 C -2.57315508750000 -6.62220407500000 -2.35284310625000 
 C -1.34147208750000 -6.92092907500000 -1.67399010625000 
 C -2.61647508750000 -2.83971307500000 -2.46912910625000 
 C -1.39692808750000 -3.25552407500000 -1.91924110625000 
 N -0.320600087500003 -7.15145807500000 -2.49213410625000 
 N -2.42705008750000 -6.53663607500000 -3.67159610625000 
 N -3.17357908750000 -6.47312407500000 0.114025893750001 
 N -0.352747087500004 -3.40308307500000 -2.74273210625000 
 N -2.59045408750000 -2.64639407500000 -3.79685910625000 
 N -3.04314008750000 -2.89119707500000 7.517489375000075E-002
 S -0.872708087500003 -6.84773207500000 -4.02555110625000 
 S -3.92038608750000 -6.18095607500000 -1.34746210625000 
 S -1.55791308750000 -6.83694807500000 2.313089375000077E-002
 S -1.05195708750000 -3.03043007500000 -4.23105710625000 
 S -3.90205308750000 -2.50328407500000 -1.29591010625000 
 S -1.46032208750000 -3.36393607500000 -0.190709106249999 
