16

 C -2.54508180000000 -6.59246133750000 -2.47751761250000 
 C -1.26818780000000 -6.90958333750000 -1.84507161250000 
 C -2.28096980000000 -3.20215533750000 -2.18423561250000 
 C -1.12962780000000 -3.66859033750000 -1.55959561250000 
 N -0.291922800000002 -7.08294433750000 -2.73881561250000 
 N -2.50487880000000 -6.63865533750000 -3.79212461250000 
 N -3.08099480000000 -6.64636333750000 4.528238750000124E-002
 N -5.509880000000145E-002 -3.77487633750000 -2.33814061250000 
 N -2.09075680000000 -2.89575533750000 -3.45888661250000 
 N -2.92223780000000 -3.42605333750000 0.283986387500001 
 S -0.935652800000002 -6.87770833750000 -4.26161761250000 
 S -3.84906580000000 -6.46196633750000 -1.38774061250000 
 S -1.42318080000000 -6.87266433750000 -4.777361249999879E-002
 S -0.522618800000001 -3.29195133750000 -3.87374361250000 
 S -3.66260080000000 -3.06569533750000 -1.16152461250000 
 S -1.32869480000000 -3.81821533750000 0.146860387500001 
