16

 C -2.54255580937500 -6.47223259687500 -2.37084133437500 
 C -1.39920680937500 -7.14207959687500 -1.78148133437500 
 C -2.60770080937500 -2.71345959687500 -2.43206433437500 
 C -1.46279780937500 -3.33042059687500 -1.71706733437500 
 N -0.389953809375001 -7.38538159687500 -2.61386033437500 
 N -2.36442080937500 -6.32578259687500 -3.66880733437500 
 N -3.06540580937500 -6.58934059687500 8.886366562499881E-002
 N -0.537489809375001 -3.70485259687500 -2.56301033437500 
 N -2.42853080937500 -2.52958959687500 -3.72491033437500 
 N -3.18542080937500 -2.70565259687500 5.492866562499876E-002
 S -0.907414809375001 -6.99052259687500 -4.16285733437500 
 S -3.78780480937500 -6.12905459687500 -1.27186333437500 
 S -1.56775980937500 -7.25434259687500 -3.024633437500124E-002
 S -0.865664809375001 -3.07607959687500 -4.05905433437500 
 S -3.93617280937500 -2.39026259687500 -1.37208033437500 
 S -1.61966980937500 -3.34421159687500 1.993166562499882E-002
