16

 C -2.58367540625000 -6.30661001562500 -2.51838419375000 
 C -1.32960940625000 -6.68034001562499 -1.91513319375000 
 C -2.63979440625000 -2.94093601562500 -2.32310519375000 
 C -1.43068440625000 -3.32071701562499 -1.68355519375000 
 N -0.305638406249995 -6.83631001562499 -2.74144719375000 
 N -2.50997440625000 -6.25956501562499 -3.85198619375000 
 N -2.97281240625000 -6.43230901562499 5.981480625000146E-002
 N -0.444453406249996 -3.45591601562499 -2.56080119375000 
 N -2.54878040625000 -2.72580801562500 -3.62806519375000 
 N -3.15046340625000 -3.03473801562500 0.231702806250002 
 S -0.951974406249996 -6.53090301562499 -4.22268919375000 
 S -3.83527940625000 -6.17514701562500 -1.34629819375000 
 S -1.34348040625000 -6.68810301562499 -0.139124193749998 
 S -1.02647640625000 -3.18247401562499 -4.06196019375000 
 S -3.89459640625000 -2.64196901562500 -1.21648319375000 
 S -1.56206940625000 -3.43741301562499 3.070180625000152E-002
