16

 C -2.46709506562500 -6.36371954999999 -2.55714345312500 
 C -1.31793606562500 -6.69265754999999 -1.78802245312500 
 C -2.27819606562500 -2.63867554999999 -2.38287945312500 
 C -1.16843406562500 -3.28542454999999 -1.72381845312500 
 N -0.191641065625002 -6.95579754999999 -2.43367345312500 
 N -2.20263006562500 -6.33403554999999 -3.86498745312500 
 N -3.26194006562500 -6.51881854999999 -0.118059453125001 
 N -0.194381065625001 -3.58891954999999 -2.58805245312500 
 N -2.22727306562500 -2.53818154999999 -3.70725045312500 
 N -3.03457106562500 -2.85970654999999 5.361554687499859E-002
 S -0.577034065625002 -6.78852154999999 -4.07593845312500 
 S -3.88389606562500 -6.11884554999999 -1.61998545312500 
 S -1.65715206562500 -6.78286054999999 -8.293945312500139E-002
 S -0.685511065625001 -3.05818254999999 -4.12722345312500 
 S -3.68604706562500 -2.34429754999999 -1.36278745312500 
 S -1.43108306562500 -3.41467454999999 -4.995453125001381E-003
