16

 C -2.62329007187500 -6.32826378437501 -2.58129283750000 
 C -1.44840107187500 -6.88747678437501 -1.91339083750000 
 C -2.68817407187499 -2.59855278437501 -2.49572783750000 
 C -1.58941607187500 -3.17776978437501 -1.79674283750000 
 N -0.353427071874996 -6.90476378437501 -2.68022583750000 
 N -2.44656507187500 -6.05228178437501 -3.89192583750000 
 N -3.20052907187500 -6.62058778437501 -4.823283749999874E-002
 N -0.538354071874995 -3.39573478437501 -2.54768283750000 
 N -2.45158207187499 -2.33234678437501 -3.78623283750000 
 N -3.41910107187500 -2.79565578437501 -1.235783749999886E-002
 S -0.882649071874996 -6.46587978437501 -4.21608983750000 
 S -3.93300507187500 -6.04909578437501 -1.46276983750000 
 S -1.62243207187500 -7.15039578437501 -0.220195837499999 
 S -0.885771071874995 -2.81765378437501 -4.08161083750000 
 S -4.12039807187499 -2.52211378437501 -1.46970783750000 
 S -1.87618007187500 -3.44510278437501 -0.110447837499999 
