16

 C -2.38076211562500 -6.48493661875000 -2.53002269062500 
 C -1.14857811562500 -6.73158561875000 -1.79199369062500 
 C -2.61676311562500 -2.82558761875000 -2.48529169062500 
 C -1.43037211562500 -3.12205861875000 -1.74894169062500 
 N -6.755211562500207E-002 -6.93465061875000 -2.56236269062500 
 N -2.20513311562500 -6.44641161875000 -3.88431769062500 
 N -3.05446611562500 -6.48749161875000 -3.475969062499940E-002
 N -0.309304115625002 -3.04006261875000 -2.47571769062500 
 N -2.43616511562500 -2.60689261875000 -3.77162569062500 
 N -3.32645711562500 -3.07839961875000 6.037309375000577E-003
 S -0.556096115625002 -6.67273061875000 -4.11809469062500 
 S -3.74722311562500 -6.23212061875000 -1.49250069062500 
 S -1.42128511562500 -6.81146861875000 -2.340169062499942E-002
 S -0.787336115625002 -2.84345361875000 -4.04702069062500 
 S -3.96094711562500 -2.50013361875000 -1.41978969062500 
 S -1.66840511562500 -3.30739461875000 -2.360069062499948E-002
