16

 C -2.23090990312500 -6.49906404687500 -2.45933872812500 
 C -1.10742990312500 -7.13662304687500 -1.87731672812500 
 C -2.37914390312500 -2.97789904687500 -2.29481672812500 
 C -1.17680290312500 -3.49748304687500 -1.65142772812500 
 N -3.472490312500298E-002 -7.25045304687500 -2.66715972812500 
 N -2.06322890312500 -6.23050804687500 -3.74381972812500 
 N -2.91002190312500 -6.80228704687500 -1.471072812499807E-002
 N -0.210902903125003 -3.66904504687500 -2.49644872812500 
 N -2.28282690312500 -2.75985704687500 -3.61913872812500 
 N -2.90016590312500 -2.93564604687500 0.172948271875002 
 S -0.548363903125003 -6.84473904687500 -4.22169472812500 
 S -3.55289990312500 -6.20788904687500 -1.42905172812500 
 S -1.36629990312500 -7.37348304687500 -0.113968728124998 
 S -0.745801903125003 -3.18431304687500 -4.00184172812500 
 S -3.76172890312500 -2.74935504687500 -1.28728272812500 
 S -1.33959090312500 -3.50587404687500 8.980727187500182E-002
