16

 C -2.40955650000001 -6.49308767812500 -2.60747570937500 
 C -1.21873450000001 -6.94018767812500 -2.01968370937500 
 C -2.59441850000001 -2.52857967812500 -2.36545970937500 
 C -1.48856950000001 -3.13190867812500 -1.68716670937500 
 N -0.128188500000007 -7.07850567812500 -2.79003570937500 
 N -2.23872050000001 -6.21596967812500 -3.90381170937500 
 N -3.00809450000001 -6.85390367812500 -5.593870937499901E-002
 N -0.459188500000007 -3.51632067812500 -2.44085970937500 
 N -2.44442450000001 -2.36249067812500 -3.68618070937500 
 N -3.39544250000001 -2.90665167812500 0.168949290625001 
 S -0.666669500000007 -6.59708167812500 -4.25808770937500 
 S -3.72119150000001 -6.43986167812500 -1.45622970937500 
 S -1.35387650000001 -7.14304667812500 -0.254449709374999 
 S -0.917580500000007 -2.99103867812500 -3.97703270937500 
 S -3.95696350000001 -2.22571567812500 -1.21193570937500 
 S -1.76312450000001 -3.26650667812500 4.795029062500067E-002
