16

 C -2.51007775000000 -6.31484601250000 -2.56921856250000 
 C -1.36308575000000 -6.85608101250000 -1.80773956250000 
 C -2.41592374999999 -2.52831901250000 -2.41281456250000 
 C -1.23728674999999 -3.00563101250000 -1.71952656250000 
 N -0.305050749999995 -7.11741001250000 -2.55726656250000 
 N -2.30510175000000 -6.23874901250000 -3.86835956250000 
 N -3.24378674999999 -6.57853801250000 -0.138085562500000 
 N -0.185266749999995 -3.19872401250000 -2.56819256250000 
 N -2.31020974999999 -2.37003501250000 -3.74222156250000 
 N -3.07376874999999 -2.53400301250000 2.823743749999963E-002
 S -0.710011749999995 -6.71893001250000 -4.11963456250000 
 S -3.86377675000000 -6.00946501250000 -1.55417756250000 
 S -1.61077275000000 -6.96056401250000 -9.771656250000049E-002
 S -0.740656749999995 -2.81006901250000 -4.04106956250000 
 S -3.80096475000000 -2.18822701250000 -1.41668256250000 
 S -1.48919675000000 -3.02157801250000 -7.203562500000427E-003
