16

 C -2.55751816562500 -6.14376845312500 -2.25734534687500 
 C -1.33690816562500 -6.67729045312500 -1.66715534687500 
 C -2.49488516562500 -2.54281445312500 -2.46227934687500 
 C -1.32617916562500 -2.97963045312500 -1.79251234687500 
 N -0.368239165625002 -6.88820845312500 -2.53648534687500 
 N -2.45081316562500 -5.93563745312500 -3.56341934687500 
 N -2.98175416562500 -6.41114945312500 0.316798653124998 
 N -0.307019165625002 -3.32290845312500 -2.56960734687500 
 N -2.30642916562500 -2.32800345312500 -3.76257234687500 
 N -3.04790716562500 -2.57017645312500 4.728265312499857E-002
 S -0.960014165625002 -6.48394745312500 -4.03925834687500 
 S -3.79787916562500 -5.85326345312500 -1.05085634687500 
 S -1.37719916562500 -6.83720445312500 0.112184653124999 
 S -0.802390165625002 -2.90578345312500 -4.18662634687500 
 S -3.87677716562500 -2.22421045312500 -1.41467034687500 
 S -1.41352716562500 -2.98450845312500 -7.764634687500149E-002
