16

 C -2.32009349374999 -6.35815453437500 -2.51278237812500 
 C -1.14355549374999 -6.81383053437500 -1.73610237812500 
 C -2.71166749374999 -2.50242053437500 -2.44382837812500 
 C -1.46218449374999 -2.81828653437500 -1.79878037812500 
 N -3.347449374999201E-002 -7.01828853437500 -2.44149437812500 
 N -2.08443649374999 -6.17791053437500 -3.81450437812500 
 N -3.09062849374999 -6.45773553437500 -5.672737812499973E-002
 N -0.366536493749992 -2.85441653437500 -2.57335037812500 
 N -2.58930749374999 -2.32791153437500 -3.78340737812500 
 N -3.28396149374999 -2.84542453437500 3.123262187500009E-002
 S -0.528819493749992 -6.63120553437500 -4.01541137812500 
 S -3.73679049374999 -6.17351953437500 -1.56872437812500 
 S -1.50502149374999 -7.06983453437500 -1.291137812499965E-002
 S -1.02061349374999 -2.58159953437500 -4.13815337812500 
 S -4.02807149374999 -2.43494653437500 -1.40006437812500 
 S -1.61600049374999 -2.95044153437500 -0.111811378125000 
