16

 C -2.55462047812500 -6.31811290937500 -2.27250919062500 
 C -1.37734047812500 -6.82132390937501 -1.66749619062500 
 C -2.52692947812500 -3.08163990937501 -2.31690019062500 
 C -1.22916147812500 -3.31718290937501 -1.69875519062500 
 N -0.368480478125000 -7.04988890937501 -2.50150319062500 
 N -2.45482047812500 -6.16350490937501 -3.60119619062500 
 N -3.05911247812500 -6.58710390937501 0.321747809374999 
 N -0.236776478125000 -3.44867690937501 -2.55729319062500 
 N -2.48007147812500 -3.08938690937501 -3.63602819062500 
 N -3.02459347812500 -3.15958590937501 0.135000809374999 
 S -0.913590478125000 -6.63825290937501 -4.02821019062500 
 S -3.85982647812500 -6.14124390937500 -1.09611619062500 
 S -1.52280047812500 -7.10465390937501 0.127809809374999 
 S -0.873895478125000 -3.16342990937501 -4.06379719062500 
 S -3.91228447812500 -2.90995490937501 -1.29749219062500 
 S -1.37809747812500 -3.40524190937501 2.284980937499914E-002
