16

 C -2.51565990937500 -6.29629974062500 -2.50143588125000 
 C -1.32618690937500 -6.81041974062500 -1.84885188125000 
 C -2.40724890937500 -2.50345274062500 -2.44984288125000 
 C -1.28218690937500 -2.98989874062500 -1.73969588125000 
 N -0.316147909375003 -7.11938474062500 -2.67332188125000 
 N -2.35049090937500 -6.18419274062500 -3.79385288125000 
 N -3.20787790937500 -6.44730574062500 -2.803388125000095E-002
 N -0.268590909375003 -3.33505174062500 -2.55166488125000 
 N -2.24766890937500 -2.36666474062500 -3.75724488125000 
 N -3.07248690937500 -2.59360674062500 1.811511874999883E-002
 S -0.836123909375003 -6.72255874062500 -4.20428888125000 
 S -3.84844590937500 -5.96535574062500 -1.48857988125000 
 S -1.63831790937500 -7.00939874062500 -0.117299881250001 
 S -0.715267909375003 -2.87392374062500 -4.14911688125000 
 S -3.77056990937500 -2.12156774062500 -1.45468688125000 
 S -1.42634490937500 -2.98776574062500 -3.717388125000132E-002
