16

 C -2.53176970312500 -6.49723775937500 -2.55202282500000 
 C -1.33240570312500 -6.77027575937500 -1.87190182500000 
 C -2.48048570312500 -2.57096975937500 -2.39831282500000 
 C -1.25832770312500 -3.02425575937500 -1.77633182500000 
 N -0.191564703125004 -6.74244475937500 -2.56134682500000 
 N -2.28121270312500 -6.33802175937500 -3.85312982500000 
 N -3.18133570312500 -6.61314075937500 -4.258582500000263E-002
 N -0.301417703125004 -3.23522975937500 -2.64670782500000 
 N -2.43133570312500 -2.53915475937500 -3.72217782500000 
 N -2.97755070312500 -2.68873075937500 7.042117499999745E-002
 S -0.678299703125004 -6.44633775937500 -4.10836982500000 
 S -3.93885170312500 -6.36118475937500 -1.51082382500000 
 S -1.50285470312500 -6.96810975937500 -0.166801825000003 
 S -0.802836703125004 -2.90616175937500 -4.16698882500000 
 S -3.80039170312500 -2.22176175937500 -1.31818282500000 
 S -1.38858570312500 -3.19665375937500 -8.309782500000273E-002
