16

 C -2.26421556250000 -6.63865120312500 -2.36743783750000 
 C -1.10351856250000 -7.02412820312500 -1.60709583750000 
 C -2.94376356250000 -3.22138220312500 -2.23054683750000 
 C -1.72176656250000 -3.64677920312500 -1.64610183750000 
 N -0.154085562500000 -7.33049020312500 -2.47510983750000 
 N -2.16758156250000 -6.57220920312500 -3.68710683750000 
 N -2.99121656250000 -6.94160620312500 5.770716249999897E-002
 N -0.640121562500000 -3.72088220312500 -2.44772983750000 
 N -2.77585856250000 -2.99637420312500 -3.52985583750000 
 N -3.52454056250000 -3.37634820312500 0.241169162499999 
 S -0.680888562500000 -7.18144820312500 -4.04131583750000 
 S -3.67973656250000 -6.54071420312500 -1.35168783750000 
 S -1.30001856250000 -7.24076920312500 6.947216249999899E-002
 S -1.24034156250000 -3.41633420312500 -3.96108583750000 
 S -4.30046756250000 -2.96676620312500 -1.20590483750000 
 S -1.90763756250000 -3.73988720312500 0.151492162499999 
