16

 C -2.58512930937500 -6.31894943750000 -2.29139070312500 
 C -1.30045930937500 -6.85955643750000 -1.74758970312500 
 C -2.51368830937500 -2.95408843750000 -2.47312170312500 
 C -1.30028430937500 -3.30060643750000 -1.81779870312500 
 N -0.322606309375004 -7.04274643750000 -2.63974470312500 
 N -2.55585730937500 -6.19711443750000 -3.59337470312500 
 N -3.06017730937500 -6.76120543750000 0.202726296874999 
 N -0.195937309375005 -3.31237543750000 -2.61095170312500 
 N -2.41000230937500 -2.70961943750000 -3.77852570312500 
 N -2.96595330937500 -3.21330843750000 8.593529687499890E-002
 S -1.02193830937500 -6.53897743750000 -4.08503870312500 
 S -3.87200530937500 -6.20526643750000 -1.13614870312500 
 S -1.46377630937500 -7.17299143750000 1.137229687499897E-002
 S -0.839645309375004 -2.97284943750000 -4.16968170312500 
 S -3.81321530937500 -2.91278843750000 -1.30220170312500 
 S -1.41413730937500 -3.75276143750000 -0.193284703125001 
