16

 C -2.58431677187500 -6.64123705000000 -2.26560130312500 
 C -1.31455777187500 -6.83062905000000 -1.56444830312500 
 C -2.35510577187500 -2.67728305000000 -2.46012530312500 
 C -1.23021177187500 -3.28885205000000 -1.79657230312500 
 N -0.283395771875004 -6.88327405000000 -2.40760130312500 
 N -2.49367077187500 -6.48614205000000 -3.59160330312500 
 N -3.21327577187500 -6.89011005000000 0.226305696874999 
 N -0.111771771875004 -3.35762005000000 -2.51587630312500 
 N -2.10999677187500 -2.42935405000000 -3.74745930312500 
 N -3.09871877187500 -3.03414505000000 -2.689630312500157E-002
 S -0.898091771875004 -6.64670005000000 -3.94788330312500 
 S -3.99760277187500 -6.69152505000000 -1.20931530312500 
 S -1.55128977187500 -7.18670305000000 0.126047696874999 
 S -0.555092771875004 -2.91214505000000 -4.05255930312500 
 S -3.64766377187500 -2.26587505000000 -1.37124330312500 
 S -1.52375877187500 -3.63114805000000 -6.884630312500151E-002
