16

 C -2.45817943750001 -6.62185989687500 -2.42498207500000 
 C -1.19328143750001 -6.89999689687500 -1.82581407500000 
 C -2.05757743750001 -2.75472589687500 -2.29096307500000 
 C -0.959319437500007 -3.32420389687500 -1.60122307500000 
 N -0.101479437500006 -6.88239289687500 -2.62128007500000 
 N -2.31981343750001 -6.40048689687500 -3.71609007500000 
 N -2.93405343750001 -6.91974589687500 0.188658925000001 
 N 0.126309562499994 -3.39525689687500 -2.36130107500000 
 N -1.92348943750001 -2.51165789687500 -3.59593907500000 
 N -2.90642743750001 -3.17630889687500 8.105092500000044E-002
 S -0.723591437500007 -6.68866089687500 -4.18107007500000 
 S -3.79020543750001 -6.66926789687500 -1.25016607500000 
 S -1.35975043750001 -7.25990389687500 -7.444707499999947E-002
 S -0.306186437500006 -2.89609389687500 -3.87977607500000 
 S -3.48900643750001 -2.48756589687500 -1.30233807500000 
 S -1.36860343750001 -3.69545389687500 3.338092500000056E-002
