16

 C -2.32300538125000 -6.03466622812500 -2.27940777812500 
 C -1.17574438125000 -6.72825022812500 -1.82482277812500 
 C -2.70176238125000 -2.39941722812500 -2.68673877812500 
 C -1.50521238125000 -2.88795422812500 -2.06975077812500 
 N -0.285242381249995 -7.10934822812500 -2.71085477812500 
 N -2.28523138125000 -5.89344522812500 -3.59479377812500 
 N -2.72032438125000 -6.36215622812500 0.230411221874999 
 N -0.509047381249996 -3.10109322812500 -2.87659377812500 
 N -2.64127538125000 -2.37564322812500 -4.01521077812500 
 N -3.13599138125000 -2.38850322812500 -0.222039778125001 
 S -0.867040381249995 -6.56354722812500 -4.14937477812500 
 S -3.51877138125000 -5.75952422812500 -1.05948177812500 
 S -1.21782538125000 -7.08240922812500 -0.120380778125002 
 S -1.07544438125000 -2.75886222812500 -4.43723177812500 
 S -4.00873438125000 -2.14848222812500 -1.59539977812500 
 S -1.54556538125000 -2.86743422812500 -0.370075778125002 
