16

 C -2.47489055000000 -6.44056252812500 -2.53657468750000 
 C -1.26747555000000 -6.85929952812500 -1.83171768750000 
 C -2.69479355000000 -2.91927852812500 -2.50561768750000 
 C -1.55077055000000 -3.50077852812500 -1.89156868750000 
 N -0.196841549999996 -6.98213852812500 -2.66453568750000 
 N -2.32220255000000 -6.27787752812500 -3.84497268750000 
 N -3.18329055000000 -6.68188352812500 -3.127268750000156E-002
 N -0.521021549999995 -3.60627052812500 -2.71043768750000 
 N -2.57438354999999 -2.55785052812500 -3.77929468750000 
 N -3.32411155000000 -3.30062052812500 1.200631249999851E-002
 S -0.746551549999995 -6.67412852812500 -4.17769468750000 
 S -3.86027555000000 -6.16484252812500 -1.40403868750000 
 S -1.54635155000000 -6.99087452812500 -0.132809687500002 
 S -0.997762549999996 -3.12134252812500 -4.20847668750000 
 S -3.99949955000000 -2.85119552812500 -1.42362368750000 
 S -1.76470855000000 -3.74467752812500 -0.171594687500002 
