16

 C -2.43551097812500 -6.52747066562501 -2.37253560312500 
 C -1.22404797812500 -7.12693866562501 -1.87658260312500 
 C -2.61529397812500 -2.52252566562501 -2.39462260312500 
 C -1.56578197812500 -3.22796366562501 -1.66948060312500 
 N -0.282001978124996 -7.21899766562501 -2.83542760312500 
 N -2.39165197812500 -6.19912066562501 -3.67265360312500 
 N -2.82584797812500 -7.07318066562501 0.142398396875002 
 N -0.613002978124996 -3.80526666562501 -2.41303160312500 
 N -2.31666997812500 -2.39795466562501 -3.66886060312500 
 N -3.42116297812500 -2.59993166562501 2.016396875001547E-003
 S -0.903419978124997 -6.63206766562501 -4.23259760312500 
 S -3.69457697812500 -6.45709966562501 -1.15889160312500 
 S -1.24808797812500 -7.45613066562501 -0.202374603124999 
 S -0.989976978124997 -3.33067766562501 -3.98851960312500 
 S -3.97600497812500 -2.01676666562501 -1.44799860312500 
 S -1.86903597812500 -3.25851866562501 5.865039687500162E-002
