16

 C -2.59662436875001 -6.46791586875000 -2.36449565625000 
 C -1.31745636875001 -6.92351986875001 -1.73190665625000 
 C -2.40111036875001 -2.86296686875000 -2.17384965625000 
 C -1.14172436875001 -3.29511186875000 -1.64628165625000 
 N -0.306424368750008 -7.07826086875000 -2.57148865625000 
 N -2.42277736875001 -6.27732986875001 -3.65959265625000 
 N -3.06638336875001 -6.81599586875000 0.147426343749999 
 N -0.183945368750008 -3.46049786875000 -2.53679865625000 
 N -2.38590636875001 -2.66297786875000 -3.48627065625000 
 N -2.83639936875001 -2.96609586875000 0.350895343749999 
 S -0.923015368750008 -6.76899086875000 -4.06708665625000 
 S -3.94847236875001 -6.38715186875000 -1.27054865625000 
 S -1.47208036875001 -7.20339586875000 6.803437499991460E-004
 S -0.782749368750007 -2.97923786875000 -4.04391565625000 
 S -3.68811836875001 -2.46827586875000 -1.02117965625000 
 S -1.27027136875001 -3.48014386875000 0.123605343749999 
