16

 C -2.40179406875000 -6.36292470000000 -2.49880482500000 
 C -1.25018406875000 -6.90930170000000 -1.81077082500000 
 C -2.53089406875000 -2.53172470000000 -2.13758782500000 
 C -1.28079906875000 -2.98874670000000 -1.58115482500000 
 N -0.195281068749997 -7.00546770000000 -2.59900982500000 
 N -2.33773206875000 -6.23324070000000 -3.82276582500000 
 N -3.05610006875000 -6.68144370000000 2.521417499999989E-002
 N -0.318716068749997 -3.19907970000000 -2.45587482500000 
 N -2.47755606875000 -2.43218570000000 -3.44186182500000 
 N -2.92260006875000 -2.94808070000000 0.330986175000000 
 S -0.732919068749997 -6.65823370000000 -4.16370382500000 
 S -3.69343706875000 -6.01867470000000 -1.37703782500000 
 S -1.45820906875000 -7.09858870000000 -9.544382500000026E-002
 S -0.927608068749997 -2.83719770000000 -3.97165782500000 
 S -3.72232506875000 -2.30720070000000 -0.960724825000000 
 S -1.36102106875000 -3.38361570000000 9.116717499999982E-002
