16

 C -2.35957043437500 -6.47154405000000 -2.66476530312500 
 C -1.19704443437500 -6.92165905000000 -1.95596330312500 
 C -2.32496643437500 -2.61184505000000 -2.58154530312500 
 C -1.03578643437500 -3.10941305000000 -2.11929130312500 
 N -0.193057434375001 -7.14813405000000 -2.77480830312500 
 N -2.30987243437500 -6.29241005000000 -3.96632330312500 
 N -2.95091943437500 -6.59340505000000 -0.147708303124999 
 N -6.628543437500145E-002 -3.07981405000000 -3.02057930312500 
 N -2.25621543437500 -2.19706405000000 -3.83784130312500 
 N -2.70177743437500 -3.25391105000000 -5.993530312499962E-002
 S -0.768966434375002 -6.85299105000000 -4.29920930312500 
 S -3.62722643437500 -6.17442505000000 -1.54907930312500 
 S -1.32820543437500 -7.05437905000000 -0.255903303125000 
 S -0.698027434375001 -2.34375905000000 -4.33833730312500 
 S -3.55971543437500 -2.59020605000000 -1.29987230312500 
 S -1.14725943437500 -3.61561105000000 -0.447632303124999 
