16

 C -2.77103838437499 -6.75776071562500 -2.32460300312500 
 C -1.49858638437499 -7.02932771562500 -1.69784400312500 
 C -2.41286438437499 -3.09258171562500 -2.42602600312500 
 C -1.10081338437499 -3.13800571562500 -1.89453600312500 
 N -0.439337384374992 -7.03367571562500 -2.52231900312500 
 N -2.72034138437499 -6.61174671562500 -3.65435700312500 
 N -3.15254438437499 -6.69382171562500 0.185052996874999 
 N -0.151831384374992 -3.22213371562500 -2.81413600312500 
 N -2.51888438437499 -3.27731171562500 -3.75011400312500 
 N -2.76244338437499 -3.11082871562500 0.104191996874999 
 S -1.07308138437499 -6.70580371562500 -4.00569600312500 
 S -4.02494238437499 -6.35025171562500 -1.19334500312500 
 S -1.50537138437499 -7.02985571562500 5.096996874998982E-003
 S -0.961799384374992 -3.22351071562500 -4.29010700312500 
 S -3.65496438437499 -2.99436271562500 -1.23570000312500 
 S -1.11731638437499 -3.33012371562500 -0.159424003125001 
