16

 C -2.57230823749999 -6.23061012187499 -2.45266827500000 
 C -1.44289423749999 -7.01475612187499 -2.05700127500000 
 C -2.53424923749999 -2.62285212187499 -2.39740527500000 
 C -1.36838723749999 -3.18949912187499 -1.77016927500000 
 N -0.472520237499993 -7.25816212187499 -2.94202027500000 
 N -2.47157823749999 -5.86372312187499 -3.70993327500000 
 N -3.08813023749999 -6.97085312187499 -4.612127500000107E-002
 N -0.371085237499994 -3.41669612187499 -2.59627027500000 
 N -2.40158223749999 -2.45592612187499 -3.72012827500000 
 N -3.12040223749999 -2.97709412187499 0.119327724999999 
 S -1.00984523749999 -6.49601612187499 -4.36364927500000 
 S -3.75360123749999 -6.02442912187499 -1.24954927500000 
 S -1.63570123749999 -7.61809712187499 -0.402453275000001 
 S -0.838181237499994 -2.87674412187499 -4.08167427500000 
 S -3.88655923749999 -2.24215312187499 -1.27445327500000 
 S -1.55081423749999 -3.45947512187499 -7.941127500000111E-002
