16

 C -2.68161575625000 -6.30199235937500 -2.24726531875000 
 C -1.41665775625000 -6.83613935937500 -1.76301131875000 
 C -2.43475575625000 -2.96022935937500 -2.34939331875000 
 C -1.34778875625000 -3.59214735937500 -1.66282931875000 
 N -0.522694756250003 -7.10264335937500 -2.69161731875000 
 N -2.67434775625000 -6.05407635937500 -3.53399431875000 
 N -3.08672675625000 -6.78769435937500 0.180407681249996 
 N -0.277776756250002 -3.68584435937500 -2.41192631875000 
 N -2.21821075625000 -2.73485135937500 -3.62922131875000 
 N -3.07131675625000 -3.06660835937500 0.145768681249996 
 S -1.20831175625000 -6.57483535937500 -4.10734731875000 
 S -3.92548375625000 -6.10630635937500 -1.12079631875000 
 S -1.51272675625000 -7.33947735937500 -9.279731875000374E-002
 S -0.634316756250003 -3.21095835937500 -3.99326731875000 
 S -3.77630675625000 -2.66019635937500 -1.33386531875000 
 S -1.59036275625000 -3.85891635937500 -3.931875000384721E-005
