16

 C -2.42929232187499 -6.68938319687500 -2.40409650000000 
 C -1.08862132187499 -7.03160419687500 -1.96476450000000 
 C -2.45136432187499 -2.90263419687500 -2.45408550000000 
 C -1.38492632187499 -3.52734819687500 -1.77824750000000 
 N -0.183283321874992 -7.03782719687500 -2.93387850000000 
 N -2.49345532187499 -6.46062319687500 -3.70246850000000 
 N -2.70306032187499 -7.20165119687500 3.767350000000014E-002
 N -0.311481321874992 -3.69154619687500 -2.50467650000000 
 N -2.28099132187499 -2.71553219687500 -3.72772850000000 
 N -3.14875732187499 -3.10908419687500 -4.455849999999972E-002
 S -0.998159321874992 -6.70601819687500 -4.31115850000000 
 S -3.63281732187499 -6.73431219687500 -1.24009450000000 
 S -1.07408932187499 -7.34575519687500 -0.262448500000000 
 S -0.765874321874992 -3.19714419687500 -4.06859650000000 
 S -3.81882032187499 -2.64745419687500 -1.48009350000000 
 S -1.62653332187499 -3.72223019687500 -0.110335500000000 
