16

 C -2.63648369062500 -6.30466130312500 -2.25659295625000 
 C -1.44655769062500 -6.91317230312500 -1.74723795625000 
 C -2.40503269062500 -2.95837730312500 -2.39108195625000 
 C -1.28410569062500 -3.53391430312500 -1.69284495625000 
 N -0.511453690625001 -7.03424930312500 -2.70541295625000 
 N -2.66807369062500 -6.08871230312500 -3.57531395625000 
 N -3.08907769062500 -6.76125330312500 0.228827043750000 
 N -0.211285690625001 -3.72230130312500 -2.46220995625000 
 N -2.19917369062500 -2.71069830312500 -3.68610695625000 
 N -3.01583969062500 -2.99794130312500 9.098804374999969E-002
 S -1.20916669062500 -6.60018630312500 -4.11448895625000 
 S -3.88519869062500 -6.17628930312500 -1.11313595625000 
 S -1.52512169062500 -7.30080930312500 -5.239495625000012E-002
 S -0.619493690625001 -3.21939430312500 -3.97422595625000 
 S -3.79066969062500 -2.73391130312500 -1.30802095625000 
 S -1.59084069062500 -3.83635330312500 6.575043749999621E-003
