16

 C -2.56208616875000 -6.62268999062500 -2.40330223437500 
 C -1.32805616875000 -6.88205799062500 -1.69721323437500 
 C -2.69479716875000 -2.79566099062500 -2.49593323437500 
 C -1.45185216875000 -3.29532199062500 -1.88011323437500 
 N -0.262085168750000 -7.05583499062500 -2.47359323437500 
 N -2.42256116875000 -6.54929599062500 -3.71938723437500 
 N -3.11296716875000 -6.45598699062500 9.013976562500114E-002
 N -0.472028168750000 -3.42969499062500 -2.76157523437500 
 N -2.57626416875000 -2.73751999062500 -3.81410523437500 
 N -3.05668216875000 -2.89201399062500 3.700276562500115E-002
 S -0.823810168750000 -6.84394599062500 -4.03311423437500 
 S -3.91472216875000 -6.18252799062500 -1.37838723437500 
 S -1.49039116875000 -6.86375299062500 4.378676562500128E-002
 S -0.998629168749999 -2.98340599062500 -4.24712223437500 
 S -3.86880516875000 -2.48522299062500 -1.31825723437500 
 S -1.51672016875000 -3.36973799062500 -0.150431234374999 
