16

 C -2.64831663750000 -6.46919720625000 -2.51852187812500 
 C -1.35033163750000 -6.81274420625000 -2.05073387812500 
 C -2.61337463750000 -2.80642120625000 -2.24051187812500 
 C -1.41303863750000 -3.33441620625000 -1.60345187812500 
 N -0.408937637499998 -7.10396920625000 -2.97221387812500 
 N -2.61955763750000 -6.34977720625000 -3.85669887812500 
 N -2.81473563750000 -6.56746520625000 9.357112187500083E-002
 N -0.361371637499998 -3.46556820625000 -2.40729887812500 
 N -2.48995963750000 -2.59004920625000 -3.55147987812500 
 N -3.27509063750000 -3.11536220625000 0.230962121875001 
 S -1.09316963750000 -6.70453220625000 -4.43121787812500 
 S -3.78035363750000 -6.39733520625000 -1.26128387812500 
 S -1.28834763750000 -7.09636920625000 -0.355464878124999 
 S -0.954588637499998 -3.14605620625000 -3.95945187812500 
 S -4.01954963750000 -2.60318820625000 -1.19422387812500 
 S -1.66303663750000 -3.54415020625000 0.103165121875001 
