16

 C -2.81266005625000 -6.75051678749999 -2.32497348125000 
 C -1.53500805625001 -7.05594478749999 -1.76299348125000 
 C -2.39810705625001 -3.09484778749999 -2.41266648125000 
 C -1.08403205625001 -3.17678578749999 -1.85188248125000 
 N -0.449696056250005 -7.05857978749999 -2.53693948125000 
 N -2.67054805625000 -6.57212778749999 -3.65768648125000 
 N -3.14215105625000 -6.68277578749999 0.227505518749999 
 N -0.143861056250005 -3.19980778749999 -2.78944448125000 
 N -2.50333205625000 -3.27371378749999 -3.72791648125000 
 N -2.76062605625000 -3.11293878749999 9.948051874999919E-002
 S -1.07757005625001 -6.74070478749999 -4.01695248125000 
 S -4.02209905625000 -6.29842178749999 -1.19175448125000 
 S -1.52543105625000 -6.99328678749999 1.719251874999927E-002
 S -0.990976056250005 -3.21477678749999 -4.29591748125000 
 S -3.69672905625001 -3.01330378749999 -1.23710548125000 
 S -1.12287305625000 -3.31698678749999 -0.150686481250001 
