16

 C -2.23139304375000 -6.47976650937501 -2.63457938437500 
 C -1.07494704375000 -7.04757850937501 -1.93674038437500 
 C -2.71756604375000 -2.44775650937501 -2.31711038437500 
 C -1.54375204375000 -2.93032650937501 -1.62544638437500 
 N -8.475804375000084E-002 -7.31137050937501 -2.77427138437500 
 N -2.04931004375000 -6.21948250937501 -3.91489138437500 
 N -2.80917304375000 -6.48251450937501 -0.113120384375003 
 N -0.532805043750001 -3.26653750937501 -2.43973838437500 
 N -2.50494504375000 -2.39311450937501 -3.63285838437500 
 N -3.43228004375000 -2.66888450937501 9.289161562499748E-002
 S -0.575696043750001 -6.79711050937501 -4.27716938437500 
 S -3.59646204375000 -6.12443650937501 -1.52510538437500 
 S -1.23619804375000 -7.05820050937501 -0.229621384375003 
 S -0.970220043750001 -2.90871050937501 -3.95082538437500 
 S -4.06374904375000 -2.19889050937501 -1.33994038437500 
 S -1.83009204375000 -3.08493750937501 4.471161562499737E-002
