16

 C -2.49854701875001 -6.54107311562500 -2.54477954062500 
 C -1.28669701875001 -7.02853011562500 -1.93140654062500 
 C -2.72791301875001 -2.91776211562500 -2.53492254062500 
 C -1.57753401875001 -3.46076711562500 -1.85578254062500 
 N -0.194582018750006 -7.12060811562500 -2.65180254062500 
 N -2.26101701875001 -6.27134911562500 -3.83823454062500 
 N -3.13187601875001 -6.75167211562500 -5.692654062500058E-002
 N -0.540174018750005 -3.59932511562500 -2.68203354062500 
 N -2.55560601875001 -2.56228911562500 -3.79491554062500 
 N -3.46080001875001 -3.23607411562500 -2.776854062500056E-002
 S -0.666924018750006 -6.62438411562500 -4.14630054062500 
 S -3.79823701875001 -6.33185411562500 -1.45869754062500 
 S -1.53845801875001 -7.22743511562500 -0.204825540625001 
 S -1.01006601875001 -3.17971911562500 -4.21367454062500 
 S -3.99421701875001 -2.49004811562500 -1.40432354062500 
 S -1.88798001875001 -3.76423411562500 -0.107471540625001 
