16

 C -2.13568484687501 -6.48741257187500 -2.37614371250000 
 C -0.956771846875007 -7.03789457187500 -1.77737271250000 
 C -2.64747784687501 -2.52616957187500 -2.46692871250000 
 C -1.44530784687501 -2.94070857187500 -1.79950971250000 
 N 3.925015312499269E-002 -7.30572857187500 -2.58787971250000 
 N -2.05954384687501 -6.35995057187500 -3.68553471250000 
 N -2.67961584687501 -6.70950957187500 0.101999287499999 
 N -0.413137846875007 -3.17320057187500 -2.62168771250000 
 N -2.55308084687501 -2.26559657187500 -3.79087471250000 
 N -3.15908184687501 -2.67788557187500 6.743728749999867E-002
 S -0.506267846875008 -6.88451557187500 -4.10932971250000 
 S -3.39685284687501 -6.22628957187500 -1.30212171250000 
 S -1.08617884687501 -7.19441057187500 -1.024371250000122E-002
 S -1.01251384687501 -2.82125857187500 -4.15172771250000 
 S -3.92972384687501 -2.18445857187500 -1.30370071250000 
 S -1.51719684687501 -3.06644957187500 -5.827771250000113E-002
