16

 C -2.48726762500000 -6.28384325312500 -2.26972441562500 
 C -1.36068962500000 -6.91207925312500 -1.67384841562500 
 C -2.29505462500001 -2.33661425312500 -2.46441341562500 
 C -1.05593062500000 -2.79933625312500 -1.87545241562500 
 N -0.375630625000005 -7.10885325312500 -2.49444441562500 
 N -2.37020562500000 -6.01771025312500 -3.54675841562500 
 N -3.11496262500000 -6.69523725312500 0.167953584375000 
 N -7.200762500000479E-002 -3.01321125312500 -2.77615841562500 
 N -2.21790262500001 -2.21701425312500 -3.82815741562500 
 N -2.87486962500000 -2.48011125312500 -1.333541562500029E-002
 S -0.848328625000005 -6.56584625312500 -4.02601041562500 
 S -3.83927762500000 -6.01083725312500 -1.19269841562500 
 S -1.58687962500001 -7.21483925312500 -1.930415625000403E-003
 S -0.655379625000005 -2.71890725312500 -4.23122241562500 
 S -3.60939762500001 -1.87995525312500 -1.38726941562500 
 S -1.36820162500000 -3.18485325312500 -0.172825415625000 
