16

 C -2.47233793124999 -6.65327630312500 -2.43394801562500 
 C -1.21802993124999 -6.90647530312500 -1.73987201562500 
 C -2.11744393125000 -2.89755030312500 -2.35470101562500 
 C -0.939338931249996 -3.30428530312500 -1.62933101562500 
 N -0.176934931249995 -6.89915230312500 -2.58450101562500 
 N -2.39799993124999 -6.50129230312500 -3.76067501562500 
 N -2.95899993124999 -6.98896930312500 6.672598437500077E-002
 N 0.192563068750006 -3.33237830312500 -2.34510101562500 
 N -1.86333393125000 -2.66625730312500 -3.63252801562500 
 N -2.97916993125000 -3.12664230312500 4.907998437500094E-002
 S -0.760331931249995 -6.61968030312500 -4.07743401562500 
 S -3.81629193124999 -6.74834030312500 -1.28271701562500 
 S -1.28167093125000 -7.28394530312500 -9.815801562499926E-002
 S -0.311436931249995 -3.03109830312500 -3.96267101562500 
 S -3.50144693124999 -2.47577930312500 -1.39453801562500 
 S -1.35204493125000 -3.69349630312500 6.403798437500074E-002
