16

 C -2.48262873437500 -6.66450518750000 -2.29885629375000 
 C -1.19880373437500 -6.94570318750000 -1.64352629375000 
 C -2.36178673437500 -2.61216918750000 -2.53644529375000 
 C -1.12741473437500 -3.15530418750000 -2.01773129375000 
 N -0.103603734374999 -6.89792118750000 -2.41133829375000 
 N -2.32507973437500 -6.42718218750000 -3.59177629375000 
 N -2.88707073437500 -6.76754818750000 0.299560706250000 
 N -0.151295734374999 -3.34913118750000 -2.92893729375000 
 N -2.40063273437500 -2.44742418750000 -3.87134529375000 
 N -2.57596973437500 -2.95182218750000 2.002706250000097E-003
 S -0.708306734374999 -6.58980618750000 -3.88966829375000 
 S -3.73953073437500 -6.61117818750000 -1.18515029375000 
 S -1.26980273437500 -7.08780918750000 6.645870625000017E-002
 S -0.923181734374999 -2.93884418750000 -4.33494429375000 
 S -3.52818473437500 -2.42355018750000 -1.25014429375000 
 S -1.08740173437500 -3.48891818750000 -0.362968293750000 
