16

 C -2.43037420625000 -6.52108297187501 -2.42569082812500 
 C -1.31600220625000 -7.01131797187501 -1.67823382812500 
 C -2.35391320625000 -2.81119697187501 -2.55048382812500 
 C -1.15415820625000 -3.28923497187500 -1.86677782812500 
 N -0.252776206250005 -7.31539097187501 -2.42404482812500 
 N -2.16347220625000 -6.45185697187500 -3.72949182812500 
 N -3.30003320625000 -6.72949897187500 -4.867082812500101E-002
 N -0.166281206250004 -3.52353997187500 -2.67526182812500 
 N -2.12193720625000 -2.57455397187501 -3.84140082812500 
 N -3.00010920625000 -3.02644797187500 -3.722082812500060E-002
 S -0.587033206250005 -6.97609697187501 -3.99483282812500 
 S -3.83379420625000 -6.13383697187500 -1.50106082812500 
 S -1.65945120625000 -7.21902497187500 4.451117187499931E-002
 S -0.571072206250004 -3.02871997187501 -4.24280582812500 
 S -3.74411820625000 -2.71014497187501 -1.48087382812500 
 S -1.35264720625000 -3.53768197187500 -0.151974828125001 
