16

 C -2.40597617187500 -6.52315408750000 -2.44007293125000 
 C -1.30480617187500 -7.04018208750000 -1.66439293125000 
 C -2.35081817187500 -2.74699708750000 -2.55871993125000 
 C -1.17496917187500 -3.30783008750000 -1.86959593125000 
 N -0.260933171874999 -7.36757408750000 -2.42427793125000 
 N -2.18602717187500 -6.46232108750000 -3.74297093125000 
 N -3.30091017187500 -6.70276608750000 -1.904193125000098E-002
 N -0.126928171874999 -3.54260608750000 -2.64596293125000 
 N -2.13016617187500 -2.55804908750000 -3.84882093125000 
 N -3.00162217187500 -3.01458008750000 -3.789993125000124E-002
 S -0.643358171874999 -6.96558208750000 -3.99846393125000 
 S -3.84947017187500 -6.10209708750000 -1.48894293125000 
 S -1.71112917187500 -7.16659708750000 5.153906874999881E-002
 S -0.578325171874999 -3.00649808750000 -4.25180293125000 
 S -3.70465517187500 -2.71864208750000 -1.47035393125000 
 S -1.38380817187500 -3.48347408750000 -0.146262931250001 
