16

 C -2.60505160000000 -6.32856628124999 -2.46541170000000 
 C -1.33130460000000 -6.61016328124999 -1.82103270000000 
 C -2.63945260000000 -2.98941228124999 -2.34014770000000 
 C -1.32550860000000 -3.37075428124999 -1.68663470000000 
 N -0.371030600000002 -6.78201528125000 -2.70679370000000 
 N -2.59139960000000 -6.20694928124999 -3.78827370000000 
 N -3.10779260000000 -6.51029528125000 6.220830000000044E-002
 N -0.272346600000001 -3.46185828125000 -2.50569970000000 
 N -2.53860160000000 -2.83542928125000 -3.65379370000000 
 N -3.08474060000000 -3.03801528124999 0.188126300000000 
 S -0.981500600000002 -6.55447228124999 -4.25331570000000 
 S -3.94858660000000 -6.17619328125000 -1.34660270000000 
 S -1.46000460000000 -6.77961628124999 -0.105140700000000 
 S -0.933374600000001 -3.14161428124999 -4.03534870000000 
 S -3.87437160000000 -2.64383428124999 -1.19675770000000 
 S -1.48070860000000 -3.46904028124999 5.093430000000043E-002
