16

 C -2.35046247187500 -6.27477391875000 -2.67767227500000 
 C -1.22778447187500 -6.82893291875000 -1.96445827500000 
 C -2.50074747187500 -2.80123591875000 -2.59712127500000 
 C -1.23266347187500 -3.07076891875000 -1.85895127500000 
 N -0.110386471874998 -6.94139091875000 -2.64432527500000 
 N -2.09576447187500 -5.96891491875000 -3.93097127500000 
 N -3.05454847187500 -6.37121091875000 -0.281546274999998 
 N -0.154080471874998 -3.14392191875000 -2.62397527500000 
 N -2.32342947187500 -2.80142791875000 -3.90814127500000 
 N -3.11134447187500 -2.98802591875000 -5.954127499999773E-002
 S -0.510984471874998 -6.37270891875001 -4.19796327500000 
 S -3.65548547187500 -5.81946691875000 -1.72355027500000 
 S -1.44096247187500 -6.80640391875000 -0.195098274999998 
 S -0.682546471874998 -2.89481391875001 -4.19559927500000 
 S -3.87786047187500 -2.65303391875000 -1.51118627500000 
 S -1.44614047187500 -3.24101591875000 -0.204543274999998 
