16

 C -2.59093927500001 -6.49499325000000 -2.39742939062500 
 C -1.33069627500001 -6.91523425000000 -1.75487239062500 
 C -2.38011427500001 -2.80090525000000 -2.18297139062500 
 C -1.13417527500001 -3.28500925000000 -1.63836939062500 
 N -0.303314275000007 -7.09343025000000 -2.59807639062500 
 N -2.42759127500001 -6.28637225000000 -3.69900539062500 
 N -3.08334027500001 -6.82803725000000 0.169282609374998 
 N -0.195923275000006 -3.46278725000000 -2.56972239062500 
 N -2.37824927500001 -2.66211625000000 -3.51030239062500 
 N -2.83904127500001 -2.99346225000000 0.339546609374998 
 S -0.915380275000007 -6.77187225000000 -4.10179939062500 
 S -3.90505927500001 -6.39386125000000 -1.27797139062500 
 S -1.49116927500001 -7.21199225000000 -5.365390625001742E-003
 S -0.780022275000007 -2.95657725000000 -4.04119339062500 
 S -3.68571227500001 -2.44896525000000 -1.01561139062500 
 S -1.26285927500001 -3.49213425000000 8.799660937499820E-002
