16

 C -2.51644109062500 -6.26672098750000 -2.49252062187500 
 C -1.39706209062500 -6.87938498750000 -1.87620762187500 
 C -2.47953409062500 -2.60314698750000 -2.21242962187500 
 C -1.31633809062500 -3.32585398750000 -1.64716562187500 
 N -0.420809090625000 -7.12853498750000 -2.74817762187500 
 N -2.38101309062500 -6.00656898750000 -3.81140662187500 
 N -3.07454409062500 -6.62050798750000 6.044837812499915E-002
 N -0.381674090625000 -3.68960498750000 -2.54456562187500 
 N -2.34292109062500 -2.29954398750000 -3.51624362187500 
 N -2.95680509062500 -2.73428598750000 0.348773378124999 
 S -0.914335090625000 -6.67439998750000 -4.24211462187500 
 S -3.78528709062500 -6.00345998750000 -1.27941462187500 
 S -1.57358809062500 -7.26659198750000 -0.190212621875001 
 S -0.902913090625000 -2.97211398750000 -3.92620662187500 
 S -3.75615309062500 -2.39011998750000 -1.07347262187500 
 S -1.46654709062500 -3.55336298750000 0.100408378124999 
