16

 C -2.51871461875000 -6.54341156562500 -2.42428920625000 
 C -1.20671261875000 -6.93955856562500 -1.93572020625000 
 C -2.64142261875000 -2.77939156562500 -2.47071020625000 
 C -1.49410661875000 -3.21986556562500 -1.74768720625000 
 N -0.275842618750001 -6.91413056562500 -2.87865120625000 
 N -2.52658461875000 -6.36668356562500 -3.73937820625000 
 N -2.80148661875000 -6.86222256562500 7.266979374999938E-002
 N -0.477550618750001 -3.57143656562500 -2.52365520625000 
 N -2.41790861875000 -2.71840356562500 -3.78174320625000 
 N -3.27641761875000 -2.67529756562500 -7.040020625000065E-002
 S -1.03332861875000 -6.55269656562500 -4.33876520625000 
 S -3.74641461875000 -6.46124556562500 -1.26564920625000 
 S -1.24444861875000 -7.46815256562500 -0.248729206250001 
 S -0.855542618750001 -3.31717056562500 -4.08016720625000 
 S -3.90362961875000 -2.07719356562500 -1.52615220625000 
 S -1.74017861875000 -3.23755156562500 -4.506620625000068E-002
