16

 C -2.60935090937501 -6.50515120937500 -2.35197664062500 
 C -1.36671090937501 -6.94204420937499 -1.78255664062500 
 C -2.35728790937501 -2.98614620937500 -2.42219164062500 
 C -1.11021890937501 -3.42659420937500 -1.72869264062500 
 N -0.372500909375009 -7.06593720937500 -2.63103164062500 
 N -2.60731390937501 -6.33113420937500 -3.65224864062500 
 N -2.95401690937501 -6.70025620937500 0.169867359375000 
 N -0.103900909375009 -3.62710220937500 -2.56795364062500 
 N -2.19959890937501 -2.75672020937500 -3.72998664062500 
 N -2.90462390937501 -3.19090920937500 8.911635937500040E-002
 S -1.03601090937501 -6.65168220937499 -4.11985364062500 
 S -3.82671890937501 -6.24233720937499 -1.18237164062500 
 S -1.33485590937501 -6.99632120937500 -7.330864062499964E-002
 S -0.644585909375008 -3.19640120937500 -4.11582764062500 
 S -3.66236390937501 -2.75056720937499 -1.34092764062500 
 S -1.30115690937501 -3.55795520937500 -9.697640624999782E-003
