16

 C -2.50520139687500 -6.50160433750001 -2.58042665000000 
 C -1.30036239687500 -6.77517833750001 -1.83742165000000 
 C -2.46706339687500 -2.54453033750001 -2.39484865000000 
 C -1.24429539687500 -3.04594433750001 -1.78346665000000 
 N -0.191294396875002 -6.76647933750001 -2.56759565000000 
 N -2.28077439687500 -6.31709333750000 -3.86708465000000 
 N -3.09496839687500 -6.61048233750001 -3.708664999999756E-002
 N -0.225922396875002 -3.24170333750001 -2.61717765000000 
 N -2.36178939687500 -2.56219333750001 -3.70923165000000 
 N -2.99074739687500 -2.73235633750001 0.115876350000002 
 S -0.636620396875002 -6.45924833750001 -4.14504865000000 
 S -3.95539639687500 -6.33944633750001 -1.49981465000000 
 S -1.49305439687500 -6.99117833750001 -0.157984649999998 
 S -0.766824396875002 -2.94231833750001 -4.19040065000000 
 S -3.79789039687500 -2.23433533750001 -1.32657065000000 
 S -1.38607739687500 -3.18406433750001 -5.910064999999753E-002
