16

 C -2.60098805937500 -6.44217795625000 -2.19778680937500 
 C -1.35763405937500 -6.89096195625000 -1.59541180937500 
 C -2.47281605937500 -2.99526595625000 -2.27285480937500 
 C -1.24071605937500 -3.31325195625000 -1.62232380937500 
 N -0.323872059375002 -7.05496295625000 -2.44631180937500 
 N -2.47950105937500 -6.20105495625000 -3.50203680937500 
 N -3.06558905937500 -6.59567595625000 0.285427190625000 
 N -0.212545059375002 -3.36706895625000 -2.47222780937500 
 N -2.44458605937500 -2.87315295625000 -3.59881080937500 
 N -2.97860205937500 -3.13284995625000 0.295144190625000 
 S -0.955466059375002 -6.57485695625000 -3.87706680937500 
 S -3.91760505937500 -6.17721295625000 -1.14126480937500 
 S -1.47583405937500 -7.10888495625000 6.938019062500000E-002
 S -0.819462059375001 -3.28715595625000 -4.01676480937500 
 S -3.74289505937500 -2.83070695625000 -1.14342580937500 
 S -1.36585905937500 -3.32338295625000 0.123225190625000 
