16

 C -2.59338583125000 -6.59059400625000 -2.08904522812500 
 C -1.33593183125000 -7.19067400625000 -1.63007022812500 
 C -2.41127583125000 -2.71797400625000 -2.44009922812500 
 C -1.24063083125000 -3.27002200625000 -1.81173722812500 
 N -0.447529831250004 -7.38654600625000 -2.58646922812500 
 N -2.55731783125000 -6.30668000625000 -3.38104522812500 
 N -2.80170983125000 -6.88425900625000 0.389540771875001 
 N -0.248796831250004 -3.56342600625000 -2.62180822812500 
 N -2.25547683125000 -2.56474400625000 -3.75674222812500 
 N -2.93410083125000 -2.91293900625000 9.719277187500053E-002
 S -1.10547383125000 -6.80057000625000 -3.98322222812500 
 S -3.77792483125000 -6.45136300625000 -0.860220228125000 
 S -1.32424383125000 -7.60525600625000 5.203977187500053E-002
 S -0.765396831250004 -3.17994700625000 -4.16778222812500 
 S -3.70426883125000 -2.41848600625000 -1.31587722812500 
 S -1.39449183125000 -3.56097400625000 -7.799222812499962E-002
