16

 C -2.47522461250001 -6.43226190625000 -2.38262681562500 
 C -1.21710561250001 -6.81824990625000 -1.81615081562500 
 C -2.32318161250001 -2.92656190625000 -2.45791081562500 
 C -1.04536461250001 -3.30367890625000 -1.79865881562500 
 N -0.228691612500007 -6.97525090625000 -2.70945181562500 
 N -2.44472361250001 -6.32372990625000 -3.71011181562500 
 N -2.92795761250001 -6.49323990625000 0.180865184374998 
 N -1.640961250000661E-002 -3.46905590625000 -2.65030581562500 
 N -2.24796361250001 -2.88884090625000 -3.80446481562500 
 N -2.80185261250001 -3.17986790625000 0.107513184374998 
 S -0.924948612500007 -6.72293090625000 -4.22734081562500 
 S -3.78101761250001 -6.28104790625000 -1.24028781562500 
 S -1.34340961250001 -6.92543790625000 -2.176981562500213E-002
 S -0.667152612500007 -3.19957890625000 -4.13921581562500 
 S -3.63948961250001 -2.70281690625000 -1.25860981562500 
 S -1.21336661250001 -3.49368590625000 -8.236081562500219E-002
