16

 C -2.48754677812501 -6.30747750625000 -2.57433568125000 
 C -1.34424977812501 -6.84984450625000 -1.80188568125000 
 C -2.42166077812501 -2.49094650625000 -2.43251768125000 
 C -1.22982377812501 -3.03782350625000 -1.73007168125000 
 N -0.294873778125005 -7.13541850625000 -2.56445968125000 
 N -2.32554877812501 -6.23300450625000 -3.88828268125000 
 N -3.23233377812501 -6.56458350625000 -0.112630681249999 
 N -0.183750778125005 -3.23444150625000 -2.54067468125000 
 N -2.28828477812501 -2.38582550625000 -3.73275068125000 
 N -3.07897277812501 -2.53969550625000 1.436631875000094E-002
 S -0.745786778125005 -6.71224050625000 -4.13415968125000 
 S -3.87085677812501 -5.99830050625000 -1.54793768125000 
 S -1.61953077812501 -6.96664650625000 -9.475468124999908E-002
 S -0.744879778125005 -2.81467650625000 -4.05694568125000 
 S -3.79974477812501 -2.17282150625000 -1.42995468125000 
 S -1.46429277812501 -3.01696150625000 -5.281681249999171E-003
