16

 C -2.19471855625000 -6.36629394062501 -2.54305390937500 
 C -1.02207155625000 -6.98991594062501 -1.91304690937500 
 C -2.67202355625000 -2.40723494062501 -2.38137290937500 
 C -1.51906655625000 -3.05154594062501 -1.70376990937500 
 N 1.185944375000325E-002 -7.29173294062501 -2.68869790937500 
 N -2.00254755625000 -6.22183794062501 -3.83761190937500 
 N -2.81105755625000 -6.55416894062501 -5.569190937500035E-002
 N -0.581911556249997 -3.44316794062501 -2.56469790937500 
 N -2.44921155625000 -2.19380394062501 -3.67996190937500 
 N -3.24436755625000 -2.42850994062501 9.975309062499993E-002
 S -0.517638556249997 -6.87244594062501 -4.23543190937500 
 S -3.55477955625000 -6.12736594062501 -1.48983690937500 
 S -1.33627555625000 -7.29128794062501 -0.205294909375000 
 S -0.905702556249997 -2.78088094062501 -4.05459390937500 
 S -3.99197855625000 -1.96956494062501 -1.34103690937500 
 S -1.79001255625000 -3.13404894062501 -4.333990937500021E-002
