16

 C -2.44891166250000 -6.42307742187501 -2.33501306562500 
 C -1.18123866250000 -6.70242642187501 -1.73172806562500 
 C -2.32012166250000 -3.01427142187501 -2.10903806562500 
 C -1.06741766250000 -3.36421642187501 -1.46228406562500 
 N -0.126966662500004 -6.94186442187501 -2.51135306562500 
 N -2.35228766250000 -6.24788942187501 -3.63907906562500 
 N -2.96446266250000 -6.90556742187501 0.108790934374998 
 N -1.645966250000264E-002 -3.47925242187501 -2.28922406562500 
 N -2.26201366250000 -2.86738842187501 -3.44546006562500 
 N -2.81604466250000 -3.32122242187501 0.432151934374998 
 S -0.746557662500003 -6.59231342187501 -4.00138706562500 
 S -3.78121866250000 -6.52751842187501 -1.28615806562500 
 S -1.31501666250000 -6.97518242187501 -1.477006562500227E-002
 S -0.679377662500004 -3.18768142187501 -3.82287506562500 
 S -3.63893766250000 -2.99246942187501 -0.944496065625002 
 S -1.20909566250000 -3.55169342187501 0.200197934374998 
