16

 C -2.55863756250000 -6.57749799375000 -2.45336718437500 
 C -1.28497456250000 -6.99984799375000 -1.92923818437500 
 C -2.55213856250000 -2.76702799375000 -2.53910218437500 
 C -1.43022156250000 -3.17844199375000 -1.83816918437500 
 N -0.315702562500001 -7.02871999375000 -2.82804318437500 
 N -2.49449456250000 -6.33806399375000 -3.74822718437500 
 N -2.96661056250000 -6.96919699375000 7.204581562500212E-002
 N -0.350253562500001 -3.46288699375000 -2.55091118437500 
 N -2.40327656250000 -2.72496299375000 -3.85716418437500 
 N -3.24889056250000 -2.74117199375000 -2.057618437499786E-002
 S -0.978437562500001 -6.60480399375000 -4.27109718437500 
 S -3.80499356250000 -6.47388799375000 -1.25999418437500 
 S -1.37795956250000 -7.26014699375000 -0.211910184374998 
 S -0.803573562500001 -3.13268299375000 -4.13385318437500 
 S -3.90253856250000 -2.35585499375000 -1.51602118437500 
 S -1.70162656250000 -3.24917999375000 -9.707618437499810E-002
