16

 C -2.60445413437500 -6.51986462500000 -2.36931158437500 
 C -1.32819713437501 -6.83990162500000 -1.76189158437500 
 C -2.19515413437500 -2.99341462500000 -2.32542758437500 
 C -0.981063134375005 -3.55906362500000 -1.66818458437500 
 N -0.331096134375005 -7.08301862500000 -2.58300158437500 
 N -2.50407513437501 -6.39315762500000 -3.67896858437500 
 N -2.96439513437501 -6.55798662500000 0.248442415625000 
 N 8.183486562499542E-002 -3.54004362500000 -2.48951658437500 
 N -2.00983713437501 -2.67284062500000 -3.59249658437500 
 N -2.84029813437501 -3.36914462500000 0.120553415625000 
 S -0.914424134375006 -6.79345162500000 -4.08471658437500 
 S -3.83388513437501 -6.27968162500000 -1.20395858437500 
 S -1.37290413437501 -7.02872762500000 2.817041562499978E-002
 S -0.436247134375005 -3.02154462500000 -3.96272258437500 
 S -3.57093813437501 -2.81538562500000 -1.28602658437500 
 S -1.31027313437501 -3.92986462500000 -4.511658437500010E-002
