16

 C -2.46737149062500 -6.34451289375000 -2.53733679375000 
 C -1.28032649062500 -6.82687889375000 -1.84244079375000 
 C -2.38059449062500 -2.57712089375000 -2.49913779375000 
 C -1.32054649062500 -3.29542089375000 -1.80262479375000 
 N -0.193690490624996 -7.03353589375000 -2.57802979375000 
 N -2.23880249062500 -6.19782289375000 -3.81370279375000 
 N -3.22372349062500 -6.75598389375000 -0.151665793749999 
 N -0.313300490624996 -3.59857589375000 -2.56002279375000 
 N -2.13490649062500 -2.27503989375000 -3.77436079375000 
 N -3.01122649062500 -2.78431489375000 4.887420625000072E-002
 S -0.640665490624996 -6.57851889375000 -4.15693879375000 
 S -3.84365249062500 -6.13267889375000 -1.57623879375000 
 S -1.59420649062500 -7.01056389375000 -9.156479374999926E-002
 S -0.689111490624995 -3.07248989375000 -4.12105179375000 
 S -3.63948449062500 -2.24045789375000 -1.35464379375000 
 S -1.41077449062500 -3.35577389375000 -0.115728793749999 
