16

 C -2.31144515000000 -6.25559900625000 -2.35986333750000 
 C -1.10501515000000 -6.80252200625000 -1.77901533750000 
 C -2.59001515000000 -2.60056300625000 -2.58135033750000 
 C -1.37926615000000 -3.09064900625000 -1.91032833750000 
 N -6.175014999999640E-002 -6.95532100625000 -2.62005933750000 
 N -2.27772315000000 -6.16954800624999 -3.72467433750000 
 N -2.78688415000000 -6.56403300625000 0.222976662499999 
 N -0.371793149999997 -3.45483700625000 -2.70281233750000 
 N -2.49079515000000 -2.57802000625000 -3.91049133750000 
 N -3.23237515000000 -2.71505900625000 -0.113814337500000 
 S -0.698708149999996 -6.64440700625000 -4.12431833750000 
 S -3.57234315000000 -5.95652700625000 -1.18756433750000 
 S -1.25410515000000 -7.06796000625000 -7.926133750000064E-002
 S -0.942756149999997 -3.09178200625000 -4.19579833750000 
 S -3.93647815000000 -2.16942100625000 -1.49792233750000 
 S -1.62437915000000 -3.15263000625000 -0.201443337500001 
