16

 C -2.23010436250000 -6.28597707500000 -2.34318415937500 
 C -0.998581362500006 -6.77166307500000 -1.80864115937500 
 C -2.76420236250001 -2.57967407500000 -2.49159215937500 
 C -1.56116436250001 -3.01418007500000 -1.83162015937500 
 N 2.598763749999478E-002 -6.95656307500000 -2.65441715937500 
 N -2.19713436250001 -6.07513107500000 -3.66369615937500 
 N -2.57195236250001 -6.65392507500000 0.220479840625000 
 N -0.482656362500006 -3.20602807500000 -2.63259515937500 
 N -2.60250336250001 -2.29689407500000 -3.77767815937500 
 N -3.36086436250001 -2.95070507500000 -7.692415937499986E-002
 S -0.646442362500006 -6.45899707500000 -4.11703515937500 
 S -3.45747036250001 -6.24346807500000 -1.07398015937500 
 S -1.00205636250001 -7.23093007500000 -7.533115937499968E-002
 S -1.08835336250001 -2.71550307500000 -4.18904615937500 
 S -4.07174936250001 -2.33864307500000 -1.42181815937500 
 S -1.78313236250001 -3.34659807500000 -0.186566159375000 
