16

 C -2.39850108750000 -6.53908829375000 -2.30760595937500 
 C -1.12786808750000 -7.00101229375000 -1.83991395937500 
 C -2.41072508750000 -2.66766329375000 -2.49785495937500 
 C -1.26568308750000 -3.24630729375000 -1.87893095937500 
 N -0.118801087500000 -7.12466329375000 -2.72920395937500 
 N -2.33506308750000 -6.36162129375000 -3.61185295937500 
 N -2.54646708750000 -6.55793129375000 0.250599040624999 
 N -0.359414087499999 -3.65902529375000 -2.75790795937500 
 N -2.32459408750000 -2.40184129375000 -3.82313195937500 
 N -3.04271808750000 -2.93585829375000 2.548104062499901E-002
 S -0.841215087499999 -6.72231029375000 -4.15035095937500 
 S -3.50153908750000 -6.11049229375000 -1.10831395937500 
 S -0.996508087500000 -6.94672929375000 -9.798995937500088E-002
 S -0.833773087500000 -2.98990529375000 -4.26499595937500 
 S -3.76417808750000 -2.37696429375000 -1.37481395937500 
 S -1.45389008750000 -3.37250429375000 -7.647195937500095E-002
