16

 C -2.42269423750000 -6.69212126875000 -2.28895082812500 
 C -1.20360023750000 -6.90328226875000 -1.61946282812500 
 C -2.35614823749999 -2.62168226875000 -2.50467782812500 
 C -1.10747023749999 -3.18912626875000 -2.03841282812500 
 N -0.126302237499996 -6.83978826875000 -2.38384382812500 
 N -2.32032023750000 -6.48933826875000 -3.61135782812500 
 N -2.93480523750000 -6.83050626875000 0.271725171874996 
 N -0.173122237499995 -3.28935526875000 -2.94054682812500 
 N -2.42069123750000 -2.47599326875000 -3.81948482812500 
 N -2.60967223750000 -2.90784126875000 5.172817187499601E-002
 S -0.723346237499995 -6.57493826875000 -3.89218282812500 
 S -3.73666723750000 -6.62108426875000 -1.17831582812500 
 S -1.29486023750000 -7.07585826875000 6.915117187499598E-002
 S -0.886305237499995 -2.98926126875000 -4.37517982812500 
 S -3.51361823749999 -2.42726426875000 -1.29263282812500 
 S -1.10069223750000 -3.48653526875000 -0.336199828125004 
