16

 C -2.26573615625000 -6.29892138750000 -2.08663866250000 
 C -1.13320615625000 -6.93575438750000 -1.50842566250000 
 C -2.37672115625000 -2.63614438750000 -2.26457766250000 
 C -1.22167415625000 -3.19728038750000 -1.61927766250000 
 N -0.100370156250003 -6.93983138750000 -2.34061866250000 
 N -2.13596915625000 -5.73023538750000 -3.28492566250000 
 N -2.97655515625000 -6.73519438750000 0.357959337500002 
 N -0.172265156250003 -3.46229938750000 -2.39466566250000 
 N -2.07933115625000 -2.23899238750000 -3.50304666250000 
 N -3.08772015625000 -2.99693238750000 0.209388337500002 
 S -0.599038156250002 -6.18671938750000 -3.75048966250000 
 S -3.66584915625000 -6.14395238750000 -1.01296566250000 
 S -1.34447215625000 -7.16946638750000 0.197673337500002 
 S -0.466496156250003 -2.79123538750000 -3.84588766250000 
 S -3.76273015625000 -2.48061138750000 -1.21850966250000 
 S -1.43109115625000 -3.32580538750000 0.153973337500002 
