16

 C -2.34652469687500 -6.54744690000000 -2.19527469062500 
 C -1.15402869687500 -6.98395790000000 -1.54567269062500 
 C -2.42389169687500 -2.69945790000000 -2.51596369062500 
 C -1.15438569687500 -3.05169590000000 -1.89784969062500 
 N -0.111701696874998 -7.02617390000000 -2.37545469062500 
 N -2.19075169687500 -6.21978090000000 -3.49514069062500 
 N -2.95717269687500 -7.09048790000000 0.276581309374998 
 N -0.121849696874998 -3.10986790000000 -2.72684269062500 
 N -2.34201769687500 -2.51326090000000 -3.83464169062500 
 N -2.87221869687500 -3.01551790000000 3.630230937499790E-002
 S -0.617600696874998 -6.49707090000000 -3.83558769062500 
 S -3.74731369687500 -6.64927290000000 -1.12076569062500 
 S -1.33049869687500 -7.34919990000000 0.145343309374998 
 S -0.809016696874998 -2.85495290000000 -4.23640969062500 
 S -3.68532169687500 -2.37224190000000 -1.31413469062500 
 S -1.22854569687500 -3.24773890000000 -9.797369062500216E-002
