16

 C -2.23137589999999 -6.28029937187500 -2.46013942500000 
 C -1.08649789999999 -6.87888237187500 -1.81666942500000 
 C -2.22429689999999 -2.76756237187500 -2.34615842500000 
 C -1.04458289999999 -3.29333037187500 -1.82371842500000 
 N -0.116226899999991 -7.14570537187500 -2.69534542500000 
 N -2.11192789999999 -5.95546237187500 -3.75789542500000 
 N -3.00153389999999 -6.84450337187500 -6.401742499999874E-002
 N -9.424389999999061E-002 -3.59458437187500 -2.67710742500000 
 N -2.22134589999999 -2.65028037187500 -3.65911242500000 
 N -2.67170389999999 -3.04484337187500 0.172211575000001 
 S -0.640770899999991 -6.59126937187500 -4.20731642500000 
 S -3.63585789999999 -6.11582237187500 -1.43324242500000 
 S -1.39004189999999 -7.18603337187500 -0.139054424999999 
 S -0.683267899999991 -3.10624937187500 -4.15608342500000 
 S -3.50983489999999 -2.67899837187500 -1.17457642500000 
 S -1.15763789999999 -3.65078137187500 -0.115394424999999 
