16

 C -2.57632338437500 -6.41790473124999 -2.49311899687500 
 C -1.43079938437500 -6.87225673124999 -1.72169299687500 
 C -2.45713738437500 -2.98435573125000 -2.36509299687500 
 C -1.18388038437500 -3.15619973124999 -1.68127199687500 
 N -0.384845384374998 -7.22028073124999 -2.48458299687500 
 N -2.43754438437500 -6.44362173125000 -3.84552999687500 
 N -3.21821538437500 -6.23974973125000 4.404003125000999E-003
 N -0.152527384374999 -3.36740173124999 -2.52696199687500 
 N -2.35826038437500 -2.99065573125000 -3.69157299687500 
 N -3.04527038437500 -3.09419473125000 0.167423003125001 
 S -0.852689384374998 -6.94151173124999 -4.06010599687500 
 S -3.90274538437500 -5.80599373124999 -1.51940499687500 
 S -1.65958838437500 -6.70796673124999 -2.846499687499904E-002
 S -0.760056384374998 -3.17511973125000 -4.03563799687500 
 S -3.79119638437500 -2.81182973125000 -1.29058099687500 
 S -1.41811238437500 -3.43023673125000 4.979900312500085E-002
