16

 C -2.61114704375000 -6.29568319687500 -2.37030646562500 
 C -1.45317204375000 -7.03134119687500 -1.89792146562500 
 C -2.46976504375000 -2.72641819687500 -2.28107146562500 
 C -1.33968604375000 -3.38321119687500 -1.67111346562500 
 N -0.538358043749997 -7.21539219687500 -2.83262046562500 
 N -2.53189104375000 -5.98870919687501 -3.65077646562500 
 N -3.05564904375000 -6.63604119687500 7.446653437499862E-002
 N -0.339049043749997 -3.73122019687500 -2.49705346562500 
 N -2.27919004375000 -2.40898519687500 -3.58459546562500 
 N -3.08158804375000 -3.00168719687500 0.253779534374999 
 S -1.08551304375000 -6.50472419687500 -4.19543346562500 
 S -3.88102204375000 -5.98346719687500 -1.23273946562500 
 S -1.53694604375000 -7.32129119687500 -0.196262465625002 
 S -0.838691043749996 -3.17193319687501 -3.96052346562500 
 S -3.77852804375000 -2.42725419687500 -1.13592246562500 
 S -1.57746904375000 -3.75496019687500 6.382053437499868E-002
