16

 C -2.46393178437500 -6.48040511250000 -2.32563096250000 
 C -1.20375978437500 -6.87355011250000 -1.73150596250000 
 C -2.55603478437500 -2.82508711250000 -2.37679196250000 
 C -1.33343378437500 -3.24499711250000 -1.73406396250000 
 N -0.172574784375003 -7.03499311250000 -2.57742296250000 
 N -2.44136678437500 -6.38808111250000 -3.67428796250000 
 N -2.97408278437500 -6.92929811250000 0.176157037500001 
 N -0.256799784375003 -3.38123211250000 -2.45350496250000 
 N -2.41440078437500 -2.74157411250000 -3.69278596250000 
 N -3.07103278437500 -2.91779511250000 0.159980037500001 
 S -0.874979784375003 -6.65123911250000 -4.09124196250000 
 S -3.76301178437500 -6.49773711250000 -1.22306496250000 
 S -1.32372978437500 -7.21294911250000 3.750203750000125E-002
 S -0.846230784375003 -3.10122011250000 -4.09618696250000 
 S -3.84038378437500 -2.49275011250000 -1.22450596250000 
 S -1.51378678437500 -3.51329711250000 -1.862196249999881E-002
