16

 C -2.57887835937499 -6.25885061875000 -2.40814397500000 
 C -1.43561435937499 -6.95930061875000 -1.91923697500000 
 C -2.45732935937499 -2.60453361875000 -2.18331097500000 
 C -1.35693635937499 -3.39464361875000 -1.59023497500000 
 N -0.447117359374994 -7.23397961875000 -2.77443897500000 
 N -2.48834435937499 -5.98191561875000 -3.69816197500000 
 N -3.02335735937499 -6.58242061875000 6.718702500000107E-002
 N -0.435893359374995 -3.69347561875000 -2.47339397500000 
 N -2.28213435937499 -2.36208761875000 -3.47697797500000 
 N -2.94508635937499 -2.83620961875000 0.254700025000001 
 S -1.01458235937499 -6.57129261875000 -4.22057197500000 
 S -3.84905335937499 -6.00428761875000 -1.29119797500000 
 S -1.55489235937499 -7.30582261875000 -0.216910974999999 
 S -0.859589359374994 -3.09806361875000 -3.98630497500000 
 S -3.79601135937499 -2.43293761875000 -1.12006297500000 
 S -1.53469235937499 -3.66400561875000 4.146802500000102E-002
