16

 C -2.55532838750000 -6.20955634687500 -2.52164579687500 
 C -1.43730038750000 -6.82440834687500 -1.84758579687500 
 C -2.21705538750000 -2.90968334687500 -2.31251579687500 
 C -0.937261387500000 -3.35865734687500 -1.75806379687500 
 N -0.369763387499999 -7.00375834687500 -2.60782479687500 
 N -2.38865238750000 -6.08047534687500 -3.82547779687500 
 N -3.24335838750000 -6.50402534687500 -8.794679687500073E-002
 N 8.303861250000022E-002 -3.38372534687500 -2.61174979687500 
 N -2.22595338750000 -2.57727034687500 -3.61022179687500 
 N -2.61377038750000 -3.46648934687500 0.229781203125000 
 S -0.793026387499999 -6.58548634687500 -4.16565579687500 
 S -3.88704838750000 -5.87978634687500 -1.49222079687500 
 S -1.66953438750000 -7.00534434687500 -0.119661796875000 
 S -0.627990387500000 -2.84458634687500 -4.04357379687500 
 S -3.42707138750000 -3.00820934687500 -1.12380879687500 
 S -1.02288738750000 -3.89347734687500 -0.102885796875000 
