16

 C -2.59283341250000 -6.69862368750000 -2.39685758125000 
 C -1.34520741250000 -7.12616468750000 -1.71455858125000 
 C -2.48330241250000 -2.84118168750000 -2.34993258125000 
 C -1.25201841250000 -3.36354268750000 -1.79616558125000 
 N -0.267593412499999 -7.18342968750000 -2.50088558125000 
 N -2.44710941250000 -6.48461368750000 -3.73208958125000 
 N -3.06954741250000 -6.91656568750000 0.172079418750002 
 N -0.296144412499999 -3.60122668750000 -2.64615058125000 
 N -2.47245941250000 -2.66171168750000 -3.67640358125000 
 N -2.96625541250000 -3.14839568750000 0.169709418750002 
 S -0.833843412499999 -6.76546868750000 -4.03237458125000 
 S -3.93023141250000 -6.51642168750000 -1.24044858125000 
 S -1.47949641250000 -7.25725268750000 -1.973158124999808E-002
 S -0.955086412499999 -3.12405168750000 -4.15636058125000 
 S -3.75525141250000 -2.64163168750000 -1.18127758125000 
 S -1.35578941250000 -3.51733068750000 -6.195258124999814E-002
