16

 C -2.42545769375000 -6.59707500937500 -2.47836133437500 
 C -1.18706069375000 -6.81773600937500 -1.70036833437500 
 C -2.21329169375000 -2.93562200937500 -2.19683133437500 
 C -0.926321693750003 -3.34080900937500 -1.67568233437500 
 N -0.135444693750003 -6.79596600937500 -2.49883833437500 
 N -2.28964369375000 -6.31439800937500 -3.76175933437500 
 N -3.07003569375000 -6.62869900937500 0.121049665625000 
 N 9.106730624999670E-002 -3.35789000937500 -2.51775633437500 
 N -2.21414169375000 -2.70142800937500 -3.49698033437500 
 N -2.64293069375000 -3.23699800937500 0.325589665624999 
 S -0.615619693750003 -6.50127600937500 -4.07417333437500 
 S -3.79694669375000 -6.40670800937500 -1.35633633437500 
 S -1.39905969375000 -6.86719900937500 5.544466562499961E-002
 S -0.693359693750002 -3.03218300937500 -4.03062633437500 
 S -3.49228069375000 -2.87311200937500 -1.07468733437500 
 S -1.00214069375000 -3.56416900937500 0.120902665625000 
