16

 C -2.32794164375001 -6.60631241250000 -2.31178859375000 
 C -0.928179643750008 -6.81210841250000 -1.88322559375000 
 C -2.57297264375001 -2.83015541250000 -2.38031159375000 
 C -1.39629864375001 -3.37148441250000 -1.72030659375000 
 N -7.694643750008723E-003 -6.94654641250000 -2.81387359375000 
 N -2.39916364375001 -6.45300441250000 -3.62198359375000 
 N -2.38650464375001 -6.92741541250000 0.256079406249998 
 N -0.368220643750008 -3.46560041250000 -2.54703359375000 
 N -2.44808064375001 -2.64855541250000 -3.68998159375000 
 N -3.09905164375001 -2.91913141250000 0.117261406249998 
 S -0.848762643750009 -6.74377541250000 -4.28178859375000 
 S -3.47109564375001 -6.77195841250000 -1.01847059375000 
 S -0.815549643750009 -7.20894841250000 -0.193088593750002 
 S -0.845815643750008 -3.10735041250000 -4.08976659375000 
 S -3.85679064375001 -2.48844441250000 -1.32065259375000 
 S -1.57225264375001 -3.44341741250000 -4.162259375000188E-002
