16

 C -2.15619888125000 -6.10383948750000 -2.60179963437500 
 C -1.02928488125000 -6.54479648750000 -1.83759863437500 
 C -2.36518588125000 -2.74875448750000 -2.52511863437500 
 C -1.08549488125000 -3.14193448750000 -1.84916863437500 
 N 5.593311874999873E-002 -6.89448948750000 -2.56948263437500 
 N -1.89683088125000 -5.96606648750000 -3.89741563437500 
 N -2.98813188125000 -6.33320948750000 -0.201807634375001 
 N -8.953588125000067E-002 -3.34239248750000 -2.73094863437500 
 N -2.30653288125000 -2.71154848750000 -3.87242463437500 
 N -2.96301588125000 -2.90086148750000 3.674336562499869E-002
 S -0.389529881250001 -6.61918748750000 -4.13891563437500 
 S -3.62353588125000 -5.85971848750000 -1.66385063437500 
 S -1.39802788125000 -6.84846148750000 -0.137243634375001 
 S -0.739575881250000 -3.04639548750000 -4.21977563437500 
 S -3.75864388125000 -2.78012348750000 -1.43486063437500 
 S -1.30574988125000 -3.30502648750000 -0.127846634375001 
