16

 C -2.32711081250000 -6.52289469687500 -2.55889789687500 
 C -1.09472781250000 -6.88506269687500 -1.84875889687500 
 C -2.52986681250000 -2.51085369687500 -2.62881489687500 
 C -1.45537881250000 -3.02364669687500 -1.85697189687500 
 N -5.487881250000370E-002 -6.97409669687500 -2.67033489687500 
 N -2.16129781250000 -6.28647169687500 -3.87522089687500 
 N -2.90628381250000 -6.47428969687500 -1.647389687500023E-002
 N -0.346364812500004 -3.25799069687500 -2.49796489687500 
 N -2.24001581250000 -2.33820569687500 -3.90530989687500 
 N -3.39239481250000 -2.88270669687500 -0.207381896875000 
 S -0.518208812500004 -6.50712269687500 -4.17668689687500 
 S -3.70718281250000 -6.26445269687500 -1.42993489687500 
 S -1.27015481250000 -6.90518469687500 -0.114596896875000 
 S -0.675658812500004 -2.89310269687500 -4.06670689687500 
 S -3.97280881250000 -2.43382269687500 -1.67007389687500 
 S -1.78470781250000 -3.18437369687500 -0.117309896875000 
