16

 C -2.64841041562500 -6.48411586250000 -2.30767651562500 
 C -1.38565641562500 -6.95871286250000 -1.76583351562500 
 C -2.33643741562500 -2.96421986250000 -2.39786251562500 
 C -1.18549841562500 -3.50346186250000 -1.76020051562500 
 N -0.438390415625001 -7.10294486250000 -2.69939051562500 
 N -2.61881941562500 -6.31865186250000 -3.62828551562500 
 N -3.00064141562500 -6.76601786250000 0.211752484375002 
 N -0.119195415625001 -3.67577986250000 -2.55246451562500 
 N -2.18346541562500 -2.70034986250000 -3.69812751562500 
 N -2.95504141562500 -3.06899086250000 6.252048437500179E-002
 S -1.07983241562500 -6.61340886249999 -4.11176751562500 
 S -3.91055141562500 -6.22287286250000 -1.12075851562500 
 S -1.38173641562500 -7.07987186250000 -5.686651562499812E-002
 S -0.648701415625001 -3.21122986250000 -4.04562251562500 
 S -3.70431541562500 -2.79399986250000 -1.36406751562500 
 S -1.38133941562500 -3.64892486250000 2.058448437500182E-002
