16

 C -2.50148728125000 -6.71843228125000 -2.38888426562500 
 C -1.23297728125000 -6.96432928125000 -1.74572526562500 
 C -2.14604728125000 -2.84588428125000 -2.42159226562500 
 C -0.973164281250003 -3.25141128125000 -1.62301926562500 
 N -0.169205281250003 -6.92242828125000 -2.57520326562500 
 N -2.40268228125000 -6.55161828125000 -3.70675326562500 
 N -2.93855228125000 -7.05019428125000 9.104273437500177E-002
 N 0.103595718749997 -3.43273628125000 -2.38516926562500 
 N -1.95088128125000 -2.79594928125000 -3.74019826562500 
 N -2.89012328125000 -3.09406728125000 3.152773437500178E-002
 S -0.817020281250003 -6.54829328125000 -4.05239026562500 
 S -3.80285628125000 -6.80072128125000 -1.35063426562500 
 S -1.32437828125000 -7.25570728125000 -5.709326562499828E-002
 S -0.295062281250003 -3.10322328125000 -3.96366526562500 
 S -3.51744528125000 -2.53554828125000 -1.42555926562500 
 S -1.32045028125000 -3.64941528125000 3.042273437500187E-002
