16

 C -2.49697644062500 -6.59890533750000 -2.11957392500000 
 C -1.25126644062500 -7.20989033750000 -1.70188192500000 
 C -2.44333844062500 -2.77775733750000 -2.47483292500000 
 C -1.28397444062500 -3.29517733750000 -1.82520792500000 
 N -0.286803440625000 -7.20069833750000 -2.61737092500000 
 N -2.54684444062500 -6.30548833750000 -3.40461192500000 
 N -2.85790144062500 -7.00817233750000 0.393723075000001 
 N -0.199885440624999 -3.57146033750000 -2.59874392500000 
 N -2.36101344062500 -2.69961333750000 -3.80022292500000 
 N -3.15710744062500 -3.05821433750000 4.600750000010034E-004
 S -1.02667244062500 -6.61094033750000 -4.00329092500000 
 S -3.65770244062500 -6.37360833750000 -0.902256924999999 
 S -1.27334144062500 -7.50728133750000 5.707207500000111E-002
 S -0.805639440624999 -3.16098933750000 -4.10654192500000 
 S -3.74069444062500 -2.31627433750000 -1.36286692500000 
 S -1.57021444062500 -3.60125733750000 -0.113664924999999 
