16

 C -2.60725189687500 -6.29136874062500 -2.45859970937500 
 C -1.45111289687500 -6.78781874062500 -1.76890170937500 
 C -2.41078689687500 -3.02441774062500 -2.35630370937500 
 C -1.20503289687500 -3.32281074062500 -1.67257970937500 
 N -0.456471896874998 -7.29971274062500 -2.51075370937500 
 N -2.44301089687500 -6.38584874062500 -3.75940070937500 
 N -3.29933689687500 -6.27103074062500 2.300229062500025E-002
 N -0.185154896874998 -3.31069674062500 -2.52031670937500 
 N -2.42544189687500 -2.92928674062500 -3.67248070937500 
 N -3.02582289687500 -3.12599674062500 0.144878290625000 
 S -0.913464896874998 -7.00929974062500 -4.09953170937500 
 S -3.90646789687500 -5.80788174062500 -1.40737270937500 
 S -1.63753989687500 -6.74178874062500 -1.546870937499967E-002
 S -0.824985896874998 -3.20738574062500 -4.07743670937500 
 S -3.76933989687500 -3.00447774062500 -1.29995970937500 
 S -1.37877889687500 -3.33421274062500 8.969829062500034E-002
