16

 C -2.48468542187500 -6.82633325000000 -2.37319042187500 
 C -1.23552142187500 -7.15504325000000 -1.73201342187500 
 C -2.79756242187500 -3.24961925000000 -2.14772542187500 
 C -1.60022942187500 -3.53488625000000 -1.41459842187500 
 N -0.177317421875001 -7.20520025000000 -2.56540242187500 
 N -2.33252642187500 -6.56750525000000 -3.68529442187500 
 N -2.86333742187500 -6.90143825000000 0.184301578124999 
 N -0.477769421875001 -3.56580525000000 -2.14688442187500 
 N -2.63782642187500 -3.00783325000000 -3.46694342187500 
 N -3.39261642187500 -3.25207625000000 0.364330578124999 
 S -0.712858421875000 -6.79609525000000 -4.08352442187500 
 S -3.69267342187500 -6.42437325000000 -1.19645142187500 
 S -1.26063842187500 -7.19715125000000 3.943357812499881E-002
 S -0.992189421875001 -3.33227125000000 -3.75999242187500 
 S -4.24290042187500 -3.21524825000000 -1.05808942187500 
 S -1.74808442187500 -3.69532625000000 0.336716578124999 
