16

 C -2.51349727499999 -6.79752413437500 -2.21746140937500 
 C -1.18623927499999 -7.14216313437500 -1.72499240937500 
 C -2.64890127499999 -2.78470413437500 -2.40261440937500 
 C -1.41138727499999 -3.29414913437500 -1.80701340937500 
 N -0.243198274999993 -7.31325313437500 -2.63579940937500 
 N -2.49012127499999 -6.71347913437500 -3.54349740937500 
 N -2.75292327499999 -7.12604713437500 0.356600590624999 
 N -0.447223274999994 -3.46438913437500 -2.68285540937500 
 N -2.48361127499999 -2.47529313437500 -3.70498240937500 
 N -3.09093827499999 -3.16169513437500 0.127322590624999 
 S -0.962781274999993 -7.10125413437500 -4.10826740937500 
 S -3.75605027499999 -6.70112213437500 -0.990753409375001 
 S -1.13599727499999 -7.30950813437500 -4.825409375000866E-003
 S -0.983301274999993 -2.93292313437500 -4.19098040937500 
 S -3.88061627499999 -2.57864913437500 -1.22348140937500 
 S -1.46560627499999 -3.43504413437500 -0.103301409375001 
