16

 C -2.51941640000000 -6.29398250312500 -2.49372177812500 
 C -1.32704440000000 -6.81475550312500 -1.84463777812500 
 C -2.41233040000000 -2.50805750312500 -2.46740777812500 
 C -1.26674940000000 -2.98388150312500 -1.74514777812500 
 N -0.327483399999999 -7.10784050312500 -2.68403677812500 
 N -2.35449940000000 -6.17491150312500 -3.78267277812500 
 N -3.20320140000000 -6.43133950312500 -2.624577812500073E-002
 N -0.280181400000000 -3.33637850312500 -2.57143677812500 
 N -2.25059240000000 -2.35679150312500 -3.76555277812500 
 N -3.07103540000000 -2.59857050312500 2.084022187499923E-002
 S -0.840515399999999 -6.72608050312500 -4.20969477812500 
 S -3.84348840000000 -5.96222150312500 -1.47748977812500 
 S -1.63514840000000 -7.01544950312500 -0.123304778125001 
 S -0.711562400000000 -2.88510850312500 -4.15024777812500 
 S -3.76502540000000 -2.11859550312500 -1.45082777812500 
 S -1.43139540000000 -2.98355950312500 -4.215077812500079E-002
