16

 C -2.22938280312501 -6.10036903125000 -2.03282077187500 
 C -1.08531080312501 -6.74690303125000 -1.44905177187500 
 C -2.34252880312501 -2.58775403125000 -2.29458977187500 
 C -1.24159380312501 -3.16491903125000 -1.61571977187500 
 N -0.141678803125012 -6.91798503125000 -2.35147577187500 
 N -2.20995880312501 -5.75568703125000 -3.30977577187500 
 N -2.87432280312501 -6.87508403125000 0.405159228125000 
 N -0.164659803125013 -3.49299903125000 -2.29780377187500 
 N -2.07632880312501 -2.44903403125000 -3.57253077187500 
 N -3.09109780312501 -2.95388803125000 9.787722812500022E-002
 S -0.640225803125013 -6.18197303125000 -3.80496677187500 
 S -3.62657880312501 -6.15384803125000 -0.921047771875000 
 S -1.28140680312501 -7.23782403125000 0.209636228125000 
 S -0.565553803125013 -2.98017803125000 -3.85448777187500 
 S -3.74096980312501 -2.43572203125000 -1.33994077187500 
 S -1.46322880312501 -3.28042603125000 0.107799228125000 
