16

 C -2.61405876562500 -6.47243008437501 -2.26080993125000 
 C -1.37382476562500 -6.96569508437501 -1.62528993125000 
 C -2.42733076562500 -2.86497508437501 -2.20133793125000 
 C -1.16586876562500 -3.18615808437501 -1.56996393125000 
 N -0.355209765624998 -7.05446708437501 -2.47871193125000 
 N -2.49384076562500 -6.24162108437501 -3.57258693125000 
 N -3.15375376562500 -6.65768608437501 0.289254068750000 
 N -0.184906765624997 -3.54448008437501 -2.40112493125000 
 N -2.36461776562500 -2.84771308437501 -3.52307693125000 
 N -2.88841176562500 -2.96878708437501 0.312497068750000 
 S -0.885404765624997 -6.58601208437501 -4.00302093125000 
 S -3.88154276562500 -6.29682908437501 -1.09496293125000 
 S -1.54098376562500 -7.09637008437501 0.159309068750000 
 S -0.809781765624997 -3.20357308437501 -3.94137993125000 
 S -3.82210176562500 -2.72569908437501 -1.04938993125000 
 S -1.25197376562500 -3.38095908437501 0.131210068750000 
