16

 C -2.22812864687500 -6.50451128124999 -2.27999921250000 
 C -1.06919264687500 -7.07533328124999 -1.74319021250000 
 C -2.29115864687500 -2.61874528124999 -2.46594021250000 
 C -1.11424164687500 -3.17199128125000 -1.84882021250000 
 N -0.103483646875003 -7.31911428124999 -2.63771721250000 
 N -2.21539164687500 -6.31256228124999 -3.59599321250000 
 N -2.57147564687500 -6.62591228125000 0.284064787499999 
 N -4.844064687500360E-002 -3.27911228124999 -2.65200521250000 
 N -2.14740364687500 -2.29111428125000 -3.75917321250000 
 N -2.90089464687500 -3.03411828125000 8.980778749999851E-002
 S -0.753822646875003 -6.82961128124999 -4.08450221250000 
 S -3.34870164687500 -6.05425928124999 -1.04892521250000 
 S -1.16608564687500 -7.35614628124999 2.818178749999856E-002
 S -0.568492646875003 -2.81197628124999 -4.13954221250000 
 S -3.57861364687500 -2.41952428124999 -1.33379621250000 
 S -1.37724464687500 -3.58379528125000 -0.174054212500002 
