16

 C -2.34815210624999 -6.52509036250000 -2.44308067187500 
 C -1.13559010624999 -6.88155836250000 -1.75491767187500 
 C -2.50064710624999 -3.20104136250000 -2.29229867187500 
 C -1.24686810624999 -3.48301336250000 -1.63794067187500 
 N -6.531510624999193E-002 -6.97766936250000 -2.52413267187500 
 N -2.23037010624999 -6.43671336250000 -3.74974767187500 
 N -3.05608310624999 -6.69373136250000 9.784328125000297E-003
 N -0.242895106249993 -3.64753636250000 -2.47290567187500 
 N -2.40603310624999 -3.14330536250000 -3.63880067187500 
 N -2.96830510624999 -3.33259236250000 0.240265328125000 
 S -0.679784106249993 -6.81955936250000 -4.10748567187500 
 S -3.72123410624999 -6.34834036250000 -1.43115567187500 
 S -1.39476210624999 -6.95194136250000 1.916932812500027E-002
 S -0.811049106249992 -3.41865436250000 -4.03517367187500 
 S -3.86665710624999 -3.35621836250000 -1.18884267187500 
 S -1.29753110624999 -3.56874236250000 5.594432812500028E-002
