16

 C -2.53560624374999 -6.44225054999999 -2.28118196875000 
 C -1.34520624374999 -6.92499254999999 -1.67970096875000 
 C -2.44807324374999 -2.92242754999999 -2.20308396875000 
 C -1.17413724374999 -3.32881754999999 -1.61251996875000 
 N -0.318603243749994 -7.07400554999999 -2.51151796875000 
 N -2.46217924374999 -6.27013854999999 -3.60321396875000 
 N -3.08542924374999 -6.78006654999999 0.109505031249999 
 N -0.148870243749994 -3.44466454999999 -2.48734596875000 
 N -2.36978424374999 -2.65661754999999 -3.49205996875000 
 N -2.84166324374999 -2.92189854999999 0.351706031250000 
 S -0.920810243749994 -6.74776954999999 -4.02196796875000 
 S -3.98584124374999 -6.37735954999999 -1.24558996875000 
 S -1.44320924374999 -7.18303654999999 -8.974968750000478E-003
 S -0.820133243749994 -3.02619154999999 -4.00959696875000 
 S -3.66466724374999 -2.52110654999999 -1.03544696875000 
 S -1.27499224374999 -3.45649954999999 0.162401031249999 
