16

 C -2.47619950000000 -6.66020320625000 -2.48200610000000 
 C -1.21623750000000 -6.81656720625000 -1.84591510000000 
 C -2.31509450000000 -3.16361120625000 -2.21120710000000 
 C -1.13306050000000 -3.67608820625000 -1.52955510000000 
 N -0.203597500000002 -7.00555620625000 -2.72664410000000 
 N -2.42717150000000 -6.57379820625000 -3.83000310000000 
 N -3.04132650000000 -6.61021820625000 8.694289999999927E-002
 N -0.106462500000001 -3.88906220625000 -2.35977910000000 
 N -2.15059350000000 -2.90638720625000 -3.50522610000000 
 N -2.91908850000000 -3.47760120625000 0.289170899999999 
 S -0.853605500000001 -6.85633020625000 -4.30752310000000 
 S -3.87057050000000 -6.42251120625000 -1.39914610000000 
 S -1.39909950000000 -6.81029720625000 -9.054010000000079E-002
 S -0.572064500000002 -3.28713620625000 -3.84452210000000 
 S -3.68894350000000 -3.18112020625000 -1.12408210000000 
 S -1.29144750000000 -3.78296720625000 0.195155899999999 
