16

 C -2.67772586562500 -6.41015848125000 -2.29130865625000 
 C -1.42562086562500 -6.93515548125000 -1.76856165625000 
 C -2.36225386562500 -2.94817648125000 -2.38571965625000 
 C -1.21583286562500 -3.47466748125000 -1.71404165625000 
 N -0.455090865624997 -7.04982348125000 -2.67916465625000 
 N -2.65779486562500 -6.14205748125000 -3.58642565625000 
 N -3.06620086562500 -6.76038248125000 0.260010343750002 
 N -0.157840865624997 -3.76749448125000 -2.47562765625000 
 N -2.16207986562500 -2.70812048125000 -3.68889665625000 
 N -2.97611386562500 -2.95370648125000 0.124257343750002 
 S -1.16128286562500 -6.61339248125000 -4.17324965625000 
 S -3.86285786562500 -6.23334848125000 -1.07969965625000 
 S -1.52561086562500 -7.21173348125000 -2.146165624999807E-002
 S -0.626246865624997 -3.20730148125000 -4.00466665625000 
 S -3.78490786562500 -2.80090748125000 -1.34110465625000 
 S -1.53049486562500 -3.77716948125000 -1.670965624999776E-002
