16

 C -2.69387502500000 -6.34936080000000 -2.29998981875000 
 C -1.46272902500000 -6.86923180000000 -1.77097881875000 
 C -2.39560702500000 -2.72963780000000 -2.40150081875000 
 C -1.17742702500000 -3.27132080000000 -1.81653181875000 
 N -0.396988025000001 -6.98373780000000 -2.57882181875000 
 N -2.57761202500000 -6.05923680000000 -3.61351481875000 
 N -3.05048702500000 -6.78180780000000 0.255956181249998 
 N -0.178115025000000 -3.36264380000000 -2.65291581875000 
 N -2.30624902500000 -2.55069380000000 -3.73073081875000 
 N -2.99763402500000 -3.14195280000000 5.101118124999826E-002
 S -1.06444902500000 -6.56172980000000 -4.06592281875000 
 S -3.88540502500000 -6.13873680000000 -1.07872381875000 
 S -1.47670702500000 -7.24029680000000 -5.068381875000183E-002
 S -0.780280025000001 -2.88135180000000 -4.21754681875000 
 S -3.76287902500000 -2.71075180000000 -1.35922881875000 
 S -1.36198102500000 -3.61501880000000 -0.118554818750002 
