16

 C -2.53491100625001 -6.71733295937500 -2.31282397812500 
 C -1.28894500625000 -7.05125595937500 -1.74122097812500 
 C -2.50081000625001 -2.81618495937500 -2.34471097812500 
 C -1.29430300625001 -3.31548795937500 -1.75020197812500 
 N -0.245951006250006 -7.07361095937500 -2.56081797812500 
 N -2.41142800625001 -6.43795795937500 -3.59849397812500 
 N -3.09556400625001 -6.94106695937500 0.145455021875001 
 N -0.325194006250006 -3.47568095937500 -2.58697397812500 
 N -2.45378000625001 -2.71417995937500 -3.65273097812500 
 N -2.98489600625000 -3.03104095937500 0.176110021875001 
 S -0.843923006250005 -6.72548895937500 -4.07331597812500 
 S -3.86014900625001 -6.49727395937500 -1.23338097812500 
 S -1.43689500625001 -7.22463595937500 -5.496978124999163E-003
 S -0.925396006250005 -3.11599195937500 -4.10779297812500 
 S -3.79989200625001 -2.57710595937500 -1.24302297812500 
 S -1.38997600625001 -3.52725395937500 -2.854697812499873E-002
