16

 C -2.82331775625000 -6.39237365312500 -2.44807315625000 
 C -1.62168975625000 -6.91607465312500 -1.83240115625000 
 C -2.26086075625000 -2.85993765312500 -2.23744115625000 
 C -0.955401756249995 -3.21371365312500 -1.58387115625000 
 N -0.516729756249995 -6.95722965312500 -2.58298415625000 
 N -2.64380975625000 -6.16149465312500 -3.73403815625000 
 N -3.42894875625000 -6.55191465312500 4.291584375000301E-002
 N 2.497824375000501E-002 -3.44446765312500 -2.46851615625000 
 N -2.19126575625000 -2.71565365312500 -3.56156015625000 
 N -2.83898475625000 -3.14724965312500 0.248941843750003 
 S -1.02002875625000 -6.46118065312500 -4.09529415625000 
 S -4.13702675624999 -6.07244665312500 -1.36396715625000 
 S -1.83881375625000 -6.99670365312500 -9.277415624999685E-002
 S -0.644949756249996 -3.08166565312500 -3.99118515625000 
 S -3.66968175624999 -2.90943965312500 -1.18105915625000 
 S -1.15688775625000 -3.51932465312500 0.108215843750003 
