16

 C -2.36817392187500 -6.54508001250000 -2.40089398437500 
 C -1.14485092187500 -6.91606401250000 -1.77282598437500 
 C -2.16076192187500 -2.60580101250000 -2.27393598437500 
 C -1.04927392187500 -3.23314001250000 -1.61696998437500 
 N -0.121403921874998 -7.03361501250000 -2.61751198437500 
 N -2.34326192187500 -6.40082701250000 -3.70149898437500 
 N -2.96459692187500 -6.77912101250000 0.108241015624998 
 N -2.257692187499760E-002 -3.51813501250000 -2.38988798437500 
 N -1.88851292187500 -2.28012901250000 -3.54300998437500 
 N -2.84980492187500 -3.18934301250000 0.180858015624998 
 S -0.759101921874998 -6.66886801250000 -4.12186698437500 
 S -3.73354992187500 -6.56598101250000 -1.31589598437500 
 S -1.35194992187500 -7.19716401250000 -2.702498437500234E-002
 S -0.346257921874997 -2.74615901250000 -3.84689698437500 
 S -3.55693592187500 -2.52330001250000 -1.21561098437500 
 S -1.25117692187500 -3.74186201250000 3.652701562499772E-002
