16

 C -2.33219793437500 -6.31641135937500 -2.50937778125000 
 C -1.11215193437500 -6.49673635937500 -1.79861878125000 
 C -2.56638093437500 -2.30746535937500 -2.75545178125000 
 C -1.56239093437500 -3.03334035937500 -2.00223378125000 
 N -7.751293437500184E-002 -6.73793435937500 -2.58730378125000 
 N -2.21520493437500 -6.31493135937500 -3.85798978125000 
 N -3.00530493437500 -6.66854235937500 -3.539978125000043E-002
 N -0.385093934375002 -3.20340435937500 -2.61299478125000 
 N -2.13722493437500 -1.92530135937500 -3.96898278125000 
 N -3.43943993437500 -2.58942835937500 -0.333074781250000 
 S -0.604393934375001 -6.66745935937500 -4.19074678125000 
 S -3.76593393437500 -6.39740935937500 -1.49258378125000 
 S -1.29567193437500 -6.75684835937500 -9.943278125000043E-002
 S -0.581140934375002 -2.54685835937500 -4.11260978125000 
 S -3.88398693437500 -2.00260635937500 -1.77194478125000 
 S -2.01013793437500 -3.43954935937500 -0.400358781250000 
