16

 C -2.46106364687500 -6.40981482187500 -2.38021021250000 
 C -1.20153364687500 -6.81667782187500 -1.80402221250000 
 C -2.32078064687500 -2.93632182187500 -2.46300921250000 
 C -1.04951864687500 -3.28450682187500 -1.81390721250000 
 N -0.217240646875003 -6.97253982187500 -2.70355921250000 
 N -2.43901364687500 -6.32978282187500 -3.71870121250000 
 N -2.92432464687500 -6.47749582187500 0.175066787500000 
 N -7.650646875003275E-003 -3.45720182187500 -2.64923321250000 
 N -2.25162964687500 -2.88592182187500 -3.80867321250000 
 N -2.78466564687500 -3.17002382187500 0.102780787500000 
 S -0.913828646875003 -6.72419782187500 -4.23582221250000 
 S -3.78368064687500 -6.28251982187500 -1.24863821250000 
 S -1.33882364687500 -6.92252982187500 -2.297021249999931E-002
 S -0.673645646875003 -3.20125882187500 -4.14080921250000 
 S -3.63636064687500 -2.70102382187500 -1.25681021250000 
 S -1.20746764687500 -3.49347182187500 -8.026121249999951E-002
