16

 C -2.35113030625000 -6.27923107500000 -2.66683499687500 
 C -1.22599730625000 -6.84445907500000 -1.94651199687500 
 C -2.50569530625000 -2.83560307500000 -2.57682799687500 
 C -1.29121830625000 -3.02469407500000 -1.88495899687500 
 N -0.144234306250000 -6.90555707500000 -2.75584599687500 
 N -2.14723130625000 -6.00724607500000 -3.95971899687500 
 N -3.08987730625000 -6.41919607500000 -0.240116996875000 
 N -0.204519306250001 -3.13312907500000 -2.63749499687500 
 N -2.32349830625000 -2.74685407500000 -3.88813299687500 
 N -3.07052830625000 -2.92607407500000 -8.693999687499998E-002
 S -0.578198306250001 -6.34907507500000 -4.23278899687500 
 S -3.75717330625000 -5.88313707500000 -1.70022299687500 
 S -1.46892830625000 -6.82676107500000 -0.244976996875000 
 S -0.671818306250000 -2.87404007500000 -4.20675499687500 
 S -3.85690430625000 -2.65903307500000 -1.50880899687500 
 S -1.48320830625000 -3.21263707500000 -0.171441996875000 
