16

 C -2.33930969375000 -6.38309295937500 -2.29761327812500 
 C -1.09117569375000 -6.94947795937500 -1.78077727812500 
 C -2.38268869375000 -2.96768695937500 -2.42738827812500 
 C -1.14080569375000 -3.29005495937500 -1.82773427812500 
 N -0.129505693750001 -7.04834995937500 -2.67491327812500 
 N -2.28768269375000 -6.14284995937500 -3.58920027812500 
 N -2.80780369375000 -6.83002695937500 0.149973721874999 
 N -8.567469375000147E-002 -3.32541195937500 -2.62973327812500 
 N -2.33950169375000 -2.78672295937500 -3.77825727812500 
 N -3.00206969375000 -3.41524495937500 9.367218749993800E-004
 S -0.735780693750002 -6.46595595937500 -4.11507327812500 
 S -3.64769669375000 -6.36346595937500 -1.24704527812500 
 S -1.23389569375000 -7.27898795937500 -6.465727812500077E-002
 S -0.756417693750002 -3.03349295937500 -4.20346827812500 
 S -3.73181069375000 -2.90406395937500 -1.36193427812500 
 S -1.35248269375000 -3.64763395937500 -0.142745278125000 
