16

 C -2.41098554687500 -6.62883167187499 -2.46917545625000 
 C -1.17960854687500 -7.00138267187499 -1.86297245625000 
 C -2.62899754687500 -2.94342467187499 -2.25378645625000 
 C -1.33734454687500 -3.37374467187499 -1.67882745625000 
 N -0.117925546875000 -7.20970967187499 -2.68752845625000 
 N -2.41364954687500 -6.70245167187499 -3.82951045625000 
 N -2.95406554687500 -6.83133367187499 9.996954374999945E-002
 N -0.337712546875000 -3.45192367187499 -2.57846545625000 
 N -2.53373454687500 -2.67162467187499 -3.57161445625000 
 N -3.00661054687500 -3.09572467187499 0.274446543749999 
 S -0.820356546875001 -6.97473867187499 -4.18086345625000 
 S -3.67901254687500 -6.41478067187499 -1.23329145625000 
 S -1.32248054687500 -7.17476467187499 -0.109309456250001 
 S -0.974425546875000 -3.00776467187499 -4.07874945625000 
 S -3.83007954687500 -2.45810667187499 -1.01922645625000 
 S -1.32344554687500 -3.40116367187499 9.585954374999939E-002
