16

 C -2.29803320312499 -6.47221208750000 -2.19197543125000 
 C -1.11684920312499 -7.03046908750000 -1.51166843125000 
 C -2.42299420312499 -2.71631608750000 -2.37691943125000 
 C -1.15315620312499 -3.15484008750000 -1.69757743125000 
 N -3.588820312499230E-002 -7.22685108750000 -2.29092243125000 
 N -2.13536020312499 -6.29411908750000 -3.50344543125000 
 N -3.04062320312499 -6.75077508750000 0.251522568750001 
 N -0.161481203124992 -3.24399008750000 -2.54594443125000 
 N -2.28104720312499 -2.38841908750000 -3.66472443125000 
 N -2.96313520312499 -3.17643308750000 0.147114568750001 
 S -0.541436203124992 -6.76732708750000 -3.84871443125000 
 S -3.68627020312499 -6.25976508750000 -1.21674643125000 
 S -1.43295220312499 -7.23016208750000 0.279432568750001 
 S -0.665173203124992 -2.68132508750000 -4.04803343125000 
 S -3.78857320312499 -2.67078208750000 -1.24695743125000 
 S -1.38096320312499 -3.68886508750000 -6.412343124999920E-002
