16

 C -2.31298213750000 -6.72515090625000 -2.32657373437500 
 C -1.13082413750000 -7.38664090625000 -1.81058873437500 
 C -2.65317013750000 -2.82604490625000 -2.61667373437500 
 C -1.53303913750000 -3.21834190625000 -1.84265873437500 
 N -0.179802137500001 -7.54216790625000 -2.69181273437500 
 N -2.26669913750000 -6.40806790625000 -3.64566373437500 
 N -2.83947313750000 -7.09792890625000 0.111846265625000 
 N -0.382041137500001 -3.40587190625000 -2.51950373437500 
 N -2.44777613750000 -2.78842090625000 -3.93154273437500 
 N -3.33783513750000 -2.66645090625000 -0.139024734375000 
 S -0.790997137500001 -7.00229390625000 -4.16612573437500 
 S -3.56815113750000 -6.38184090625000 -1.18780473437500 
 S -1.30314813750000 -7.66981490625000 -0.127053734375000 
 S -0.892020137500001 -3.09498190625000 -4.10290573437500 
 S -4.02577213750000 -2.49889490625000 -1.65695573437500 
 S -1.79029413750000 -3.27269190625000 -0.142723734375000 
