16

 C -2.54580269687500 -6.48080269062500 -2.38263780625000 
 C -1.35964669687499 -6.96573169062500 -1.73343180625000 
 C -2.33950969687499 -2.88427369062500 -2.39901480625000 
 C -1.09803969687500 -3.36190269062500 -1.77441180625000 
 N -0.336774696874995 -7.09237869062500 -2.56013480625000 
 N -2.40676769687499 -6.25612869062500 -3.67396780625000 
 N -3.07426969687500 -6.60132669062500 0.114564193750000 
 N -7.205969687499447E-002 -3.53012169062500 -2.63080980625000 
 N -2.29657469687499 -2.82006969062500 -3.73578280625000 
 N -2.77296269687499 -2.91573969062500 0.128389193750000 
 S -0.851020696874995 -6.62777869062500 -4.05150580625000 
 S -3.82192469687500 -6.06966669062500 -1.26283780625000 
 S -1.52525369687500 -7.19509169062500 -6.670780624999995E-002
 S -0.726234696874995 -3.12549269062500 -4.14153880625000 
 S -3.59156569687500 -2.57113269062500 -1.24347780625000 
 S -1.23334669687500 -3.44165969062500 -6.396180625000025E-002
