16

 C -2.43529564999999 -6.34179460312500 -2.55385240312500 
 C -1.25451764999999 -6.84834660312500 -1.88407940312500 
 C -2.20734764999999 -2.85725160312500 -2.28104140312500 
 C -0.994980649999988 -3.43293160312500 -1.84056940312500 
 N -0.202719649999988 -7.06181860312500 -2.66096840312500 
 N -2.25410564999999 -6.09871360312500 -3.83271840312500 
 N -3.11304764999999 -6.50111260312500 -0.104250403125000 
 N 1.648535000001150E-002 -3.41112060312500 -2.70410340312500 
 N -2.13893764999999 -2.48702560312500 -3.55852740312500 
 N -2.57571864999999 -3.39099460312500 0.171144596875000 
 S -0.692576649999988 -6.52183860312500 -4.17786440312500 
 S -3.74687064999999 -5.89671360312500 -1.51453940312500 
 S -1.53778864999999 -7.03570260312500 -0.181320403125000 
 S -0.623936649999989 -2.88262160312500 -4.15517040312500 
 S -3.53411964999999 -2.96869460312500 -1.07702340312500 
 S -1.01799264999999 -3.95833760312500 -0.154390403125000 
