16

 C -2.67252091562501 -6.30245860937501 -2.44407302812500 
 C -1.41251991562501 -6.66908960937501 -1.82476902812500 
 C -2.51487391562501 -2.95933460937501 -2.29324002812500 
 C -1.24464491562501 -3.30231260937501 -1.64313902812500 
 N -0.373492915625006 -6.75768860937501 -2.66768402812500 
 N -2.59847291562501 -6.21816360937501 -3.77271402812500 
 N -3.23053991562501 -6.59200260937501 5.450797187499945E-002
 N -0.257426915625006 -3.47924960937501 -2.51079802812500 
 N -2.38931791562501 -2.94565460937501 -3.60794002812500 
 N -2.99294991562501 -3.06542960937501 0.243518971874999 
 S -1.07192791562501 -6.54591660937501 -4.16423002812500 
 S -4.01703391562500 -6.16692860937501 -1.34322302812500 
 S -1.62667391562501 -6.88045460937501 -0.103909028125001 
 S -0.805417915625005 -3.10166660937501 -4.01185102812500 
 S -3.83045891562501 -2.68834460937501 -1.19819702812500 
 S -1.39623791562501 -3.48187460937501 4.927097187499929E-002
