16

 C -2.21910145000000 -6.18264195937500 -2.45569207500000 
 C -1.09587245000000 -6.86938595937500 -1.88481607500000 
 C -2.27915545000000 -2.89545095937500 -2.34383707500000 
 C -1.00621245000000 -3.43852995937500 -1.81052407500000 
 N -9.874045000000020E-002 -7.13221295937500 -2.70818407500000 
 N -2.06227045000000 -5.99376395937500 -3.74450807500000 
 N -2.98422845000000 -6.80347695937500 -0.129022075000000 
 N -7.455145000000041E-002 -3.60544995937500 -2.74576607500000 
 N -2.15296545000000 -2.55442695937500 -3.62793007500000 
 N -2.65914345000000 -3.12546095937500 0.202816925000000 
 S -0.623658450000000 -6.58692795937500 -4.18438007500000 
 S -3.60496945000000 -6.11275195937500 -1.47778107500000 
 S -1.37018445000000 -7.15407795937500 -0.184704075000000 
 S -0.681708450000000 -3.04439795937500 -4.17760207500000 
 S -3.56021945000000 -2.68967395937500 -1.16495607500000 
 S -1.08544245000000 -3.69626795937500 -0.115445074999999 
