16

 C -2.43779410312500 -6.81933753437500 -2.40229135625000 
 C -1.20495310312500 -7.17146653437500 -1.72740135625000 
 C -2.79757710312500 -3.27831453437500 -2.13240835625000 
 C -1.54855810312500 -3.52556053437500 -1.43642135625000 
 N -0.183252103125001 -7.17300553437500 -2.54344235625000 
 N -2.39544510312500 -6.53343553437500 -3.73434835625000 
 N -2.83468910312500 -6.89781953437500 0.197336643749997 
 N -0.414583103125000 -3.54301853437500 -2.13490735625000 
 N -2.59680310312500 -2.99484653437500 -3.39731135625000 
 N -3.37349810312500 -3.25671553437500 0.375396643749997 
 S -0.743298103125000 -6.75372253437500 -4.05302335625000 
 S -3.69886210312500 -6.41914553437500 -1.19342435625000 
 S -1.26010710312500 -7.19702053437500 3.071564374999736E-002
 S -0.962335103125000 -3.32815653437500 -3.73199035625000 
 S -4.18365410312500 -3.21780853437500 -1.02802935625000 
 S -1.73588410312500 -3.66572353437500 0.332713643749997 
