16

 C -2.39820429062500 -6.62411057187500 -2.44103134062500 
 C -1.21880729062500 -7.20900657187500 -1.86140034062500 
 C -2.74623129062500 -2.79456157187500 -2.54916434062500 
 C -1.60377029062500 -3.31016457187500 -1.83357034062500 
 N -0.229881290624999 -7.26416157187500 -2.71934734062500 
 N -2.28335329062500 -6.24333557187500 -3.74203934062500 
 N -3.02762429062500 -6.90654757187500 8.803165937500124E-002
 N -0.576631290624998 -3.65702857187500 -2.59379234062500 
 N -2.52985629062500 -2.59355357187500 -3.82500134062500 
 N -3.45647429062500 -3.12280457187500 -0.134559340624999 
 S -0.771178290624998 -6.70254657187500 -4.17356934062500 
 S -3.76688629062500 -6.40439757187500 -1.29536134062500 
 S -1.44731229062500 -7.51563057187500 -0.152904340624999 
 S -0.938200290624998 -3.18664857187500 -4.08669434062500 
 S -4.05324329062500 -2.50327257187500 -1.54150834062500 
 S -1.82507029062500 -3.51514657187500 -0.171804340624998 
