16

 C -2.56300757812500 -6.24396423125000 -2.47083729375000 
 C -1.27359557812500 -6.59982523125000 -1.86578529375000 
 C -2.41076257812500 -2.92628723125000 -2.52732329375000 
 C -1.16053157812500 -3.12620223125000 -1.80209429375000 
 N -0.210143578124997 -6.67131023125000 -2.73154429375000 
 N -2.48738657812500 -6.15653823125000 -3.79136229375000 
 N -3.04414757812500 -6.55113923125000 4.138270625000073E-002
 N -7.796857812499791E-002 -3.37380123125000 -2.56275129375000 
 N -2.29458057812500 -2.94868723125000 -3.88128129375000 
 N -3.03063057812500 -2.74972323125000 -9.510529374999921E-002
 S -0.891734578124997 -6.46151723125000 -4.24800229375000 
 S -3.78101957812500 -6.04138423125000 -1.33829629375000 
 S -1.44910257812500 -6.79103223125000 -0.139589293749999 
 S -0.738919578124998 -3.41810323125000 -4.13050129375000 
 S -3.80608657812500 -2.67241123125000 -1.50161329375000 
 S -1.42473157812500 -3.14898423125000 -0.163544293749999 
