16

 C -2.22939071875000 -6.55396672812500 -2.28605758750000 
 C -0.929139718749997 -6.86136972812500 -1.82641458750000 
 C -2.53186971875000 -2.85333172812500 -2.37204058750000 
 C -1.33293671875000 -3.24807372812500 -1.78871158750000 
 N -3.967471874999617E-002 -6.92944972812500 -2.81000558750000 
 N -2.32506971875000 -6.46456272812500 -3.63180358750000 
 N -2.39780971875000 -6.92000272812500 0.289467412500002 
 N -0.289230718749996 -3.50241472812500 -2.59111258750000 
 N -2.44452171875000 -2.65777272812500 -3.67915758750000 
 N -3.10926371875000 -2.92208772812500 0.150076412500002 
 S -0.816278718749996 -6.72371372812500 -4.22239358750000 
 S -3.41025671875000 -6.70260472812500 -0.952464587499998 
 S -0.833869718749996 -7.25098872812500 -0.181768587499999 
 S -0.924573718749996 -3.08910672812500 -4.08433758750000 
 S -3.83554171875000 -2.46563572812500 -1.25115158750000 
 S -1.53623671875000 -3.50042472812500 -2.214458749999837E-002
