16

 C -2.27588415312500 -6.07619430312501 -2.28360272812500 
 C -1.10782415312501 -6.73022630312500 -1.74358372812500 
 C -2.74137815312500 -2.45775430312500 -2.71173972812500 
 C -1.48762215312501 -2.82362530312500 -2.08525672812500 
 N -0.217251153125004 -7.04546930312500 -2.65841172812500 
 N -2.23674815312500 -5.84829130312500 -3.59350672812500 
 N -2.65856815312500 -6.40497530312500 0.298574271875000 
 N -0.480509153125005 -3.09181530312500 -2.96908572812500 
 N -2.65445515312500 -2.28394230312500 -4.05642572812500 
 N -3.18745315312500 -2.38895830312500 -0.159988728125000 
 S -0.809750153125004 -6.54992130312501 -4.14099472812500 
 S -3.48759315312500 -5.74854930312500 -1.03271072812500 
 S -1.20067515312500 -7.03795330312501 -5.827072812499967E-002
 S -1.11970015312501 -2.75535630312501 -4.39247472812500 
 S -3.98953515312500 -2.17649030312500 -1.63340272812500 
 S -1.61652315312501 -2.83110930312500 -0.359697728125000 
