16

 C -2.31810001562500 -6.42664743750000 -2.36578826875000 
 C -1.20192301562500 -6.94643643750000 -1.61303626875000 
 C -2.51954501562500 -2.60488943750000 -2.60564926875000 
 C -1.24905801562500 -3.02436443750000 -2.02741226875000 
 N -0.115531015624998 -7.20097043750000 -2.34612426875000 
 N -2.02997001562500 -6.06948143750000 -3.65352126875000 
 N -2.92794701562500 -6.36127743750000 0.139570731250001 
 N -0.184460015624998 -3.08402543750000 -2.88194126875000 
 N -2.48343201562500 -2.42669543750000 -3.93428126875000 
 N -2.95790201562500 -2.97897943750000 -4.434268749999193E-003
 S -0.456983015624997 -6.68202243750000 -3.86181826875000 
 S -3.63589101562500 -5.86277443750000 -1.24520126875000 
 S -1.34372001562500 -6.95898743750000 7.210873125000061E-002
 S -0.892860015624998 -2.58404543750000 -4.31100926875000 
 S -3.77521201562500 -2.39300343750000 -1.36294726875000 
 S -1.39031001562500 -3.38819943750000 -0.321575268749999 
