16

 C -2.28144009375000 -6.42633231875000 -2.28857599375000 
 C -0.981481093750005 -6.90955331875000 -1.81335699375000 
 C -2.66775909375000 -2.56596231875000 -2.48108799375000 
 C -1.51849409375000 -3.16995631875000 -1.81478699375000 
 N -9.444093750004434E-003 -6.90742631875000 -2.72019999375000 
 N -2.26189009375000 -6.11356831875000 -3.58477499375000 
 N -2.59532209375000 -6.68621931875000 0.223387006250000 
 N -0.482215093750004 -3.45257331875000 -2.53844299375000 
 N -2.39849809375000 -2.36163631875000 -3.75468499375000 
 N -3.32307209375000 -2.98411031875000 -2.252299375000044E-002
 S -0.759563093750004 -6.41368731875000 -4.14629999375000 
 S -3.50077409375000 -6.29533531875000 -1.08722599375000 
 S -1.01054209375000 -7.19417731875000 -9.439199375000040E-002
 S -0.888890093750004 -2.86357631875000 -4.15001699375000 
 S -4.02517309375000 -2.38946131875000 -1.40275699375000 
 S -1.72767409375000 -3.34979631875000 -8.938499375000042E-002
