16

 C -2.39711183124999 -6.28784477187500 -2.22696793437500 
 C -1.12168583124999 -6.70632977187500 -1.66901193437500 
 C -2.44433683124999 -2.77763077187500 -2.79541493437500 
 C -1.12801983124999 -2.90210577187500 -2.21879793437500 
 N -0.124686831249991 -6.76637077187500 -2.51738893437500 
 N -2.25773583124999 -5.93025777187500 -3.50069793437500 
 N -2.79646883124999 -6.50648377187500 0.241719065625000 
 N -0.122069831249991 -2.90216777187500 -3.07373293437500 
 N -2.41784683124999 -2.65306277187500 -4.09822293437500 
 N -2.92600683124999 -3.08338877187500 -0.330936934375000 
 S -0.738271831249991 -6.26436177187500 -3.97470593437500 
 S -3.71032383124999 -6.19104077187500 -1.17746493437500 
 S -1.34578983124999 -7.21668277187500 -9.359934375000156E-003
 S -0.841735831249991 -2.56119277187500 -4.55122193437500 
 S -3.82481883124999 -2.98738477187500 -1.68361793437500 
 S -1.24697183124999 -3.15453177187500 -0.440596934375000 
