16

 C -2.30473424062500 -6.34439695937500 -2.44587427812500 
 C -1.13305024062500 -6.82739895937500 -1.82718527812500 
 C -2.28740024062500 -2.55230595937500 -2.41458827812500 
 C -1.16049024062500 -3.10737995937500 -1.69064427812500 
 N -0.107659240624996 -7.05700595937500 -2.65081627812500 
 N -2.22660224062500 -6.13024395937500 -3.73320727812500 
 N -2.98359324062500 -6.68784895937500 -4.706278125001351E-003
 N -0.135723240624996 -3.37924395937500 -2.47856527812500 
 N -2.14875124062500 -2.50312795937500 -3.72790127812500 
 N -3.02999824062500 -2.90958295937500 1.237272187499872E-002
 S -0.697088240624996 -6.61928995937500 -4.18022827812500 
 S -3.70612524062500 -6.27885595937500 -1.48478827812500 
 S -1.39382324062500 -7.07731795937500 -0.111345278125001 
 S -0.608391240624996 -3.01243395937500 -4.05506527812500 
 S -3.71053424062500 -2.37887995937500 -1.45125627812500 
 S -1.36025524062500 -3.13738595937500 -2.505278125001231E-003
