16

 C -2.37758815937500 -6.42685769062499 -2.47176208125000 
 C -1.17121315937500 -6.82704969062499 -1.80929108125000 
 C -2.52956215937500 -2.51000269062499 -2.18181608125000 
 C -1.22366315937500 -2.96407569062499 -1.61189808125000 
 N -0.154327159374996 -7.04241669062499 -2.63454908125000 
 N -2.20795615937500 -6.19342169062499 -3.76786708125000 
 N -2.94483815937500 -6.53405869062499 7.298191875000026E-002
 N -0.229108159374997 -3.09215269062499 -2.51004908125000 
 N -2.50252315937500 -2.38581769062499 -3.51458008125000 
 N -2.93819015937500 -2.91436669062499 0.400881918750000 
 S -0.652669159374996 -6.62348669062499 -4.14937108125000 
 S -3.75823515937500 -6.13791769062499 -1.34393208125000 
 S -1.37820715937500 -7.07701269062499 -7.951908124999951E-002
 S -0.968722159374996 -2.82700169062499 -3.96314508125000 
 S -3.78214515937500 -2.39488169062499 -0.982714081250000 
 S -1.34630115937500 -3.38308269062499 0.110392918750000 
