16

 C -2.52010547812500 -6.69395924062500 -2.38750579062500 
 C -1.44452447812500 -7.28177524062500 -1.65696379062500 
 C -2.51036647812500 -2.51236524062500 -2.40064279062500 
 C -1.39158647812500 -3.11497424062500 -1.79943379062500 
 N -0.448194478124997 -7.59255624062500 -2.45647679062500 
 N -2.36496347812500 -6.63320424062500 -3.68016079062500 
 N -3.07211447812500 -6.57970424062500 9.520620937499946E-002
 N -0.360280478124998 -3.35813424062500 -2.60673679062500 
 N -2.33135647812500 -2.25826124062500 -3.70507679062500 
 N -3.19992447812500 -2.97070724062500 4.684209374999471E-003
 S -0.765766478124998 -7.07367724062500 -4.00555879062500 
 S -3.82843847812500 -6.11215824062500 -1.31175479062500 
 S -1.50493247812500 -7.22743324062500 2.308020937499933E-002
 S -0.881950478124998 -2.99552124062500 -4.14422479062500 
 S -3.83972547812500 -2.27399724062500 -1.33088179062500 
 S -1.59494147812500 -3.34606224062500 -7.835579062500053E-002
