16

 C -2.50715307187500 -6.51501327187500 -2.45641268437500 
 C -1.21084507187500 -6.94573327187500 -1.94965768437500 
 C -2.57751107187500 -2.63816827187500 -2.51285068437500 
 C -1.52409007187500 -3.24286927187500 -1.75530668437500 
 N -0.278749071875002 -6.94220727187500 -2.86690368437500 
 N -2.53509207187500 -6.30720427187500 -3.76220968437500 
 N -2.73070007187500 -6.88782727187500 8.335931562499965E-002
 N -0.482033071875002 -3.70356227187500 -2.44520768437500 
 N -2.41686907187500 -2.68268327187500 -3.84700568437500 
 N -3.37363307187500 -2.64442927187500 -2.329568437500029E-002
 S -0.953872071875002 -6.57604427187500 -4.30998868437500 
 S -3.74241107187500 -6.46524727187500 -1.18502568437500 
 S -1.22081807187500 -7.50125027187500 -0.274041684375000 
 S -0.933648071875002 -3.33849427187500 -4.04598068437500 
 S -3.87487807187500 -2.04027127187500 -1.48325568437500 
 S -1.79452007187500 -3.22026627187500 2.930315624999791E-003
