16

 C -2.17321583437501 -6.38324428437500 -2.59085600937500 
 C -1.05955283437501 -6.93518528437500 -1.90403400937500 
 C -2.63683583437501 -2.40922428437500 -2.38080200937500 
 C -1.59948883437501 -3.09995028437500 -1.74885400937500 
 N -6.958783437500937E-002 -7.32776128437500 -2.71483500937500 
 N -1.98412683437501 -6.21625128437500 -3.92213800937500 
 N -2.81819483437501 -6.53736728437500 -7.651800937500108E-002
 N -0.562847834375010 -3.38460428437500 -2.53829200937500 
 N -2.40658783437501 -2.20688228437500 -3.65203900937500 
 N -3.30410083437501 -2.41477528437500 7.250099062499915E-002
 S -0.515370834375009 -6.85492228437500 -4.23278200937500 
 S -3.56474483437501 -6.14615528437500 -1.47937500937500 
 S -1.32100183437501 -7.25018528437500 -0.223722009375001 
 S -0.911262834375010 -2.80028828437500 -4.03275300937500 
 S -4.04425583437501 -2.04007428437500 -1.35397800937500 
 S -1.77533083437501 -3.12631528437500 2.842599062499906E-002
