16

 C -2.37053806562499 -6.40257750000000 -2.49904998125000 
 C -1.13902506562499 -6.70755850000000 -1.79940898125000 
 C -2.27721706562499 -2.89792250000000 -2.44378498125000 
 C -1.03195606562499 -3.24145050000000 -1.86944598125000 
 N -0.138804065624991 -6.95231250000000 -2.62714698125000 
 N -2.26589506562499 -6.28515450000000 -3.80596798125000 
 N -2.85747906562499 -6.41790250000000 2.669901874999958E-002
 N -2.201306562499106E-002 -3.31330550000000 -2.72766098125000 
 N -2.30719806562499 -2.88030150000000 -3.77906698125000 
 N -2.70159706562499 -2.94590150000000 0.136206018750000 
 S -0.707636065624991 -6.71313350000000 -4.11332398125000 
 S -3.68674706562499 -6.19977950000000 -1.40976298125000 
 S -1.27792406562499 -6.83284650000000 -0.122621981250000 
 S -0.743637065624990 -3.16244950000000 -4.21258798125000 
 S -3.58635606562499 -2.72393250000000 -1.30355298125000 
 S -1.12192606562499 -3.45351250000000 -8.531398125000011E-002
