16

 C -2.33719900937500 -6.55181269062500 -2.49753165625000 
 C -1.13836400937500 -6.84548669062499 -1.75161365625000 
 C -2.35952700937500 -3.41483869062500 -2.22378065625000 
 C -1.11582800937500 -3.52791069062499 -1.55499865625000 
 N -9.022100937499822E-002 -7.05702869062499 -2.51859865625000 
 N -2.22211400937500 -6.64535869062500 -3.82370565625000 
 N -2.93648700937500 -6.60848769062499 2.954734374999712E-002
 N -6.100200937499789E-002 -3.60246869062499 -2.38179065625000 
 N -2.28108500937500 -3.46337069062499 -3.55525065625000 
 N -2.92725200937500 -3.40866669062499 0.265617343749997 
 S -0.594791009374998 -6.86924669062499 -4.09628665625000 
 S -3.68729600937500 -6.29462269062499 -1.37103565625000 
 S -1.28710700937500 -6.91924169062499 -5.554765625000302E-002
 S -0.676079009374998 -3.57410969062499 -3.94336265625000 
 S -3.70584400937500 -3.25173369062500 -1.21845765625000 
 S -1.26831700937500 -3.52319569062499 0.190742343749997 
