16

 C -2.62995319687500 -6.30830521875000 -2.25918720937500 
 C -1.44799919687500 -6.92014421875000 -1.74762720937500 
 C -2.41152819687500 -2.95528021875000 -2.39742520937500 
 C -1.27288219687500 -3.52811821875000 -1.69530920937500 
 N -0.511107196874997 -7.02978521875000 -2.70241820937500 
 N -2.66764119687500 -6.09157721875000 -3.57973820937500 
 N -3.08770719687500 -6.76025621875000 0.232989790625000 
 N -0.200936196874997 -3.72838121875000 -2.46797120937500 
 N -2.19536219687500 -2.70915321875000 -3.69038220937500 
 N -3.01190019687500 -2.99296321875000 8.904379062499967E-002
 S -1.20831019687500 -6.60178121875000 -4.11768920937500 
 S -3.88237619687500 -6.18198121875000 -1.11076320937500 
 S -1.52708719687500 -7.29562121875000 -4.937620937500009E-002
 S -0.620392196874997 -3.21926921875000 -3.97187820937500 
 S -3.79117819687500 -2.73991121875000 -1.30698120937500 
 S -1.59002019687500 -3.83355021875000 7.253790624999645E-003
