16

 C -2.49622976250000 -6.41591598125000 -2.51833539375000 
 C -1.25190676250000 -6.78951998125000 -1.87817939375000 
 C -2.70746076250000 -2.91283398125000 -2.53766039375000 
 C -1.58862576250000 -3.56166398125000 -1.89978539375000 
 N -0.172915762499995 -6.98117698125000 -2.62892339375000 
 N -2.32431376250000 -6.28498798125000 -3.82654339375000 
 N -3.17300676250000 -6.66338398125000 -4.666539375000167E-002
 N -0.527040762499996 -3.60974798125000 -2.68732139375000 
 N -2.55467976250000 -2.54924698125000 -3.80752439375000 
 N -3.36106776250000 -3.31148298125000 6.860606249998291E-003
 S -0.759399762499996 -6.68217998125000 -4.14493139375000 
 S -3.82776476250000 -6.18672698125000 -1.48799239375000 
 S -1.55287076250000 -7.00972398125000 -0.162575393750002 
 S -0.998497762499996 -3.11699798125000 -4.21702039375000 
 S -4.01168576250000 -2.79622998125000 -1.38920639375000 
 S -1.76841976250000 -3.77202298125000 -0.167382393750002 
