16

 C -2.26861065000000 -6.08116339999999 -2.28682474062500 
 C -1.10310765000000 -6.73469739999999 -1.76045774062500 
 C -2.73947665000000 -2.46548839999999 -2.72193574062500 
 C -1.47661565000000 -2.81276339999999 -2.09609874062500 
 N -0.178589649999997 -7.04098839999999 -2.64228974062500 
 N -2.23418465000000 -5.84171639999999 -3.59758274062500 
 N -2.66349565000000 -6.40238639999999 0.294148259375000 
 N -0.468906649999997 -3.08825639999999 -2.93863774062500 
 N -2.64619365000000 -2.27211239999999 -4.06136874062500 
 N -3.20058365000000 -2.39662339999999 -0.160953740625000 
 S -0.803952649999997 -6.53901439999999 -4.13203974062500 
 S -3.47931165000000 -5.74663739999999 -1.02618174062500 
 S -1.18899365000000 -7.03231139999999 -2.325774062500008E-002
 S -1.13092865000000 -2.75442439999999 -4.41115774062500 
 S -3.99627865000000 -2.17428039999999 -1.62135974062500 
 S -1.62809465000000 -2.82506339999999 -0.347369740625000 
