16

 C -2.42088705625000 -6.51956291875000 -2.43804180000000 
 C -1.18932705625000 -6.84626991875000 -1.71317180000000 
 C -2.54981605625000 -3.23632991875000 -2.35103280000000 
 C -1.25754505625000 -3.49393191875000 -1.72705180000000 
 N -0.202527056250005 -7.08405291875000 -2.55718380000000 
 N -2.30553405625000 -6.41205791875000 -3.76718880000000 
 N -3.04215005625000 -6.75966291875000 6.575620000000115E-002
 N -0.252973056250005 -3.63887491875000 -2.55482080000000 
 N -2.48561605625000 -2.99044291875000 -3.67213980000000 
 N -2.99313505625000 -3.31335391875000 0.162610200000001 
 S -0.682845056250004 -6.71391391875000 -4.07857380000000 
 S -3.78864405625000 -6.33838191875000 -1.36651180000000 
 S -1.40299105625000 -6.96706891875000 1.219200000000864E-003
 S -0.909800056250004 -3.27597291875000 -4.05787080000000 
 S -3.84220505625000 -3.30129391875000 -1.23392480000000 
 S -1.35653505625000 -3.61491491875000 3.372520000000101E-002
