16

 C -2.13000337187500 -6.22655898750000 -2.20268965937500 
 C -1.05354037187500 -6.84968998750000 -1.53908465937500 
 C -2.48902337187500 -2.67167198750000 -2.62534965937500 
 C -1.24540837187500 -3.07532698750000 -2.02593965937500 
 N -4.915437187499805E-002 -7.15948798750000 -2.37195865937500 
 N -2.05888237187500 -6.06484598750000 -3.54360565937500 
 N -2.96261537187500 -6.50338598750000 0.249633340624999 
 N -0.253171371874998 -3.08358798750000 -2.87647665937500 
 N -2.43250037187500 -2.46154098750000 -3.92649865937500 
 N -2.96203637187500 -3.09233698750000 -0.162259659375001 
 S -0.489755371874999 -6.59883498750000 -3.89195865937500 
 S -3.55002237187500 -5.98828698750000 -1.20490565937500 
 S -1.36978937187500 -7.07740898750000 0.172683340624999 
 S -0.874392371874999 -2.82245798750000 -4.39176865937500 
 S -3.76804437187500 -2.44866998750000 -1.48893265937500 
 S -1.33883037187500 -3.34617898750000 -0.289101659375001 
