16

 C -2.62979569375000 -6.72388502187500 -2.32920368125000 
 C -1.35583369375000 -7.13184302187500 -1.74152768125000 
 C -2.36878269375000 -3.10139502187500 -2.37290468125000 
 C -1.11190369375000 -3.53198602187500 -1.80125468125000 
 N -0.380559693750003 -7.31581202187500 -2.61568268125000 
 N -2.52521869375000 -6.63703902187500 -3.63327968125000 
 N -2.95909469375000 -6.80461902187500 0.214263318749999 
 N -0.179840693750003 -3.67894702187500 -2.75175168125000 
 N -2.36775469375000 -2.85800002187500 -3.65536568125000 
 N -2.72730369375000 -3.31220202187500 0.171902318750000 
 S -0.956825693750003 -7.01942102187500 -4.11608168125000 
 S -3.86328769375000 -6.47526302187500 -1.14547868125000 
 S -1.37694869375000 -7.19524102187500 -3.961568125000037E-002
 S -0.812074693750003 -3.27091002187500 -4.17964968125000 
 S -3.58234169375000 -2.77487802187500 -1.12906268125000 
 S -1.22229369375000 -3.91194302187500 -0.102099681250000 
