16

 C -2.43095023437500 -6.64431187187500 -2.39476931562500 
 C -1.18342223437500 -6.96302387187500 -1.76831231562500 
 C -2.52004123437500 -2.84612387187500 -2.24966931562500 
 C -1.31436423437500 -3.31274887187500 -1.67467731562500 
 N -0.171194234375003 -7.16744887187500 -2.58223431562500 
 N -2.27945723437500 -6.56505887187500 -3.69349531562500 
 N -2.80410223437500 -6.69711987187500 0.153244684375000 
 N -0.375918234375002 -3.56809687187500 -2.60685231562500 
 N -2.57080923437500 -2.75475187187500 -3.60704231562500 
 N -2.90461323437500 -3.12749487187500 0.275281684375000 
 S -0.726420234375002 -7.01607187187500 -4.14182331562500 
 S -3.72489723437500 -6.39735887187500 -1.30530931562500 
 S -1.28629823437500 -7.30854687187500 -7.821131562500017E-002
 S -0.997481234375003 -3.04104187187500 -4.04529731562500 
 S -3.71850223437500 -2.56490187187500 -1.06861331562500 
 S -1.28629223437500 -3.25617587187500 7.540568437499995E-002
