16

 C -2.65840918437500 -6.40029129375000 -2.48641523437500 
 C -1.34463018437500 -6.81164429375000 -2.08891023437500 
 C -2.70397318437500 -3.03972829375000 -2.33887323437500 
 C -1.53301318437500 -3.47721229375000 -1.56679423437500 
 N -0.454593184375000 -6.91389529375000 -3.02639923437500 
 N -2.66931818437500 -6.15087929375000 -3.76227223437500 
 N -2.79970718437500 -6.62317929375000 2.062276562499954E-002
 N -0.520911184375000 -3.77816229375000 -2.38684223437500 
 N -2.50352418437500 -2.89139529375000 -3.64345423437500 
 N -3.36692018437500 -3.17933629375000 0.138063765625000 
 S -1.20680818437500 -6.60061329375000 -4.47124923437500 
 S -3.81491518437500 -6.19356029375000 -1.30838523437500 
 S -1.27649718437500 -7.16147329375000 -0.374381234375000 
 S -0.876897184375000 -3.19416829375000 -3.88435123437500 
 S -4.05488518437500 -2.69802929375000 -1.33179923437500 
 S -1.70806418437500 -3.33622629375000 0.138565765625000 
