16

 C -2.60020501562500 -6.46378923437500 -2.45141465312500 
 C -1.47301201562500 -7.03734223437500 -1.75752565312500 
 C -2.18930401562500 -2.87036523437500 -2.40886965312500 
 C -0.984139015625001 -3.50704923437500 -1.75091865312500 
 N -0.438084015625001 -7.27753923437500 -2.57077365312500 
 N -2.47918601562500 -6.31581423437500 -3.77759965312500 
 N -3.26136301562500 -6.82224523437500 -2.390465312500156E-002
 N 6.259298437499972E-002 -3.60122723437500 -2.56882065312500 
 N -1.95230901562500 -2.48732623437500 -3.66914565312500 
 N -2.88665001562500 -3.35243423437500 6.759734687499841E-002
 S -0.897230015625000 -6.78566123437500 -4.05821465312500 
 S -3.99925301562500 -6.21123923437500 -1.39851665312500 
 S -1.67851401562500 -7.22298423437500 -9.187965312500168E-002
 S -0.437702015625001 -3.03733923437500 -4.03967065312500 
 S -3.58374301562500 -2.78623123437500 -1.40481765312500 
 S -1.28056801562500 -3.70240223437500 -9.544653125001412E-003
