16

 C -2.69516135312500 -6.35286757187500 -2.30027142812500 
 C -1.45578935312500 -6.86793557187500 -1.76683142812500 
 C -2.39267035312500 -2.73714557187500 -2.39837242812500 
 C -1.17863635312500 -3.27112257187500 -1.81311842812500 
 N -0.398785353125002 -6.97996257187500 -2.57706442812500 
 N -2.57482135312500 -6.06030957187500 -3.60731642812500 
 N -3.04798335312500 -6.78290157187500 0.256790571875002 
 N -0.178556353125003 -3.35792157187500 -2.65980242812500 
 N -2.31267635312500 -2.55651057187500 -3.73087342812500 
 N -2.99812735312500 -3.14379857187500 5.003557187500229E-002
 S -1.06298535312500 -6.56316457187500 -4.06818142812500 
 S -3.88501635312500 -6.13991257187500 -1.08033942812500 
 S -1.47709635312500 -7.23803357187500 -5.299842812499778E-002
 S -0.780109353125003 -2.88559857187500 -4.21751042812500 
 S -3.76945035312500 -2.71790257187500 -1.35691742812500 
 S -1.36359735312500 -3.62219357187500 -0.119085428124998 
