16

 C -2.35505360937499 -6.64427767812500 -2.39953738125000 
 C -1.14438060937499 -7.13427767812500 -1.73175638125000 
 C -2.51131560937500 -2.57986867812500 -2.32969838125000 
 C -1.53734260937500 -3.51448967812500 -1.73331938125000 
 N -8.157060937499505E-002 -7.46172467812500 -2.45962738125000 
 N -2.15772760937500 -6.46476967812500 -3.72603338125000 
 N -3.04599460937500 -7.14589167812500 3.304361874999984E-002
 N -0.571997609374995 -3.79688367812500 -2.60996838125000 
 N -2.30657660937500 -2.24483167812500 -3.62709138125000 
 N -2.96660960937499 -2.72788067812500 0.230251618750000 
 S -0.612728609374996 -7.06152767812500 -3.98038438125000 
 S -3.68266960937500 -6.49192767812500 -1.37245238125000 
 S -1.39563660937500 -7.41790567812500 2.884661874999983E-002
 S -0.979295609374995 -3.16200167812500 -4.11516638125000 
 S -3.64316260937500 -1.98504667812500 -1.11588538125000 
 S -1.68556260937499 -3.81458567812500 -4.399838125000022E-002
