16

 C -2.56221742812500 -6.22518416875000 -2.48045941562500 
 C -1.40472242812500 -6.80369316875000 -1.87191941562500 
 C -2.43037542812500 -2.38754716875000 -2.52807241562500 
 C -1.26514942812500 -2.93656416875000 -1.84438441562500 
 N -0.420133428124998 -7.11885316875000 -2.69871041562500 
 N -2.44377142812500 -6.07905816875000 -3.81136541562500 
 N -2.96378542812500 -6.29747116875000 6.961658437500118E-002
 N -0.279369428124999 -3.25471516875000 -2.65380341562500 
 N -2.32654942812500 -2.38099716875000 -3.84794841562500 
 N -3.06753742812500 -2.59982516875000 -4.249941562499870E-002
 S -0.932831428124999 -6.66773216875000 -4.19291341562500 
 S -3.79688442812500 -5.85539516875000 -1.31758841562500 
 S -1.49294842812500 -7.11262916875000 -0.173867415624999 
 S -0.846254428124999 -2.96072116875000 -4.28013641562500 
 S -3.76675942812500 -2.07218916875000 -1.47551941562500 
 S -1.44152942812500 -2.97205416875000 -0.162991415624999 
