16

 C -2.48647926874999 -6.79620003750000 -2.35803801250000 
 C -1.21628726874999 -7.14189603750000 -1.74102901250000 
 C -2.82405026874999 -3.20373803750000 -2.16302001250000 
 C -1.60754026874999 -3.54027503750000 -1.39387201250000 
 N -0.173438268749987 -7.23515403750000 -2.57419201250000 
 N -2.28784626874999 -6.60140903750000 -3.64100101250000 
 N -2.92207026874999 -6.89888203750000 0.170974987499999 
 N -0.557594268749987 -3.59952603750000 -2.18921601250000 
 N -2.65616826874999 -3.04742903750000 -3.49768801250000 
 N -3.40758226874999 -3.25637203750000 0.370229987499999 
 S -0.700450268749987 -6.83736103750000 -4.09495701250000 
 S -3.68893026874999 -6.43705203750000 -1.19713901250000 
 S -1.26041426874999 -7.19772603750000 3.331698749999945E-002
 S -1.02510026874999 -3.32805903750000 -3.77098501250000 
 S -4.26713926874999 -3.20719203750000 -1.09419301250000 
 S -1.77047126874999 -3.71495003750000 0.321274987499999 
