16

 C -2.47370287812500 -6.62153866562500 -2.32899882812500 
 C -1.21105487812500 -6.97650666562500 -1.68527582812500 
 C -2.54634087812500 -2.87142866562499 -2.37079382812500 
 C -1.29116887812500 -3.23607866562500 -1.71650882812500 
 N -0.239112878125004 -7.04707866562500 -2.59229282812500 
 N -2.44300087812500 -6.41595666562499 -3.62968982812500 
 N -3.01580687812500 -6.95241666562500 0.161007171875000 
 N -0.276007878125005 -3.42033366562500 -2.62163582812500 
 N -2.46446387812500 -2.69551166562499 -3.70412082812500 
 N -2.98495187812500 -2.97030466562500 0.142328171875000 
 S -0.861933878125004 -6.68663066562500 -4.08312082812500 
 S -3.81011987812500 -6.49398366562500 -1.24464782812500 
 S -1.40822987812500 -7.21291666562500 2.281617187499974E-002
 S -0.872193878125004 -3.12352666562500 -4.06146682812500 
 S -3.84970287812500 -2.52477566562500 -1.23340882812500 
 S -1.44127187812500 -3.53322066562500 7.941171874999764E-003
