16

 C -2.30407682499999 -6.58995679062500 -2.45335796562500 
 C -1.15119182500000 -7.03576279062500 -1.73416696562500 
 C -2.38566582499999 -2.96246379062500 -2.54412496562500 
 C -1.14875882500000 -3.34360879062500 -1.84109296562500 
 N -8.780082499999509E-002 -7.18807379062500 -2.51792796562500 
 N -2.12375482500000 -6.39648979062500 -3.76644696562500 
 N -3.09614082499999 -6.83885279062500 -1.008196562500085E-002
 N -0.126984824999995 -3.49607479062500 -2.70554796562500 
 N -2.22951882500000 -2.81257679062500 -3.85588296562500 
 N -3.02153282500000 -3.18485579062500 -4.123965625000725E-003
 S -0.494913824999995 -6.74219379062500 -4.08653396562500 
 S -3.75337282500000 -6.39514479062500 -1.48148796562500 
 S -1.51295782499999 -7.36754379062500 -8.181596562500060E-002
 S -0.632554824999995 -3.13968279062500 -4.18717096562500 
 S -3.67365382500000 -2.63844079062500 -1.46536096562500 
 S -1.46387882499999 -3.72064679062500 -0.151665965625001 
