16

 C -2.14692243437500 -6.46057889375000 -2.37774860000000 
 C -0.871655434375000 -6.70280389375000 -1.77479760000000 
 C -2.58676343437500 -2.67950389375000 -2.42208160000000 
 C -1.32114643437500 -3.09440089375000 -1.74166660000000 
 N 0.119621565624999 -6.75749489375000 -2.66323760000000 
 N -2.14591043437500 -6.27404189375000 -3.71401060000000 
 N -2.64643543437500 -6.75740089375000 0.173835400000003 
 N -0.227937434375001 -3.21891589375000 -2.51577360000000 
 N -2.42977843437500 -2.65865589375000 -3.73808660000000 
 N -3.17759643437500 -2.90773289375000 5.267640000000262E-002
 S -0.535531434375001 -6.48680489375000 -4.17279060000000 
 S -3.51911143437500 -6.36290589375000 -1.22059860000000 
 S -1.03625243437500 -7.10121289375000 -8.946159999999725E-002
 S -0.820649434375000 -3.05202789375000 -4.07301360000000 
 S -3.92353743437500 -2.51152789375000 -1.36293760000000 
 S -1.60677443437500 -3.39888289375000 -3.439359999999736E-002
