16

 C -2.68433410625000 -6.45169933750000 -2.32339078437500 
 C -1.48243210624999 -6.89331433750000 -1.65877478437500 
 C -2.50158110625000 -2.65248433750000 -2.45906078437500 
 C -1.24857110624999 -3.08026833750000 -1.86668678437500 
 N -0.489972106249995 -7.22051233750000 -2.45724978437500 
 N -2.50624510625000 -6.31772333750000 -3.64081078437500 
 N -3.19015310625000 -6.47120333750000 0.182314215625000 
 N -0.303160106249995 -3.47564533750000 -2.73095478437500 
 N -2.52834010624999 -2.63230533750000 -3.80678678437500 
 N -2.92338510625000 -2.91521233750000 0.131690215625000 
 S -0.984231106249995 -6.91501833750000 -3.99824378437500 
 S -4.01712910624999 -6.17863533750000 -1.25570478437500 
 S -1.56659310624999 -6.93865133750000 7.176921562500027E-002
 S -0.983490106249995 -3.14350733750000 -4.24702878437500 
 S -3.76694410625000 -2.63516733750000 -1.27647278437500 
 S -1.32914510625000 -3.35408533750000 -0.100784784375000 
