16

 C -2.49013299375000 -6.67646021250000 -2.10335570000000 
 C -1.22294599375000 -7.24228921250000 -1.62935570000000 
 C -2.43662199375000 -2.70009421250000 -2.46595170000000 
 C -1.24985699375000 -3.26563021250000 -1.80005170000000 
 N -0.319643993750004 -7.24985221250000 -2.61654070000000 
 N -2.55727299375000 -6.27468421250000 -3.37794370000000 
 N -2.82041699375000 -6.96300321250000 0.414159300000000 
 N -0.256980993750004 -3.57258921250000 -2.61341470000000 
 N -2.36930399375000 -2.69864121250000 -3.80388370000000 
 N -3.06648099375000 -2.99941721250000 1.514030000000033E-002
 S -1.08124499375000 -6.67319421250000 -3.98087970000000 
 S -3.73774099375000 -6.36786421250000 -0.918864700000000 
 S -1.26181699375000 -7.55783721250000 4.660030000000037E-002
 S -0.786723993750004 -3.15900321250000 -4.11277770000000 
 S -3.70761799375000 -2.35771921250000 -1.36047570000000 
 S -1.51836399375000 -3.59498921250000 -0.118466699999999 
