16

 C -2.41484367187500 -6.48386036250000 -2.60782618437500 
 C -1.18034767187500 -6.93680136250000 -1.94776918437500 
 C -2.62887167187500 -2.54542336250000 -2.35282318437500 
 C -1.48152567187500 -3.07325836250000 -1.65786018437500 
 N -0.129761671875000 -7.03387636250000 -2.75028718437500 
 N -2.21329267187500 -6.18352236250000 -3.90180018437500 
 N -2.93869467187500 -6.86871036250000 -8.768718437500200E-002
 N -0.479883671875000 -3.47367036250000 -2.44928318437500 
 N -2.40907467187500 -2.34397836250000 -3.66120818437500 
 N -3.36332367187500 -2.91909836250000 0.160671815624998 
 S -0.650063671875000 -6.58016836250000 -4.27544518437500 
 S -3.77848767187500 -6.48460136250000 -1.45351318437500 
 S -1.36545467187500 -7.16418836250000 -0.271349184375002 
 S -0.847622671875000 -3.03626136250000 -3.98165418437500 
 S -3.95250367187500 -2.21933936250000 -1.26822918437500 
 S -1.72493467187500 -3.24716536250000 6.711081562499799E-002
