16

 C -2.31391039375000 -6.43902675937500 -2.46664755625000 
 C -1.12494439375000 -6.97964475937500 -1.87842455625000 
 C -2.34125739375000 -3.07495975937500 -2.35374855625000 
 C -1.12868539375000 -3.44023475937500 -1.68731955625000 
 N -6.749939374999592E-002 -7.26121575937499 -2.65372455625000 
 N -2.13817239375000 -6.26996875937500 -3.77952255625000 
 N -2.78637439375000 -6.72177075937500 5.087044374999583E-002
 N -0.141060393749997 -3.59441975937500 -2.56193155625000 
 N -2.26390939375000 -2.83872175937500 -3.63750855625000 
 N -2.96131039375000 -3.14716775937500 0.200416443749996 
 S -0.552982393749996 -6.66103075937500 -4.12495355625000 
 S -3.59424339375000 -6.22241575937499 -1.29366555625000 
 S -1.25967739375000 -7.44140475937500 -0.208546556250004 
 S -0.692338393749997 -3.18510675937500 -4.03799255625000 
 S -3.70849939375000 -2.79208375937500 -1.26662555625000 
 S -1.39498139375000 -3.59022275937500 5.167144374999566E-002
