16

 C -2.37476356874999 -6.34962260625000 -2.48658238750000 
 C -1.21422656874999 -6.76644060625000 -1.77691438750000 
 C -2.61708256874999 -2.74050260625000 -2.57459838750000 
 C -1.38679656874999 -3.04723560625000 -1.87310638750000 
 N -0.151969568749991 -7.18368360625000 -2.45361938750000 
 N -2.11957856874999 -6.43885360625000 -3.80046638750000 
 N -2.97476256874999 -6.40295860625000 4.777461250000203E-002
 N -0.323695568749991 -3.07469060625000 -2.67967338750000 
 N -2.45410756874999 -2.45726160625000 -3.85781238750000 
 N -3.14589656874999 -2.86598160625000 -4.962238749999792E-002
 S -0.545761568749991 -6.93583160625000 -4.05498938750000 
 S -3.71327256874999 -6.04956360625000 -1.41676538750000 
 S -1.33925756874999 -6.80808260625000 -2.160338749999791E-002
 S -0.848912568749991 -2.77500660625000 -4.23856538750000 
 S -3.90805756874999 -2.71033360625000 -1.47010438750000 
 S -1.50356356874999 -3.07293960625000 -0.142014387499998 
