16

 C -2.39445402812500 -6.59479256874999 -2.47731482812500 
 C -1.19885102812500 -6.79213256874999 -1.72605782812500 
 C -2.19205902812500 -2.97342256874999 -2.21615482812500 
 C -0.922958028124999 -3.33788456874999 -1.70373982812500 
 N -0.108056028124999 -6.77954756874999 -2.48658682812500 
 N -2.30381702812500 -6.33329356874999 -3.79677882812500 
 N -3.08766402812500 -6.56194556874999 7.229417187500120E-002
 N 8.902397187500100E-002 -3.31564356874999 -2.59246482812500 
 N -2.18437202812500 -2.66052956874999 -3.50864782812500 
 N -2.60138002812500 -3.23645156874999 0.302016171875001 
 S -0.621095028124999 -6.50072556874999 -4.04657682812500 
 S -3.77757102812500 -6.37650656874999 -1.36945482812500 
 S -1.42439002812500 -6.86484556874999 4.279217187500128E-002
 S -0.688094028124999 -3.01235556874999 -4.04891182812500 
 S -3.46003402812500 -2.86259256874999 -1.07212682812500 
 S -1.03926302812500 -3.53961456874999 4.266317187500124E-002
