16

 C -2.72835217500000 -6.74948824687500 -2.33652028125000 
 C -1.44238417500000 -6.99014124687500 -1.65022228125000 
 C -2.46986817500000 -3.11222224687500 -2.45127928125000 
 C -1.11071717500000 -3.11397624687500 -1.92872728125000 
 N -0.445327174999997 -7.00807324687500 -2.50562128125000 
 N -2.74220717500000 -6.64157424687500 -3.64126928125000 
 N -3.16330817500000 -6.70395724687500 0.153893718749999 
 N -0.152364174999997 -3.23763524687500 -2.84892028125000 
 N -2.52863617500000 -3.24853524687500 -3.76368728125000 
 N -2.73905317500000 -3.10961824687500 0.131076718749999 
 S -1.07244617500000 -6.67605224687500 -4.00778928125000 
 S -4.02001917500000 -6.40960324687500 -1.19463828125000 
 S -1.49758817500000 -7.06495824687500 1.384718749999347E-003
 S -0.921217174999997 -3.24083424687500 -4.28314128125000 
 S -3.62767217500000 -2.97532224687500 -1.24462728125000 
 S -1.11252417500000 -3.33951824687500 -0.161766281250000 
