16

 C -2.31963043125000 -6.78453035937500 -2.36994846562500 
 C -1.14811043125000 -7.41069235937500 -1.85937346562500 
 C -2.67010643125000 -2.84971335937500 -2.63169646562500 
 C -1.50655643125000 -3.24716635937500 -1.82447646562500 
 N -0.140003431249998 -7.60528735937500 -2.75332946562500 
 N -2.20673643125000 -6.46185435937501 -3.62630746562500 
 N -2.89375943125000 -7.09249935937500 0.163168534375000 
 N -0.402395431249997 -3.30541435937500 -2.53334446562500 
 N -2.46617843125000 -2.77841135937500 -3.94725646562500 
 N -3.35461843125000 -2.68480035937500 -0.149855465625000 
 S -0.753764431249997 -7.02556535937500 -4.18670746562500 
 S -3.49308543125000 -6.39396535937500 -1.16184146562500 
 S -1.32699743125000 -7.62928735937500 -9.061646562500014E-002
 S -0.843789431249998 -3.12626435937500 -4.11260846562500 
 S -4.03021143125000 -2.44738935937500 -1.64111546562500 
 S -1.73630143125000 -3.23562835937500 -0.132479465625000 
