16

 C -2.39558049687500 -6.44224340000000 -2.62198611562500 
 C -1.17953349687500 -6.87716740000000 -1.95484511562500 
 C -2.27629849687500 -2.52715040000000 -2.54714511562500 
 C -1.05551549687500 -3.06065540000000 -2.07673711562500 
 N -0.166456496875003 -7.16187540000000 -2.77473111562500 
 N -2.26786649687500 -6.36459240000000 -3.95816211562500 
 N -2.96342949687500 -6.63174040000000 -6.444611562500024E-002
 N -4.919249687500216E-002 -3.05172940000000 -2.96479211562500 
 N -2.29563349687500 -2.21308440000000 -3.85966311562500 
 N -2.74635549687500 -3.28048540000000 -8.174411562500028E-002
 S -0.689834496875003 -6.81305040000000 -4.34322611562500 
 S -3.64828449687500 -6.11885140000000 -1.54624711562500 
 S -1.36586349687500 -6.97100440000000 -0.218251115625000 
 S -0.743008496875002 -2.38865040000000 -4.38787011562500 
 S -3.51467949687500 -2.62524140000000 -1.39407611562500 
 S -1.16610249687500 -3.60876940000000 -0.411010115625000 
