16

 C -2.11626507812500 -6.78037427812500 -2.48784311875000 
 C -1.00827707812500 -7.35766827812500 -1.79652511875000 
 C -2.57529907812500 -2.60599627812500 -2.59081711875000 
 C -1.35230407812500 -3.06980127812500 -1.88071111875000 
 N -8.951007812499956E-002 -7.73669227812500 -2.64765511875000 
 N -2.06667207812500 -6.76733927812500 -3.85378111875000 
 N -2.74604907812500 -6.64095827812500 3.656788124999877E-002
 N -0.308980078124999 -3.37449927812500 -2.67226411875000 
 N -2.38536707812500 -2.52483727812500 -3.89501611875000 
 N -3.20090307812500 -2.81023127812500 -0.114596118750001 
 S -0.568725078125000 -7.45325927812500 -4.24949711875000 
 S -3.48120107812500 -6.40672827812500 -1.37140511875000 
 S -1.28894807812500 -7.44064427812500 -3.468111875000113E-002
 S -0.929586078124999 -3.18097627812500 -4.23152511875000 
 S -3.93490807812500 -2.41565827812500 -1.54334111875000 
 S -1.49067007812500 -3.09730127812500 -0.108065118750001 
