16

 C -2.11027295000000 -6.23561378437500 -2.20663816250000 
 C -0.998907950000001 -6.82077278437501 -1.51598616250000 
 C -2.47784695000000 -2.66514578437501 -2.62814416250000 
 C -1.22241295000000 -3.07900178437501 -2.05346216250000 
 N -3.416095000000219E-002 -7.13870278437501 -2.37221116250000 
 N -2.06929595000000 -6.02689678437500 -3.52303416250000 
 N -2.96740095000000 -6.50545578437501 0.252148837499999 
 N -0.204328950000002 -3.12051778437501 -2.88275216250000 
 N -2.42351595000000 -2.47125478437501 -3.95010716250000 
 N -2.96686895000000 -3.09948878437501 -0.160434162500002 
 S -0.507708950000001 -6.59516878437501 -3.88244016250000 
 S -3.55163795000000 -6.01534578437501 -1.19937116250000 
 S -1.37138295000000 -7.10909878437501 0.176589837499998 
 S -0.878820950000001 -2.84910778437501 -4.37999816250000 
 S -3.77875495000000 -2.45585478437501 -1.49605316250000 
 S -1.34030995000000 -3.33218478437501 -0.290518162500002 
