16

 C -2.60317187812500 -6.45627877187500 -2.30470189375000 
 C -1.40713187812500 -6.88003177187500 -1.65033089375000 
 C -2.46946087812500 -2.90394777187500 -2.44393589375000 
 C -1.17329587812500 -3.37322577187500 -1.83013089375000 
 N -0.448775878125000 -7.14032877187500 -2.54131489375000 
 N -2.54749687812500 -6.28671677187500 -3.63749889375000 
 N -3.16052887812500 -6.45727077187500 0.211459106249999 
 N -0.155861878125000 -3.51026877187500 -2.66375289375000 
 N -2.38096387812500 -2.72088177187500 -3.74789689375000 
 N -2.82913087812500 -2.95152677187500 0.106823106249999 
 S -1.00677987812500 -6.75639277187500 -4.06868489375000 
 S -3.91242587812500 -6.12406377187500 -1.23787289375000 
 S -1.62833087812500 -7.10383977187500 6.897210624999861E-002
 S -0.810050878125000 -3.12165477187500 -4.18882889375000 
 S -3.71952387812500 -2.55751277187500 -1.27304589375000 
 S -1.21718087812500 -3.33315577187500 -6.044589375000142E-002
