16

 C -2.26094621875000 -6.45383850937499 -2.31659339375000 
 C -1.06320821875000 -7.11084050937499 -1.77287839375000 
 C -2.24336421875000 -2.69715450937499 -2.44340539375000 
 C -1.07034621875000 -3.15968850937499 -1.71762739375000 
 N -0.106769218750000 -7.36903450937499 -2.68883739375000 
 N -2.14953321875000 -6.23591850937499 -3.61553539375000 
 N -2.59898321875000 -6.58913650937499 0.193468606250001 
 N -4.148221875000058E-002 -3.37982050937499 -2.53422739375000 
 N -2.07418121875000 -2.44717950937499 -3.73014239375000 
 N -2.95093421875000 -2.91467050937499 8.104606250001201E-003
 S -0.686801218750000 -6.75197350937499 -4.11524439375000 
 S -3.47217121875000 -6.08952050937499 -1.12693539375000 
 S -1.16619321875000 -7.32944850937499 -4.606439374999871E-002
 S -0.476008218750001 -2.85244650937499 -4.03070139375000 
 S -3.66110921875000 -2.38039550937499 -1.45608839375000 
 S -1.38087921875000 -3.44202350937499 -3.067139374999872E-002
