16

 C -2.53610595000000 -6.35652552500001 -2.53714377187500 
 C -1.29368295000000 -6.64724952500001 -1.87601677187500 
 C -2.41942095000000 -2.83859952500001 -2.59422577187500 
 C -1.20883895000000 -3.05746952500001 -1.85538277187500 
 N -0.240292950000002 -6.78093252500001 -2.62556777187500 
 N -2.36322695000000 -6.22281252500001 -3.84288377187500 
 N -3.07246295000000 -6.54203652500001 -6.546977187499881E-002
 N -0.165237950000003 -3.30036652500001 -2.60368677187500 
 N -2.36400695000000 -2.96168452500001 -3.89906877187500 
 N -2.98502195000000 -2.70024352500001 -2.050877187499878E-002
 S -0.741144950000002 -6.46054552500001 -4.16813177187500 
 S -3.85101295000000 -6.15221652500001 -1.48372777187500 
 S -1.40637695000000 -6.76506352500001 -0.135299771874999 
 S -0.696709950000002 -3.21104052500001 -4.22048777187500 
 S -3.73923095000000 -2.57504452500001 -1.46901977187500 
 S -1.36835095000000 -3.15278452500001 -0.104196771874999 
