16

 C -2.41798866250001 -6.42125158750000 -2.34482920000000 
 C -1.18195666250001 -6.82903258750000 -1.72920520000000 
 C -2.47189166250001 -3.17412458750000 -2.05223620000000 
 C -1.21366166250001 -3.43831958750000 -1.37994820000000 
 N -0.157056662500007 -6.90846458750000 -2.57032520000000 
 N -2.35739966250001 -6.26001258750000 -3.65756820000000 
 N -2.98547666250001 -6.93888558750000 0.171370800000000 
 N -0.196491662500007 -3.49977758750000 -2.24129820000000 
 N -2.31437966250001 -2.96299258750000 -3.36142020000000 
 N -2.99050266250001 -3.37334858750000 0.447504800000000 
 S -0.787252662500006 -6.66285558750000 -4.09474220000000 
 S -3.76044666250001 -6.52827758750000 -1.19535020000000 
 S -1.27714066250001 -7.11627058750000 7.288480000000019E-002
 S -0.739028662500007 -3.24792358750000 -3.75188020000000 
 S -3.83732766250001 -3.06568758750000 -0.998882200000000 
 S -1.34765766250001 -3.55487158750000 0.374044800000000 
