16

 C -2.37847953437500 -6.55312621874999 -2.26972259687500 
 C -1.12076353437500 -7.01662521874999 -1.82244159687500 
 C -2.44755553437500 -2.70535621874999 -2.49793859687500 
 C -1.28882053437500 -3.27811221874999 -1.87784459687500 
 N -0.126159534375000 -7.06852521874999 -2.69851059687500 
 N -2.33568653437500 -6.32163021874999 -3.59107559687500 
 N -2.55251453437500 -6.57659321874999 0.239865403125002 
 N -0.339141534375000 -3.62087821874999 -2.74427859687500 
 N -2.32503953437500 -2.40789521874999 -3.80494159687500 
 N -3.02532253437500 -2.90347321874999 2.425640312500166E-002
 S -0.853893534375000 -6.66800221874999 -4.10557159687500 
 S -3.49453953437500 -6.09002521874999 -1.09050659687500 
 S -0.985293534375000 -6.97223721874999 -8.105959687499831E-002
 S -0.797141534375000 -3.00574021874999 -4.24752459687500 
 S -3.77384153437500 -2.37398721874999 -1.37973459687500 
 S -1.45673053437500 -3.37327921874999 -6.218059687499822E-002
