16

 C -2.42153658750000 -6.54323909375000 -2.28757896875000 
 C -1.27065858750000 -7.09922709375000 -1.61487196875000 
 C -2.45712158750000 -2.56322109375000 -2.43766296875000 
 C -1.24447858750000 -3.05355309375000 -1.81219496875000 
 N -0.290367587500000 -7.45070209375000 -2.45408196875000 
 N -2.31805458750000 -6.62011609375000 -3.58236996875000 
 N -3.05523558750000 -6.46416809375000 0.154847031250000 
 N -0.170008587500000 -3.12135309375000 -2.60365496875000 
 N -2.31803458750000 -2.35258709375000 -3.75759496875000 
 N -3.09377858750000 -2.94345109375000 -2.510096874999990E-002
 S -0.858557587500000 -7.25238309375000 -4.02299196875000 
 S -3.74692658750000 -6.25515109375000 -1.28136496875000 
 S -1.56700758750000 -7.28499209375000 9.622603125000029E-002
 S -0.740006587500000 -2.67215709375000 -4.10583196875000 
 S -3.76202958750000 -2.20766009375000 -1.37497596875000 
 S -1.53444258750000 -3.35171509375000 -0.185871968750000 
