16

 C -2.58392877500001 -6.18092731562500 -2.45413690000000 
 C -1.28167077500001 -6.56624931562500 -1.86165990000000 
 C -2.38214277500001 -2.95537331562500 -2.56700890000000 
 C -1.18268777500001 -3.25350731562500 -1.78611790000000 
 N -0.272614775000006 -6.74417431562500 -2.73583490000000 
 N -2.51855277500001 -6.10916231562500 -3.79712090000000 
 N -2.92911777500001 -6.43032931562500 6.533809999999884E-002
 N -0.179576775000006 -3.55976531562500 -2.62965890000000 
 N -2.27067777500001 -3.06151831562500 -3.91825790000000 
 N -3.09703677500001 -2.82736531562500 -4.634490000000113E-002
 S -0.981151775000006 -6.47317631562500 -4.20143990000000 
 S -3.80452477500001 -5.92887631562500 -1.34655390000000 
 S -1.33489477500001 -6.82888931562500 -0.130968900000001 
 S -0.681420775000006 -3.34414631562500 -4.18448690000000 
 S -3.77216977500001 -2.77796131562500 -1.55689790000000 
 S -1.40833177500001 -3.17824731562500 -4.815990000000103E-002
