16

 C -2.54879215937499 -6.53283073750000 -2.41717522500000 
 C -1.45461615937499 -7.08377173750000 -1.68335722500000 
 C -2.32379915937499 -2.79099773750000 -2.50814922500000 
 C -1.13136415937499 -3.23511873750000 -1.82636522500000 
 N -0.410850159374993 -7.36728373750000 -2.43955022500000 
 N -2.33225315937499 -6.37098573750000 -3.70491122500000 
 N -3.32796415937499 -6.50243373750000 2.154877499999919E-002
 N -0.104123159374994 -3.45655873750000 -2.69521822500000 
 N -2.13854515937499 -2.50045173750000 -3.78488922500000 
 N -3.02094715937499 -2.95824073750000 -4.540022500000074E-002
 S -0.774021159374993 -6.96082773750000 -3.99870922500000 
 S -3.86336715937499 -6.03255173750000 -1.44843622500000 
 S -1.73299915937499 -7.03719973750000 3.113177499999931E-002
 S -0.615007159374994 -3.00418873750000 -4.15321422500000 
 S -3.70055815937499 -2.64171473750000 -1.52444022500000 
 S -1.36038415937499 -3.36243173750000 -0.126039225000001 
