16

 C -2.61159992812499 -6.43880679375000 -2.52561259375000 
 C -1.46718092812499 -7.00835879375000 -1.84301959375000 
 C -2.25667392812499 -2.84111979375000 -2.40593059375000 
 C -0.998539928124994 -3.29080379375000 -1.76513059375000 
 N -0.398525928124994 -7.09973479375000 -2.62191259375000 
 N -2.45930292812499 -6.14309579375000 -3.83375759375000 
 N -3.34569892812499 -6.75885679375000 -5.346759374999932E-002
 N 3.433107187500539E-002 -3.53597079375000 -2.60665159375000 
 N -2.15336292812499 -2.64919379375000 -3.73274059375000 
 N -2.77752592812499 -3.21829379375000 8.960540625000091E-002
 S -0.907597928124994 -6.65043579375000 -4.19463759375000 
 S -4.04098992812499 -6.30241979375000 -1.51232459375000 
 S -1.79342392812499 -7.29576179375000 -0.144163593749999 
 S -0.575689928124994 -3.01928179375000 -4.08332659375000 
 S -3.59232392812499 -2.73984179375000 -1.27011759375000 
 S -1.19353192812499 -3.61284679375000 -6.246059374999913E-002
