16

 C -2.26595585000000 -6.46399642187499 -2.49791535625000 
 C -1.17769685000000 -7.13431742187499 -1.82108535625000 
 C -2.44866485000000 -2.81876542187499 -2.35572835625000 
 C -1.24366285000000 -3.29833942187499 -1.77240835625000 
 N -0.176517850000003 -7.46704942187499 -2.63487435625000 
 N -2.09737885000000 -6.36226342187499 -3.80772335625000 
 N -3.02081985000000 -6.87437542187499 -0.125975356249999 
 N -0.219831850000003 -3.52845642187499 -2.53652835625000 
 N -2.32236785000000 -2.75199142187499 -3.68107935625000 
 N -2.97321385000000 -2.99176442187499 0.204813643750001 
 S -0.553871850000003 -6.96111242187499 -4.16091735625000 
 S -3.63675885000000 -6.16077942187499 -1.49233235625000 
 S -1.40154585000000 -7.27884342187499 -0.148939356249999 
 S -0.751474850000004 -3.20012142187499 -4.05668035625000 
 S -3.78230285000000 -2.63290342187499 -1.23202535625000 
 S -1.41609585000000 -3.37371342187499 1.969664375000124E-002
