16

 C -2.48635232812500 -6.66844706875000 -2.30377945000000 
 C -1.29688632812500 -7.21967606875000 -1.62544245000000 
 C -2.32729732812500 -2.43205306875000 -2.53070345000000 
 C -1.11479132812500 -2.96080806875000 -1.84476245000000 
 N -0.268492328125001 -7.31591606875000 -2.44975645000000 
 N -2.34813832812500 -6.51180306875000 -3.61318945000000 
 N -2.97240732812500 -6.78696806875000 0.276449550000000 
 N -4.471232812500148E-002 -3.17907806875000 -2.63024445000000 
 N -2.12044832812500 -2.21150106875000 -3.85233745000000 
 N -2.97714132812500 -2.69206906875000 -6.365044999999969E-002
 S -0.823620328125001 -7.01075006875000 -3.99231845000000 
 S -3.70684332812500 -6.22799106875000 -1.10420245000000 
 S -1.41491632812500 -7.21632106875000 6.955055000000043E-002
 S -0.527577328125001 -2.60039106875000 -4.10253145000000 
 S -3.74264132812500 -2.41248706875000 -1.51968445000000 
 S -1.42090332812500 -3.27123806875000 -0.135958450000000 
