16

 C -2.39297345312499 -6.39486289062500 -2.25411112187500 
 C -1.13795145312499 -6.80488889062500 -1.74983412187500 
 C -2.54806945312500 -2.71363989062500 -2.40851012187500 
 C -1.44894345312500 -3.35972189062500 -1.72890912187500 
 N -0.157795453124995 -6.92558189062500 -2.62851912187500 
 N -2.35535345312499 -6.09101489062500 -3.55153912187500 
 N -2.81685145312500 -6.83716089062500 0.170709878124997 
 N -0.454415453124994 -3.71909289062500 -2.50599112187500 
 N -2.27176745312499 -2.52959089062500 -3.66783212187500 
 N -3.28415845312499 -2.95688089062500 -5.549121875002783E-003
 S -0.865145453124994 -6.53138289062500 -4.07022112187500 
 S -3.71072445312500 -6.44122489062500 -1.18079212187500 
 S -1.25043045312500 -7.26299889062500 -4.571412187500279E-002
 S -0.756120453124995 -3.12575289062500 -4.02325412187500 
 S -3.96452245312499 -2.53748289062500 -1.47694112187500 
 S -1.73184845312499 -3.59438689062500 -9.767912187500283E-002
