16

 C -2.30074506250000 -6.45450783750000 -2.46141495312500 
 C -1.07058206250000 -6.79841383750000 -1.83130095312500 
 C -2.48421206250000 -3.27730983750000 -2.09431595312500 
 C -1.15238506250000 -3.34426183750000 -1.56910795312500 
 N -1.291806249999894E-002 -6.86901383750000 -2.65485495312500 
 N -2.20562906250000 -6.36413083750000 -3.78390995312500 
 N -2.94136006250000 -6.55335783750000 3.253404687499795E-002
 N -0.213305062499999 -3.36153983750000 -2.49093695312500 
 N -2.52772406250000 -3.37768983750000 -3.43790395312500 
 N -2.69324206250000 -3.57309383750000 0.453614046874998 
 S -0.664231062499999 -6.67501983750000 -4.22144095312500 
 S -3.67140806250000 -6.22451383750001 -1.42447095312500 
 S -1.33554406250000 -6.87628583750000 -7.867895312500184E-002
 S -0.964527062499999 -3.32945783750001 -3.99143695312500 
 S -3.66988106250000 -3.33024383750000 -0.881561953125002 
 S -1.02826806250000 -3.61651683750000 0.151056046874998 
