16

 C -2.39148766562501 -6.43156186562500 -2.47560964062500 
 C -1.18311566562501 -6.82631786562500 -1.82028364062500 
 C -2.52336166562501 -2.49847286562500 -2.18654964062500 
 C -1.21979866562501 -2.97065586562500 -1.60130564062500 
 N -0.159012665625005 -7.03624786562500 -2.63471964062500 
 N -2.20682866562501 -6.19731186562500 -3.76824964062500 
 N -2.96194266562501 -6.54396386562500 7.267935937500036E-002
 N -0.230298665625005 -3.09398786562500 -2.50916064062500 
 N -2.50276766562501 -2.39369286562500 -3.52886964062500 
 N -2.94088966562501 -2.91693686562500 0.393225359375000 
 S -0.657380665625006 -6.62744686562500 -4.15639864062500 
 S -3.75186166562501 -6.12698686562500 -1.34468764062500 
 S -1.38693866562501 -7.08004986562500 -7.589464062499962E-002
 S -0.970903665625006 -2.82896686562500 -3.95853964062500 
 S -3.77691166562501 -2.38667086562500 -0.974828640625000 
 S -1.34730466562501 -3.38563386562500 0.113242359375000 
