16

 C -2.39904843437500 -6.59248102812500 -2.29690660000000 
 C -1.14614443437500 -6.88979202812500 -1.70348260000000 
 C -2.52891943437500 -2.59614902812500 -2.40550660000000 
 C -1.41995043437500 -3.23896402812500 -1.81110860000000 
 N -0.140096434375000 -7.03578902812500 -2.54728660000000 
 N -2.38167443437500 -6.53663002812500 -3.62360260000000 
 N -2.86233043437500 -6.66118602812500 0.204921400000001 
 N -0.413605434375000 -3.41100502812500 -2.64541460000000 
 N -2.42084743437500 -2.44431902812500 -3.71168960000000 
 N -3.07070443437500 -2.86646502812500 1.470540000000153E-002
 S -0.792968434374999 -6.82051502812500 -4.09530360000000 
 S -3.74205343437500 -6.39858202812500 -1.25456860000000 
 S -1.21758843437500 -7.01235302812500 8.926400000001555E-003
 S -0.923075434374999 -3.04080202812500 -4.16254060000000 
 S -3.87229843437500 -2.32715502812500 -1.37075260000000 
 S -1.53465643437500 -3.49796502812500 -0.109982599999999 
