16

 C -2.68877056250000 -6.53655818437500 -2.38333828437500 
 C -1.47120056250000 -6.89827618437500 -1.68609528437500 
 C -2.65749156250000 -2.36349418437500 -2.39296728437500 
 C -1.51955456250000 -2.98532118437500 -1.74249828437500 
 N -0.368969562500003 -6.99615718437500 -2.42667728437500 
 N -2.47789856250000 -6.35701618437500 -3.70710528437500 
 N -3.23565856250000 -6.69919018437500 0.158015715625001 
 N -0.506624562500003 -3.20158118437500 -2.55805728437500 
 N -2.53302356250000 -2.13129818437500 -3.70625128437500 
 N -3.32874356250000 -2.89934418437500 3.367271562500163E-002
 S -0.853488562500003 -6.59587918437500 -3.94728528437500 
 S -4.05222556250000 -6.59053818437500 -1.31089228437500 
 S -1.57870256250000 -7.06771118437500 5.310271562500146E-002
 S -1.02032756250000 -2.75069118437500 -4.03976128437500 
 S -3.98817556250000 -2.13543718437500 -1.29529628437500 
 S -1.71772256250000 -3.22963418437500 -5.614628437499847E-002
