16

 C -2.50449016250001 -6.48234384687500 -2.57777752187500 
 C -1.25080916250001 -6.77787484687500 -1.83725152187500 
 C -2.41291816250001 -2.57830484687500 -2.43584652187500 
 C -1.21412416250001 -3.03751284687500 -1.79714352187500 
 N -0.165589162500010 -6.80443484687500 -2.58658552187500 
 N -2.29798816250001 -6.28277384687500 -3.89181352187500 
 N -3.06443616250001 -6.60705884687500 -5.217352187499991E-002
 N -0.146521162500009 -3.26242984687500 -2.58577252187500 
 N -2.29822516250001 -2.53734284687500 -3.76538252187500 
 N -3.02302316250001 -2.76728984687500 0.122834478125000 
 S -0.614304162500010 -6.48190084687500 -4.16537852187500 
 S -3.92122316250001 -6.32809084687500 -1.48251552187500 
 S -1.48777916250001 -7.01364484687500 -0.133988521875000 
 S -0.760541162500009 -2.97296284687500 -4.16542952187500 
 S -3.76879316250001 -2.26388884687500 -1.31608352187500 
 S -1.39792116250001 -3.16762184687500 -3.359352187500009E-002
