16

 C -2.66183653437501 -6.32931480625000 -2.43620240000000 
 C -1.37861653437501 -6.61139180625000 -1.84877540000000 
 C -2.50420553437501 -2.96455080625000 -2.28237140000000 
 C -1.30975653437501 -3.34446680625000 -1.67322440000000 
 N -0.338234534375006 -6.76358780625000 -2.70221640000000 
 N -2.58061753437501 -6.20274080625000 -3.75699640000000 
 N -3.18146753437501 -6.56028480625000 5.484759999999866E-002
 N -0.292889534375006 -3.47595580625000 -2.51285740000000 
 N -2.46434253437501 -2.94379180625000 -3.61309740000000 
 N -3.02766353437501 -3.05044980625000 0.199696599999999 
 S -1.03815053437501 -6.55787680625000 -4.21095840000000 
 S -3.99606453437501 -6.17284380625000 -1.33996640000000 
 S -1.56555153437501 -6.83878780625000 -9.640540000000120E-002
 S -0.846417534375006 -3.10630580625000 -4.02600940000000 
 S -3.87648153437501 -2.65920480625000 -1.19556940000000 
 S -1.42387653437501 -3.48040780625000 4.633259999999861E-002
