16

 C -2.37564949062500 -6.49959576562500 -2.51997209375000 
 C -1.13432649062500 -6.69313276562500 -1.81563009375000 
 C -2.60954149062500 -2.79492276562500 -2.51555709375000 
 C -1.40829049062500 -3.08445076562500 -1.77788609375000 
 N -2.661549062499979E-002 -6.93862976562500 -2.56707109375000 
 N -2.20240249062500 -6.44383676562500 -3.84470509375000 
 N -3.07084849062500 -6.46912776562500 -3.749409375000079E-002
 N -0.278370490625001 -3.01626676562500 -2.49382209375000 
 N -2.44834149062500 -2.60419776562500 -3.82542409375000 
 N -3.29879749062500 -3.05051676562500 2.716690624999929E-002
 S -0.559082490625000 -6.71182776562500 -4.13761109375000 
 S -3.74892249062500 -6.21439476562500 -1.50907609375000 
 S -1.43776449062500 -6.81748676562500 6.537906249999281E-003
 S -0.801096490625000 -2.83059076562500 -4.04856109375000 
 S -3.95846449062500 -2.52315576562500 -1.41969509375000 
 S -1.66814149062500 -3.29060776562500 -1.572909375000076E-002
