16

 C -2.41248994375000 -6.82413854375000 -2.20852625312500 
 C -1.18318494375000 -7.15053054375000 -1.60467325312500 
 C -2.53943294375000 -2.87416454375000 -2.37719325312500 
 C -1.29296494375000 -3.20468654375000 -1.83583925312500 
 N -0.211903943750000 -7.27210554375000 -2.50279325312500 
 N -2.45896494375000 -6.70840754375000 -3.52305825312500 
 N -2.84272494375000 -7.07749354375000 0.376187746874999 
 N -0.304136943750001 -3.36153154375000 -2.69173625312500 
 N -2.49905894375000 -2.64023554375000 -3.67150225312500 
 N -2.96348494375000 -2.91053954375000 0.169553746874999 
 S -0.882145943750000 -6.96868154375000 -3.98778325312500 
 S -3.64929394375000 -6.65763654375000 -1.04332625312500 
 S -1.25032394375000 -7.34772654375000 0.123585746874999 
 S -0.989674943750001 -2.92257454375000 -4.19000725312500 
 S -3.77283894375000 -2.53124454375000 -1.23194825312500 
 S -1.39300494375000 -3.41117954375000 -0.115004253125002 
