16

 C -2.26537292812500 -6.40798914375000 -2.23462932187500 
 C -1.07239192812500 -6.98132314375000 -1.72133932187500 
 C -2.29217792812500 -2.50408114375000 -2.46897032187500 
 C -1.11383292812500 -3.19666614375000 -1.91276032187500 
 N -0.104035928125002 -7.31123214375000 -2.59300132187500 
 N -2.23256992812500 -6.28146414375000 -3.55567732187500 
 N -2.72334692812500 -6.75606514375000 0.309007678125001 
 N -0.107152928125003 -3.38610414375000 -2.78179732187500 
 N -2.19120192812500 -2.30501814375000 -3.77735132187500 
 N -2.85010292812500 -3.15280614375000 -6.452321874998779E-003
 S -0.707471928125003 -6.87846114375000 -4.07359432187500 
 S -3.54950892812500 -6.10938514375000 -1.02190132187500 
 S -1.09711192812500 -7.27652514375000 1.110067812500115E-002
 S -0.713236928125003 -2.76031514375000 -4.22306032187500 
 S -3.65043692812500 -2.38799014375000 -1.27042432187500 
 S -1.19788692812500 -3.59073114375000 -0.214254321874999 
