16

 C -2.68357794687500 -6.26794279999999 -2.32820727812500 
 C -1.55131594687500 -6.97893279999999 -1.87041027812500 
 C -2.47120794687500 -2.89583179999999 -2.29289127812500 
 C -1.29544094687500 -3.52852779999999 -1.62858227812500 
 N -0.558878946875000 -7.11460480000000 -2.76448927812500 
 N -2.62683394687500 -5.96596979999999 -3.63461927812500 
 N -3.13217794687500 -6.81884880000000 0.182482721875000 
 N -0.292419946875000 -3.75388679999999 -2.47245827812500 
 N -2.30713294687500 -2.70708279999999 -3.58649727812500 
 N -3.15137094687500 -3.21345180000000 8.897472187500011E-002
 S -1.13973294687500 -6.52373580000000 -4.16818327812500 
 S -3.85439394687500 -6.02733779999999 -1.07026727812500 
 S -1.58048494687500 -7.30489979999999 -0.140058278125000 
 S -0.742108946875000 -3.17186679999999 -3.95819527812500 
 S -3.75088894687500 -2.47631180000000 -1.23064627812500 
 S -1.62825994687500 -3.81980379999999 3.155972187500011E-002
