16

 C -2.80636749062499 -6.40982418750000 -2.48314115312500 
 C -1.58411149062499 -6.76125518750000 -1.77889215312500 
 C -2.36150549062500 -2.90256318750000 -2.26187515312500 
 C -1.10710649062499 -3.31776318750000 -1.60336315312500 
 N -0.534402490624995 -6.89811618750000 -2.58240215312500 
 N -2.63767449062499 -6.20486718750000 -3.79727415312500 
 N -3.34441049062499 -6.61051118750000 3.285084687499795E-002
 N -9.373149062499486E-002 -3.32902418750000 -2.46969415312500 
 N -2.23807649062499 -2.72199018750000 -3.57477415312500 
 N -2.87193549062499 -3.11035318750000 0.242176846874998 
 S -1.04950849062499 -6.47172418750000 -4.08878515312500 
 S -4.12927049062499 -6.09457918750000 -1.36361015312500 
 S -1.72625149062499 -6.99634718750000 -6.523115312500183E-002
 S -0.697518490624994 -3.16357118750000 -4.00022415312500 
 S -3.66051249062499 -2.84006818750000 -1.18462715312500 
 S -1.29161549062500 -3.48407918750000 0.110146846874998 
