16

 C -2.44674493437500 -6.66599320937499 -2.23482466250000 
 C -1.12790493437500 -6.79885120937499 -1.60634166250000 
 C -2.33076293437500 -2.73794920937500 -2.53443266250000 
 C -1.02399993437500 -3.13186120937500 -1.98759366250000 
 N -6.754693437499615E-002 -6.77247320937500 -2.42949766250000 
 N -2.34461893437500 -6.58383420937500 -3.55941666250000 
 N -2.96626893437500 -6.93826320937499 0.231564337499999 
 N -0.128325934374996 -3.35182320937500 -2.93226266250000 
 N -2.31585093437500 -2.57382420937499 -3.86678366250000 
 N -2.68234393437500 -2.86847220937500 3.138433749999892E-002
 S -0.707572934374996 -6.57121420937500 -3.98190466250000 
 S -3.81327993437500 -6.64502820937500 -1.17988266250000 
 S -1.34488293437500 -7.07140920937499 0.176226337499999 
 S -0.870829934374997 -3.02014320937499 -4.45329666250000 
 S -3.57064993437500 -2.40875620937500 -1.28735866250000 
 S -1.13657093437500 -3.48686620937499 -0.229087662500001 
