16

 C -2.28739540312500 -6.70283706562500 -2.22472871875000 
 C -1.04683940312500 -7.10009406562500 -1.57684471875000 
 C -2.48809540312500 -2.60574906562500 -2.45926471875000 
 C -1.17980440312500 -2.92457706562500 -1.84701171875000 
 N 8.195968749999949E-004 -7.00691206562500 -2.39027671875000 
 N -2.20882040312500 -6.30692906562500 -3.49372571875000 
 N -2.85854840312500 -6.87042006562500 0.297304281250004 
 N -0.197637403124999 -3.06482406562500 -2.71832571875000 
 N -2.43067940312500 -2.63515306562500 -3.78101571875000 
 N -2.93000540312500 -2.90764606562500 4.508828125000441E-002
 S -0.571440403125000 -6.48387506562500 -3.89113871875000 
 S -3.62531940312500 -6.57724506562500 -1.13647571875000 
 S -1.24963140312500 -7.33293506562500 0.130576281250004 
 S -0.781962403124999 -2.85333106562500 -4.23275771875000 
 S -3.72009840312500 -2.44001406562500 -1.31200571875000 
 S -1.31008240312500 -3.18097506562500 -0.175491718749996 
