16

 C -2.31408713437499 -6.38386434062499 -2.17640879062500 
 C -1.12632113437499 -6.90567734062499 -1.51607579062500 
 C -2.36562913437499 -2.73660034062499 -2.68059979062500 
 C -1.16388613437499 -3.19131034062499 -1.98844779062500 
 N -0.112823134374993 -7.01162434062499 -2.38087079062500 
 N -2.10452213437499 -6.02494034062499 -3.47759879062500 
 N -2.84128413437499 -6.95033734062499 0.341233209374999 
 N -0.132480134374993 -3.39255034062499 -2.79644279062500 
 N -2.18152913437499 -2.55278134062499 -3.98441579062500 
 N -2.92475313437499 -2.73861634062499 -0.170058790625001 
 S -0.519696134374994 -6.27790534062499 -3.80067079062500 
 S -3.64632613437499 -6.30910934062499 -1.00210079062500 
 S -1.29808113437499 -7.33472734062499 8.299220937499907E-002
 S -0.655279134374993 -3.11531134062499 -4.34696679062500 
 S -3.68391513437499 -2.43500634062499 -1.62914779062500 
 S -1.28364913437499 -3.21835634062499 -0.258745790625001 
