16

 C -2.45774663750000 -6.56494842500000 -2.33192907187500 
 C -1.18822563750000 -6.74640242500000 -1.68410507187500 
 C -2.64953463750000 -2.79693142500000 -2.63010107187500 
 C -1.33340963750000 -3.12869542500000 -2.08254807187500 
 N -0.197630637499999 -6.69820042500000 -2.57996407187500 
 N -2.45829263750000 -6.42402542500000 -3.65490707187500 
 N -3.01555163750000 -6.73015942500000 0.125792928124998 
 N -0.342585637499999 -3.17625542500000 -2.95052407187500 
 N -2.60731463750000 -2.44939142500000 -3.88194707187500 
 N -2.97661263750000 -3.17832142500000 -6.445107187500199E-002
 S -0.849263637499999 -6.31982042500000 -4.06812407187500 
 S -3.81876263750000 -6.47237042500000 -1.31366707187500 
 S -1.36863563750000 -6.99759342500000 -1.466071875002140E-003
 S -1.00545663750000 -2.68875342500000 -4.41733107187500 
 S -3.89586763750000 -2.78836642500000 -1.38376907187500 
 S -1.34024763750000 -3.38065842500000 -0.328858071875002 
