16

 C -2.31960550937500 -6.60351437812500 -2.50606998750000 
 C -1.11606650937500 -7.09086037812500 -1.82345998750000 
 C -2.35015650937500 -2.95859837812500 -2.54326298750000 
 C -1.16158750937500 -3.41370637812500 -1.87829198750000 
 N -2.301950937500141E-002 -7.17382037812500 -2.58686698750000 
 N -2.13229550937500 -6.34834437812500 -3.79579998750000 
 N -3.01442250937500 -6.87433237812500 -5.198987499998253E-003
 N -9.427850937500182E-002 -3.55431537812500 -2.62707898750000 
 N -2.24881050937500 -2.82968137812500 -3.87744698750000 
 N -3.05211750937500 -3.21341837812500 -1.293498749999822E-002
 S -0.556670509375001 -6.64926637812500 -4.12685798750000 
 S -3.73702850937500 -6.46106737812500 -1.48592298750000 
 S -1.43976850937500 -7.39121337812500 -3.431298749999834E-002
 S -0.636161509375001 -3.17283737812500 -4.22080298750000 
 S -3.73697250937500 -2.61133137812500 -1.44225698750000 
 S -1.46361650937500 -3.74827337812500 -9.447798749999836E-002
