16

 C -2.32447922812500 -6.45645132500000 -2.48291036875000 
 C -1.06555122812500 -6.80684232500000 -1.84708236875000 
 C -2.44239622812500 -3.27244832500000 -2.10886536875000 
 C -1.12230322812500 -3.36071232500000 -1.53377236875000 
 N -1.860422812500140E-002 -6.88123732500000 -2.71446436875000 
 N -2.21626022812500 -6.42753132500000 -3.79719336875000 
 N -2.94596922812500 -6.55421232500000 -5.466368749998729E-003
 N -0.215302228125002 -3.45505332500000 -2.49178836875000 
 N -2.50160922812500 -3.29429932500000 -3.41566236875000 
 N -2.76731422812500 -3.60133032500000 0.430531631250001 
 S -0.647643228125002 -6.69343832500000 -4.25112336875000 
 S -3.71147922812500 -6.23944532500000 -1.41267936875000 
 S -1.34951322812500 -6.83572332500000 -6.783636874999899E-002
 S -0.913773228125002 -3.35872832500000 -3.97839536875000 
 S -3.66984222812500 -3.34981832500000 -0.905635368749999 
 S -1.08349422812500 -3.64498932500000 0.184340631250001 
