16

 C -2.41523302500000 -6.23664125312501 -2.41298975000000 
 C -1.22537102500000 -6.74780925312501 -1.79942075000000 
 C -2.51685302500000 -2.44376725312501 -2.39059175000000 
 C -1.42927702500000 -3.11288725312501 -1.75762675000000 
 N -0.242551025000004 -6.96482325312501 -2.67381675000000 
 N -2.23737102500000 -5.90644825312501 -3.72377075000000 
 N -2.89588002500000 -6.58995025312501 0.148655250000002 
 N -0.480473025000004 -3.51947525312501 -2.55960075000000 
 N -2.34814002500000 -2.35499825312501 -3.70389175000000 
 N -3.06368302500000 -2.38210925312501 7.777725000000180E-002
 S -0.730854025000004 -6.43380325312501 -4.16838475000000 
 S -3.68623102500000 -6.07369625312501 -1.16861475000000 
 S -1.31307502500000 -7.06041625312501 -0.150560749999998 
 S -0.895699025000004 -3.03520425312501 -4.11301575000000 
 S -3.85528302500000 -2.06992525312501 -1.38619375000000 
 S -1.64615202500000 -3.21621825312501 -8.571274999999834E-002
