16

 C -2.71846334375000 -6.73462349687501 -2.31781019687500 
 C -1.42031734375000 -6.94835649687501 -1.67199919687500 
 C -2.48168834375000 -3.13189849687501 -2.47275819687500 
 C -1.11732334375000 -3.12043649687501 -1.93373319687500 
 N -0.435352343749999 -6.98197149687501 -2.50700319687500 
 N -2.72338134375000 -6.65404449687501 -3.63343119687500 
 N -3.15825434375000 -6.71842449687501 0.155903803125004 
 N -0.155939343749999 -3.24023849687501 -2.85544319687500 
 N -2.52861334375000 -3.20917549687501 -3.79024119687500 
 N -2.70954234375000 -3.10852949687501 0.151951803125004 
 S -1.07483534375000 -6.65898649687501 -4.01695919687500 
 S -4.01102634375000 -6.46207949687501 -1.20345819687500 
 S -1.50426834375000 -7.09076349687501 1.644580312500366E-002
 S -0.892668343750000 -3.26044749687501 -4.28568719687500 
 S -3.62831134375000 -2.95909449687501 -1.24955719687500 
 S -1.10669334375000 -3.34355949687501 -0.166815196874996 
