16

 C -2.17660767187500 -6.22799250000000 -2.16352189687500 
 C -0.959653671875000 -6.76508150000000 -1.49929989687500 
 C -2.45373167187500 -2.64652250000000 -2.64186189687500 
 C -1.18356067187500 -3.07110150000000 -2.04086289687500 
 N 1.458232812499993E-002 -7.07417150000000 -2.37180789687500 
 N -2.01828267187500 -5.96717450000000 -3.45750089687500 
 N -2.91769767187500 -6.52295150000000 0.250811103125000 
 N -0.127757671874999 -3.22605550000000 -2.90804989687500 
 N -2.40140867187500 -2.50813950000000 -3.96917889687500 
 N -3.00261467187500 -3.09517950000000 -0.157638896875000 
 S -0.549420671875000 -6.58575550000000 -3.86698489687500 
 S -3.55734167187500 -6.08286050000000 -1.19840389687500 
 S -1.37655767187500 -7.18068350000000 0.182784103125000 
 S -0.864330671874999 -2.89753850000000 -4.37002089687500 
 S -3.78418567187500 -2.47526650000000 -1.50040189687500 
 S -1.34572167187500 -3.29421050000000 -0.312544896875000 
