16

 C -2.47355702500000 -6.52944035624999 -2.51543301250000 
 C -1.20522502500000 -6.83471935624999 -1.83226401250000 
 C -2.59313802500000 -2.76900435624999 -2.42211801250000 
 C -1.39832402500000 -3.23907735624999 -1.71300401250000 
 N -9.108102499999848E-002 -6.90594835624999 -2.54211501250000 
 N -2.23263002500000 -6.26314035624999 -3.79749101250000 
 N -2.96575102500000 -6.58111435624999 8.982987499996486E-003
 N -0.287397024999999 -3.42100835624999 -2.45758301250000 
 N -2.41857102500000 -2.62450835624999 -3.75159801250000 
 N -3.33957202500000 -3.08557635624999 -3.892401250000344E-002
 S -0.599655024999999 -6.55214935624999 -4.06037001250000 
 S -3.79108202500000 -6.34068335624999 -1.42577201250000 
 S -1.31324402500000 -6.84823835624999 -0.143039012500003 
 S -0.827292024999998 -2.88764135624999 -3.94842701250000 
 S -4.01435202500000 -2.50855435624999 -1.45793301250000 
 S -1.73063002500000 -3.42743035624999 2.516987499996404E-003
