16

 C -2.55039229062500 -6.21337052187500 -2.52244661250000 
 C -1.42201929062500 -6.83201252187500 -1.86309961250000 
 C -2.19074229062500 -2.92783752187500 -2.32299861250000 
 C -0.960836290624999 -3.35155252187500 -1.76878861250000 
 N -0.358040290624999 -7.00591652187500 -2.62080761250000 
 N -2.36890129062500 -6.09754852187500 -3.81491061250000 
 N -3.22018129062500 -6.50104052187500 -0.100748612500003 
 N 6.891670937500116E-002 -3.37037552187500 -2.61161361250000 
 N -2.22566329062500 -2.53206852187500 -3.61288661250000 
 N -2.59822829062500 -3.46286352187500 0.240938387499998 
 S -0.779628290624998 -6.57355852187500 -4.16873661250000 
 S -3.86562029062500 -5.87279752187500 -1.51235461250000 
 S -1.63829329062500 -7.01425052187500 -0.109630612500002 
 S -0.630799290624999 -2.85779752187500 -4.06171161250000 
 S -3.43662129062500 -3.00685052187500 -1.12232861250000 
 S -1.02392929062500 -3.91697952187500 -0.111878612500002 
