16

 C -2.36907879375000 -6.61948693437500 -2.39366738437500 
 C -1.13674079375000 -7.02642893437500 -1.73638538437500 
 C -2.49085579375000 -2.82704393437500 -2.24802738437500 
 C -1.22463979375000 -3.23430193437500 -1.69064838437500 
 N -0.129944793750004 -7.20284993437500 -2.57477338437500 
 N -2.26775279375000 -6.46103793437500 -3.71009738437500 
 N -2.84470479375000 -6.58901793437500 0.120048615625001 
 N -0.342670793750004 -3.54398493437500 -2.60615638437500 
 N -2.52359879375000 -2.72044593437500 -3.54380238437500 
 N -2.90135679375000 -3.06878093437500 0.281619615625001 
 S -0.713173793750004 -6.96324293437500 -4.09381038437500 
 S -3.71491179375000 -6.38933593437500 -1.29341438437500 
 S -1.25839079375000 -7.36531293437500 -3.778838437499910E-002
 S -1.01535179375000 -3.13523293437500 -4.03379938437500 
 S -3.68975179375000 -2.65499293437500 -1.09293938437500 
 S -1.27480279375000 -3.19634693437500 2.067261562500100E-002
