16

 C -2.68666110312500 -6.36654867187500 -2.30232302812500 
 C -1.42245410312500 -6.86523667187500 -1.74077002812500 
 C -2.38602310312500 -2.77278667187500 -2.40037402812500 
 C -1.18573010312500 -3.26384067187500 -1.80456702812500 
 N -0.414688103124999 -6.96659367187500 -2.57668902812500 
 N -2.56667510312500 -6.06877367187500 -3.58005902812500 
 N -3.04113810312500 -6.78424167187500 0.253789971875001 
 N -0.175918103124999 -3.34044067187500 -2.69439802812500 
 N -2.34088610312500 -2.57617267187500 -3.72703602812500 
 N -2.99528110312500 -3.15236567187500 4.770297187500083E-002
 S -1.05455410312500 -6.56733967187500 -4.07739902812500 
 S -3.88467310312500 -6.14558467187500 -1.08528202812500 
 S -1.47927210312500 -7.22802767187500 -6.261702812499914E-002
 S -0.778880103124999 -2.90387967187500 -4.21060402812500 
 S -3.79424710312500 -2.74578967187500 -1.34715702812500 
 S -1.37239610312500 -3.65000067187500 -0.121129028124999 
