16

 C -2.34352660937501 -6.43083389999999 -2.47505443437500 
 C -1.06151360937501 -6.87521989999999 -1.93531443437500 
 C -2.41705160937501 -2.51406189999999 -2.46119943437500 
 C -1.30162460937501 -3.20276189999999 -1.90940943437500 
 N -0.166476609375005 -7.34436189999999 -2.82263143437500 
 N -2.31369260937501 -6.50598189999999 -3.78757243437500 
 N -2.60913460937500 -6.41031489999999 0.140149565625000 
 N -0.366808609375005 -3.50647789999999 -2.79725443437500 
 N -2.39899360937500 -2.30072589999999 -3.75733643437500 
 N -2.99550260937500 -3.04823389999999 -3.509843437500049E-002
 S -0.824395609375005 -7.06845489999999 -4.34314043437500 
 S -3.54884860937501 -6.26228389999999 -1.21133643437500 
 S -1.04229260937501 -6.88945589999999 -0.106653434375000 
 S -0.959857609375005 -3.06391289999999 -4.24963743437500 
 S -3.72437660937501 -2.31326289999999 -1.35418643437500 
 S -1.41364760937500 -3.40964289999999 -0.236337434375000 
