16

 C -2.30713927812500 -6.93576733124999 -2.55990759062500 
 C -1.10057227812500 -7.31568533124999 -1.92772759062500 
 C -2.57697427812500 -2.73392433124999 -2.56629159062500 
 C -1.37350427812500 -3.28580233124999 -1.92167359062500 
 N -3.609527812500080E-002 -7.55906133124999 -2.68846059062500 
 N -2.15375427812500 -6.96740433124999 -3.87848959062500 
 N -2.72693927812500 -6.63495833124999 -8.057059062499738E-002
 N -0.380920278125001 -3.39714633124999 -2.81283459062500 
 N -2.52180927812500 -2.51773033124999 -3.86693659062500 
 N -2.94410527812500 -2.65748333124999 -7.620590624997314E-003
 S -0.635255278125001 -7.42402633124999 -4.21377459062500 
 S -3.46133027812500 -6.21975533124999 -1.53122359062500 
 S -1.16878627812500 -7.09925033124999 -0.200110590624997 
 S -0.950793278125001 -2.94392633124999 -4.29383459062500 
 S -3.80918627812500 -2.27113133124999 -1.41832859062500 
 S -1.39366327812500 -3.28680133124999 -0.191040590624997 
