16

 C -2.30613396875000 -6.23399192812500 -2.05748495312500 
 C -1.10603496875000 -6.85754492812500 -1.54110095312500 
 C -2.31997196875000 -2.58119492812500 -2.29945195312500 
 C -1.23101996875000 -3.19668092812500 -1.58588995312500 
 N -7.300996875000187E-002 -6.93600292812500 -2.41885295312500 
 N -2.09654596875000 -5.74944292812500 -3.27036095312500 
 N -2.98201896875000 -6.80425592812500 0.396446046875002 
 N -0.210109968750002 -3.52243992812500 -2.36253595312500 
 N -2.08758396875000 -2.31310092812500 -3.58406395312500 
 N -3.09190096875000 -3.00278992812500 0.206760046875002 
 S -0.608158968750002 -6.16529092812500 -3.76902395312500 
 S -3.63521496875000 -6.15561692812500 -0.960398953124998 
 S -1.35464896875000 -7.18226092812500 0.235752046875002 
 S -0.477389968750002 -2.84798592812500 -3.84030795312500 
 S -3.78824596875000 -2.46402192812500 -1.26892995312500 
 S -1.41294896875000 -3.29480292812500 0.155026046875002 
