16

 C -2.26906661875001 -6.64747843750000 -2.36689003437500 
 C -1.15827861875001 -7.21981543750000 -1.67023103437500 
 C -2.45817761875001 -2.53016743750000 -2.31527703437500 
 C -1.46945461875000 -3.42157943750000 -1.80518403437500 
 N -0.131677618750005 -7.43110243750001 -2.50115303437500 
 N -2.17826761875000 -6.44706843750000 -3.65922503437500 
 N -3.07958661875000 -7.15458643750000 -4.114034374999465E-003
 N -0.495677618750006 -3.82730943750000 -2.60320903437500 
 N -2.30351461875000 -2.24763943750000 -3.58567903437500 
 N -2.95978961875000 -2.71600443750000 0.273332965625001 
 S -0.635592618750005 -6.97284043750000 -3.99711003437500 
 S -3.69291861875001 -6.47801043750001 -1.35530503437500 
 S -1.36321161875001 -7.35296143750000 2.244965625000539E-003
 S -0.940197618750005 -3.09000343750000 -4.08418503437500 
 S -3.57702361875001 -2.02372543750000 -1.14405803437500 
 S -1.69695861875001 -3.75938443750000 -5.629903437499939E-002
