16

 C -2.50552691874999 -6.51477166562501 -2.45418326875000 
 C -1.21728291875000 -6.94252566562501 -1.95166126875000 
 C -2.58367891875000 -2.64939666562501 -2.51611926875000 
 C -1.51669891875000 -3.24224766562501 -1.74686826875000 
 N -0.281730918749995 -6.93628466562501 -2.87029026875000 
 N -2.53189591874999 -6.31434266562501 -3.75910626875000 
 N -2.73173991875000 -6.88406666562501 8.111773124999866E-002
 N -0.485932918749995 -3.69446566562501 -2.44889226875000 
 N -2.41692091875000 -2.68661466562501 -3.84459126875000 
 N -3.36575491875000 -2.64716266562501 -2.510226875000132E-002
 S -0.959156918749995 -6.57405566562501 -4.31302126875000 
 S -3.74537291874999 -6.46426666562501 -1.19169026875000 
 S -1.21913091875000 -7.50263666562501 -0.269820268750001 
 S -0.929149918749995 -3.33752866562501 -4.04892626875000 
 S -3.87660891875000 -2.04063666562501 -1.48717726875000 
 S -1.79072191874999 -3.22147466562501 -7.412687500014670E-004
