16

 C -2.23567934375000 -6.43686043750001 -2.36237323750000 
 C -1.10753134375000 -6.92707343750001 -1.69200423750000 
 C -2.60433434375000 -2.72816443750001 -2.55636823750000 
 C -1.37060034375000 -3.01292343750001 -1.90748323750000 
 N -0.166830343750004 -7.24530143750001 -2.52902423750000 
 N -2.17051234375000 -6.26424143750001 -3.66522423750000 
 N -2.84476034375000 -6.17923443750001 9.407976250000027E-002
 N -0.335625343750004 -3.12514043750001 -2.73286223750000 
 N -2.50474234375000 -2.64814643750001 -3.86385423750000 
 N -3.11747634375000 -2.88082043750001 -0.118495237500000 
 S -0.686374343750004 -6.79917643750001 -4.07071223750000 
 S -3.57920834375000 -6.05239243750001 -1.35744123750000 
 S -1.29386334375000 -6.87676043750001 2.355776250000030E-002
 S -0.918613343750004 -2.91077343750001 -4.29348123750000 
 S -3.92841334375000 -2.48254643750001 -1.50397123750000 
 S -1.50293034375000 -3.13635843750001 -0.247619237500000 
