16

 C -2.67324531875001 -6.20635050625000 -2.48249915000000 
 C -1.52335531875001 -6.74293150625000 -1.82235615000000 
 C -2.23737731875001 -3.02820650625000 -2.26728915000000 
 C -0.906429318750006 -3.41384850625000 -1.69598915000000 
 N -0.452739318750006 -7.02707950625000 -2.58343815000000 
 N -2.42319831875001 -6.03866150625000 -3.78316015000000 
 N -3.36621031875001 -6.49349750625000 -2.511814999999951E-002
 N 8.107068124999373E-002 -3.38239250625000 -2.58305115000000 
 N -2.13631231875001 -2.68553750625000 -3.54391315000000 
 N -2.62964331875001 -3.42786950625000 0.232071850000001 
 S -0.913310318750006 -6.61504050625000 -4.12383515000000 
 S -4.05297731875001 -5.95272850625000 -1.44233315000000 
 S -1.79957531875001 -7.00889950625000 -0.138199149999999 
 S -0.558343318750006 -2.84042150625000 -4.03945815000000 
 S -3.54786031875001 -2.97089850625000 -1.11361215000000 
 S -0.998204318750006 -3.72041650625000 3.449850000000421E-003
