16

 C -2.31898028125000 -6.45763940000000 -2.49045819687500 
 C -1.08161928125000 -6.73045140000000 -1.76120019687500 
 C -2.48486028125000 -3.32560240000000 -2.14674719687500 
 C -1.11454428125000 -3.35625940000000 -1.63140519687500 
 N -5.191328125000094E-002 -6.90162540000000 -2.59657719687500 
 N -2.26038528125000 -6.31202840000000 -3.81332119687500 
 N -2.93630528125000 -6.54603740000000 2.817180312500023E-002
 N -0.138444281250002 -3.27011840000000 -2.54623019687500 
 N -2.58669128125000 -3.36554740000000 -3.46827119687500 
 N -2.62922728125000 -3.51722140000000 0.451698803125000 
 S -0.669876281250001 -6.64805140000000 -4.13845419687500 
 S -3.65257028125000 -6.22284340000000 -1.43606919687500 
 S -1.26605128125000 -6.93783340000000 -8.841719687499960E-002
 S -1.01189128125000 -3.30407840000000 -3.96404719687500 
 S -3.67936228125000 -3.30938340000000 -0.830896196875000 
 S -1.00170528125000 -3.57819940000000 0.103871803125000 
