16

 C -2.43313567812499 -6.49013486562500 -2.34229413437500 
 C -1.18155767812499 -6.86953086562500 -1.70915213437500 
 C -2.39124067812499 -2.97488886562500 -2.23760113437500 
 C -1.04633667812499 -3.38618386562500 -1.72909413437500 
 N -0.202399678124991 -7.05147686562500 -2.58248213437500 
 N -2.44183467812499 -6.35137186562500 -3.66213913437500 
 N -2.90768767812499 -6.73804286562500 0.119615865625000 
 N -3.764667812499045E-002 -3.45136686562500 -2.62250213437500 
 N -2.34835667812499 -2.70642386562500 -3.56578413437500 
 N -2.68858967812499 -3.37680986562500 0.326757865625000 
 S -0.863210678124990 -6.63899486562500 -4.05706813437500 
 S -3.75817067812499 -6.34262386562500 -1.26740713437500 
 S -1.23849167812499 -7.01887786562500 4.043865624999698E-003
 S -0.818460678124990 -3.10689186562500 -4.05022913437500 
 S -3.61396867812499 -3.08861186562500 -1.00375913437500 
 S -1.02425967812499 -3.60105186562500 7.686562499964467E-005
