16

 C -2.43982394375000 -6.61457724687500 -2.23546488125000 
 C -1.18822894375000 -6.76297824687500 -1.58938388125000 
 C -2.33225594375000 -2.73527824687500 -2.52435688125000 
 C -1.13144394375000 -3.25088224687500 -1.93850988125000 
 N -0.119473943750002 -6.76521324687500 -2.37635488125000 
 N -2.37210294375000 -6.50275424687500 -3.54364088125000 
 N -3.00862594375000 -6.88578424687500 0.236577118750001 
 N -0.204818943750002 -3.44618024687500 -2.84049888125000 
 N -2.33391794375000 -2.63742624687500 -3.81871488125000 
 N -2.78406094375000 -2.91821524687500 4.485118750000572E-003
 S -0.750951943750001 -6.67094524687500 -3.92847588125000 
 S -3.74579694375000 -6.71757524687500 -1.19489988125000 
 S -1.33342594375000 -7.03955624687500 0.124581118750001 
 S -0.776282943750002 -3.07541824687500 -4.32318988125000 
 S -3.54992694375000 -2.42642424687500 -1.38527088125000 
 S -1.18398994375000 -3.42172924687500 -0.277021881249999 
