16

 C -2.48624726562501 -6.79746583750001 -2.21663780312500 
 C -1.16951526562501 -7.12897683750001 -1.64924980312500 
 C -2.59475126562501 -2.81165283750001 -2.39067080312500 
 C -1.29299226562501 -3.26521183750001 -1.80151880312500 
 N -0.191207265625007 -7.30272483750001 -2.52595680312500 
 N -2.46579726562501 -6.73116083750001 -3.55975180312500 
 N -2.81402626562501 -7.11404683750001 0.299679196875001 
 N -0.300962265625007 -3.40756683750001 -2.68635480312500 
 N -2.57732526562501 -2.58853783750001 -3.71343780312500 
 N -2.95885126562501 -2.96429083750001 0.116437196875000 
 S -0.926814265625007 -7.01988683750001 -3.98560180312500 
 S -3.70076726562501 -6.65576983750001 -1.01988880312500 
 S -1.19049526562501 -7.34041483750001 9.734719687500060E-002
 S -1.01472926562501 -2.91228283750001 -4.14742980312500 
 S -3.83632726562501 -2.51974683750001 -1.25408280312500 
 S -1.37268426562501 -3.44173383750001 -9.985680312499934E-002
