16

 C -2.50301602500000 -6.57344621875000 -2.31387643750000 
 C -1.31638002500000 -7.11300821875000 -1.72808143750000 
 C -2.73498702500000 -2.50738721875000 -2.38451743750000 
 C -1.65831102500000 -3.27999621875000 -1.67937743750000 
 N -0.297521025000003 -7.30403221875000 -2.53656843750000 
 N -2.42016902500000 -6.31622421875000 -3.61748643750000 
 N -2.97974102500000 -6.93002521875000 0.225141562500001 
 N -0.556819025000003 -3.52842021875000 -2.39893243750000 
 N -2.43483602500000 -2.34447421875000 -3.67261543750000 
 N -3.41650502500000 -2.51910221875000 0.140042562500001 
 S -0.857199025000003 -6.82057921875000 -4.03930243750000 
 S -3.84945902500000 -6.47538621875000 -1.10576943750000 
 S -1.45143702500000 -7.45980921875000 -4.326743749999928E-002
 S -0.919781025000002 -2.94421221875000 -3.93672743750000 
 S -4.07315602500000 -1.98492221875000 -1.34197043750000 
 S -1.99085502500000 -3.38996121875000 5.308856250000082E-002
