16

 C -2.64668684687499 -6.59844841875001 -2.32594390625000 
 C -1.35159884687499 -6.78459941875001 -1.69119490625000 
 C -2.32376884687499 -3.03468641875001 -2.47632190625000 
 C -1.01825784687499 -3.30976041875001 -1.86359390625000 
 N -0.330442846874995 -6.79163241875001 -2.50646990625000 
 N -2.53429084687499 -6.43181641875001 -3.65994790625000 
 N -3.07174784687499 -7.00566041875001 0.189674093749999 
 N -8.098884687499464E-002 -3.62954541875001 -2.73402390625000 
 N -2.32153484687499 -2.96381941875001 -3.79792890625000 
 N -2.73474184687499 -3.01754741875001 8.005709374999848E-002
 S -0.956169846874995 -6.65093941875001 -4.03315490625000 
 S -3.98333784687499 -6.87047141875001 -1.23851390625000 
 S -1.45637384687499 -7.15575641875001 -8.877906250001510E-003
 S -0.730568846874995 -3.22839141875001 -4.23056190625000 
 S -3.60585684687499 -2.88202841875001 -1.37629090625000 
 S -1.12512784687500 -3.33983341875001 -0.150601906250001 
