16

 C -2.31098208750000 -6.56427890625000 -2.42019846562500 
 C -1.10254708750000 -7.09897990625000 -1.72580346562500 
 C -2.46063208750000 -2.83170090625000 -2.21863946562500 
 C -1.21154008750000 -3.19195790625000 -1.69332246562500 
 N -0.100530087500003 -7.25698690625000 -2.57039946562500 
 N -2.25443008750000 -6.42753890625000 -3.73466646562500 
 N -2.85072508750000 -6.56811990625000 0.109365534375000 
 N -0.250736087500003 -3.50469490625000 -2.58629146562500 
 N -2.49908908750000 -2.67469590625000 -3.55177946562500 
 N -2.88784108750000 -3.00816690625000 0.275545534375000 
 S -0.722495087500003 -6.89092290625000 -4.07722946562500 
 S -3.68323908750000 -6.38327390625000 -1.26700146562500 
 S -1.28259408750000 -7.35941190625000 -2.159346562500053E-002
 S -1.01442308750000 -3.20996490625000 -4.07217946562500 
 S -3.74355508750000 -2.70113690625000 -1.10064246562500 
 S -1.24295208750000 -3.17537890625000 2.184753437499953E-002
