16

 C -2.38016531562500 -6.57759222500000 -2.39815876875000 
 C -1.13068831562500 -6.89936622500000 -1.75082076875000 
 C -2.20702631562500 -3.29191322500000 -2.29137876875000 
 C -0.984577315625004 -3.63114022500000 -1.57087876875000 
 N -0.188744315625004 -7.24751622500000 -2.65903676875000 
 N -2.39838031562500 -6.58141322500000 -3.74718676875000 
 N -2.82999331562500 -6.59122422500000 0.173929231249998 
 N 9.991368437499659E-002 -3.81630622500000 -2.33461576875000 
 N -2.07624631562500 -3.28020222500000 -3.58893376875000 
 N -2.76826731562500 -3.20529722500000 0.258991231249998 
 S -0.831847315625004 -6.94396922500000 -4.14593176875000 
 S -3.66855731562500 -6.38998122500000 -1.24379776875000 
 S -1.19867631562500 -6.93398522500000 -2.984476875000208E-002
 S -0.484158315625004 -3.62158722500000 -3.90656476875000 
 S -3.58063931562500 -3.14405722500000 -1.19727376875000 
 S -1.13978431562500 -3.62393722500000 0.195370231249998 
