16

 C -2.33489688437500 -6.52564069062500 -2.38800115000000 
 C -1.05538388437500 -6.95048369062500 -1.82472715000000 
 C -2.41495588437500 -2.54123669062500 -2.48257215000000 
 C -1.25757788437500 -3.22771169062500 -1.87827615000000 
 N -0.168834884375002 -7.23638869062500 -2.74726815000000 
 N -2.38181688437500 -6.41653069062500 -3.72238615000000 
 N -2.59585688437500 -6.49451769062500 0.235250849999999 
 N -0.363952884375002 -3.66502669062500 -2.78900115000000 
 N -2.32734588437500 -2.40186269062500 -3.79274915000000 
 N -3.07548488437500 -2.98974869062500 2.061384999999882E-002
 S -0.811892884375002 -6.84039769062500 -4.25618915000000 
 S -3.52410288437500 -6.16168069062500 -1.11487715000000 
 S -1.01374088437500 -6.91252969062500 -0.123491150000001 
 S -0.898001884375002 -2.99001369062500 -4.27329615000000 
 S -3.72488088437500 -2.37631569062500 -1.37052115000000 
 S -1.44307088437500 -3.37449569062500 -0.138845150000001 
