16

 C -2.42346707500000 -6.74535997500000 -2.19395187500000 
 C -1.15609007500000 -7.14336997500000 -1.57515887500000 
 C -2.48010607500000 -2.81444397500000 -2.42515687500000 
 C -1.22526507500000 -3.10013397499999 -1.77208887500000 
 N -0.146742075000000 -7.24543997499999 -2.44753787500000 
 N -2.32486407500000 -6.53084797500000 -3.49740587500000 
 N -2.82750007500000 -6.91830697499999 0.320999124999999 
 N -0.232644075000001 -3.33681597500000 -2.62109687500000 
 N -2.35529807500000 -2.67901697500000 -3.73722387500000 
 N -2.96473807500000 -2.99238097500000 8.211512499999918E-002
 S -0.725762075000000 -6.82204897500000 -3.92372387500000 
 S -3.73607107500000 -6.68223797500000 -1.04651587500000 
 S -1.21752707500000 -7.35951497500000 0.106413124999999 
 S -0.817829075000000 -3.01717597500000 -4.15058087500000 
 S -3.78391007500000 -2.60855697500000 -1.30233787500000 
 S -1.27455207500000 -3.25936297499999 -7.913887500000083E-002
