16

 C -2.44328264687501 -6.60918327500000 -2.48450094375000 
 C -1.13644064687501 -6.98149727500000 -1.94897394375000 
 C -2.39438164687501 -2.92317727500000 -2.46315794375000 
 C -1.26739164687501 -3.54022127500000 -1.80319294375000 
 N -0.175330646875006 -7.05775027500000 -2.83795294375000 
 N -2.40149564687501 -6.32354527500000 -3.78632994375000 
 N -2.75039964687501 -7.21702027500000 4.811005625000053E-002
 N -0.295274646875005 -3.84094427500000 -2.64542494375000 
 N -2.16390164687501 -2.66474927500000 -3.75671294375000 
 N -3.14259864687501 -3.13629827500000 1.443805625000039E-002
 S -0.800722646875005 -6.61284527500000 -4.33443594375000 
 S -3.66608464687501 -6.71896327500000 -1.27945994375000 
 S -1.14013464687501 -7.35339327500000 -0.220794943749999 
 S -0.644837646875005 -3.28146227500000 -4.14399094375000 
 S -3.84347364687501 -2.69103027500000 -1.47246194375000 
 S -1.60243064687501 -3.69568027500000 -3.078694374999968E-002
