16

 C -2.36025025000000 -6.26954535000000 -2.66951573750000 
 C -1.23360725000000 -6.86818935000000 -1.95111073750000 
 C -2.47318225000000 -2.83159935000000 -2.56459373750000 
 C -1.29450425000000 -3.03108235000000 -1.87845573750000 
 N -0.132824249999996 -6.91281535000000 -2.71299073750000 
 N -2.12366725000000 -5.99888535000000 -3.94073673750000 
 N -3.07031725000000 -6.40291235000000 -0.268211737499998 
 N -0.212200249999996 -3.14184835000000 -2.61585673750000 
 N -2.31971025000000 -2.77665635000000 -3.88483073750000 
 N -3.06245425000000 -2.95398535000000 -7.611473749999842E-002
 S -0.557472249999996 -6.35264135000000 -4.21985373750000 
 S -3.72012625000000 -5.85456735000000 -1.71784873750000 
 S -1.45131025000000 -6.81741235000000 -0.220408737499998 
 S -0.667679249999996 -2.87378835000000 -4.21262673750000 
 S -3.86994725000000 -2.65362035000000 -1.51256973750000 
 S -1.47810225000000 -3.22006035000000 -0.193602737499998 
