16

 C -2.64587653750000 -6.23919772500000 -2.28833199062500 
 C -1.42180453750000 -6.69419372500000 -1.67207799062500 
 C -2.41977953750000 -2.60143372500000 -2.46989099062500 
 C -1.19748253750000 -2.99870772500000 -1.73640899062500 
 N -0.421462537500005 -6.97329572500000 -2.51730999062500 
 N -2.59158753750000 -6.14485372500000 -3.62998199062500 
 N -3.11168153750000 -6.45431272500000 0.233423009375000 
 N -0.170047537500004 -3.33904272500000 -2.49140999062500 
 N -2.26608953750000 -2.52568872500000 -3.78373499062500 
 N -3.06645053750000 -2.77322272500000 6.015600937499999E-002
 S -1.05790053750000 -6.57436672500000 -3.99949699062500 
 S -3.90646853750000 -5.84414072500000 -1.13124699062500 
 S -1.51655053750000 -6.88431572500000 6.385009374999973E-003
 S -0.728363537500004 -2.98933472500000 -4.11400499062500 
 S -3.70046353750000 -2.31476272500000 -1.42124199062500 
 S -1.44261753750000 -3.05592172500000 -4.326999062499981E-002
