16

 C -2.15470854375000 -6.22005718437499 -2.20411343125000 
 C -1.07997154375000 -6.86512718437499 -1.55208043125000 
 C -2.49641754375000 -2.67359318437499 -2.62321543125000 
 C -1.25797854375000 -3.07151818437499 -2.00752043125000 
 N -5.605454375000285E-002 -7.16767018437499 -2.37150443125000 
 N -2.04613254375000 -6.08435218437499 -3.54882243125000 
 N -2.95525354375000 -6.50267418437499 0.246872568750000 
 N -0.272405543750003 -3.06964218437499 -2.87618343125000 
 N -2.43716054375000 -2.45802718437499 -3.91615243125000 
 N -2.96333754375000 -3.08683618437500 -0.161743431250001 
 S -0.482135543750004 -6.60098218437499 -3.89608743125000 
 S -3.54947254375000 -5.97553118437500 -1.20832443125000 
 S -1.36944654375000 -7.06214218437499 0.170732568749999 
 S -0.871363543750003 -2.80763718437499 -4.39684143125000 
 S -3.76180354375000 -2.44545018437499 -1.48359443125000 
 S -1.33839054375000 -3.35248918437499 -0.289927431250001 
