16

 C -2.48187171875000 -6.26342341875000 -2.43364000312500 
 C -1.30662471875000 -6.80200641875000 -1.75665100312500 
 C -2.46243371875000 -2.40904741875000 -2.36411600312500 
 C -1.27916671875000 -2.97654241875000 -1.75259700312500 
 N -0.267379718750001 -6.92309641875000 -2.60448000312500 
 N -2.34559071875000 -6.16948941875000 -3.79310500312500 
 N -3.12219671875000 -6.48080941875000 6.758599687500078E-002
 N -0.244326718750001 -3.16807741875000 -2.56893000312500 
 N -2.35835171875000 -2.20313141875000 -3.67150800312500 
 N -3.05239271875000 -2.86389841875000 8.145899687500080E-002
 S -0.763249718750001 -6.51890141875000 -4.16650000312500 
 S -3.78475071875000 -5.96589541875000 -1.34168000312500 
 S -1.46231871875000 -6.93203741875000 -4.196300312499912E-002
 S -0.830489718750001 -2.69966041875000 -4.05832500312500 
 S -3.69472471875000 -2.01040141875000 -1.21654900312500 
 S -1.46192571875000 -3.21172941875000 -1.079900312499915E-002
