16

 C -2.43623799687500 -6.44233746875000 -2.34411975625000 
 C -1.12184799687500 -6.85200446875001 -1.80263375625000 
 C -2.55133699687500 -2.80433146875001 -2.41966775625000 
 C -1.35604799687500 -3.23478446875001 -1.67315075625000 
 N -8.172499687500157E-002 -6.91596046875001 -2.62620875625000 
 N -2.36628899687500 -6.18355046875000 -3.64751475625000 
 N -2.75553199687500 -6.83858546875001 0.213390243749999 
 N -0.317931996875002 -3.44868546875001 -2.45005975625000 
 N -2.39271199687500 -2.62875246875000 -3.72910775625000 
 N -3.20942399687500 -2.94475946875001 1.636624374999940E-002
 S -0.814520996875002 -6.56647546875000 -4.11134075625000 
 S -3.69194499687500 -6.44743046875000 -1.09551375625000 
 S -1.14650399687500 -7.16889846875000 -9.884575625000069E-002
 S -0.834043996875002 -3.03027646875000 -4.04867675625000 
 S -3.89161899687500 -2.40394846875000 -1.37380775625000 
 S -1.60366099687500 -3.44135646875000 2.760524374999940E-002
