16

 C -2.52541274687500 -6.49511276875000 -2.37761588437500 
 C -1.29035774687500 -6.92311276875000 -1.75623788437500 
 C -2.52866174687501 -3.17951476875000 -2.35209388437500 
 C -1.26614474687501 -3.56940876875000 -1.79881388437500 
 N -0.219083746875005 -7.09253376875000 -2.53705788437500 
 N -2.33225074687500 -6.33956476875000 -3.69876488437500 
 N -3.05951574687500 -6.78902976875000 0.103031115625000 
 N -0.281809746875005 -3.54221276875000 -2.64057388437500 
 N -2.49863574687500 -2.95736476875000 -3.65532288437500 
 N -3.02899674687500 -3.30697776875000 0.173043115625000 
 S -0.735465746875005 -6.65345676875000 -4.06550488437500 
 S -3.84953274687501 -6.30660676875000 -1.27779588437500 
 S -1.38839974687501 -6.98233476875000 -5.483288437500011E-002
 S -0.921797746875005 -3.15038176875000 -4.12101188437500 
 S -3.85280474687501 -3.21113676875000 -1.26908388437500 
 S -1.40895574687501 -3.66527776875000 -2.892988437500055E-002
