16

 C -2.39021360625000 -6.52358941874999 -2.53364868750000 
 C -1.18255660625000 -6.95238041874999 -1.91966368750000 
 C -2.66470960625000 -2.61167441874999 -2.27589568750000 
 C -1.54086160625000 -3.21000041874999 -1.67505768750000 
 N -0.165484606250001 -7.11028741874999 -2.75579168750000 
 N -2.30665160625000 -6.34002041874999 -3.83577268750000 
 N -2.90401760625000 -6.80229041874999 -9.119368750000167E-002
 N -0.550906606250002 -3.45097341874999 -2.50308868750000 
 N -2.52895160625000 -2.39831041874999 -3.55473168750000 
 N -3.30617860625000 -2.85618541874999 0.103505312499999 
 S -0.726116606250002 -6.65276841874999 -4.28826868750000 
 S -3.74553960625000 -6.30875641874999 -1.49014768750000 
 S -1.31192760625000 -7.15235241874999 -0.173112687500002 
 S -0.988212606250002 -2.94013141874999 -3.99638468750000 
 S -3.99430860625000 -2.19671041874999 -1.27845768750000 
 S -1.73691460625000 -3.37722841874999 4.881931249999849E-002
