16

 C -2.69437026875000 -6.35090474062500 -2.38021769375000 
 C -1.51052226875000 -6.97487374062500 -1.89275669375000 
 C -2.44238926875000 -2.74898174062500 -2.30064669375000 
 C -1.33496926875000 -3.47056874062500 -1.63236669375000 
 N -0.552363268750003 -7.20953674062500 -2.79708669375000 
 N -2.56517226875000 -5.94708474062500 -3.63580469375000 
 N -3.07699726875000 -6.71424374062500 0.126604306250001 
 N -0.331667268750004 -3.73300174062500 -2.46898469375000 
 N -2.28302326875000 -2.53524674062500 -3.61561669375000 
 N -3.15126326875000 -3.11954674062500 0.249364306250001 
 S -1.11028226875000 -6.48958374062500 -4.21388069375000 
 S -3.84300926875000 -5.99230074062500 -1.17793369375000 
 S -1.56070926875000 -7.31528374062500 -0.165058693749998 
 S -0.813970268750004 -3.17275974062500 -3.97736069375000 
 S -3.75183026875000 -2.42997674062500 -1.16891569375000 
 S -1.59850326875000 -3.78080374062500 4.499130625000136E-002
