16

 C -2.69924861562501 -6.31112165000000 -2.43935735312500 
 C -1.48823361562501 -6.70417565000000 -1.78363935312500 
 C -2.46891761562501 -2.97943065000000 -2.31209135312500 
 C -1.20734361562501 -3.26741665000000 -1.66601535312500 
 N -0.457236615625005 -6.78593765000000 -2.61375135312500 
 N -2.67032061562501 -6.22246465000000 -3.77065235312500 
 N -3.28588661562501 -6.61255065000000 4.354164687500051E-002
 N -0.144569615625005 -3.45447165000000 -2.45955535312500 
 N -2.37593161562501 -2.85520265000000 -3.64303835312500 
 N -2.97883961562500 -3.07468165000000 0.253494646875001 
 S -1.06145761562501 -6.52527865000000 -4.13430435312500 
 S -4.03401061562501 -6.15216965000000 -1.36172535312500 
 S -1.66297861562501 -6.92759465000000 -0.107518353125000 
 S -0.774967615625005 -3.12414765000000 -3.99614635312500 
 S -3.75457261562501 -2.73617665000000 -1.18441435312500 
 S -1.36594261562501 -3.48165665000000 7.158364687500041E-002
