16

 C -2.21327276875000 -6.39744722187500 -2.36055017187500 
 C -1.12133776875000 -6.92202222187500 -1.66561617187500 
 C -2.62028876875000 -2.73785822187500 -2.57296417187500 
 C -1.37842176875000 -3.01572422187500 -1.91131417187500 
 N -0.169508768750005 -7.23336322187500 -2.54282617187500 
 N -2.19549476875001 -6.26577622187500 -3.68246917187500 
 N -2.81813176875000 -6.16426222187500 9.984782812500015E-002
 N -0.353130768750004 -3.10017622187500 -2.73655017187500 
 N -2.50637876875000 -2.64393022187500 -3.87187817187500 
 N -3.10951776875000 -2.87302622187500 -0.115672171875000 
 S -0.684531768750005 -6.78748422187500 -4.06553017187500 
 S -3.58908176875000 -6.05310422187500 -1.35345417187500 
 S -1.27256276875000 -6.90430422187500 2.512682812500011E-002
 S -0.920536768750004 -2.94085222187500 -4.29581217187500 
 S -3.91153276875000 -2.45635522187500 -1.51255017187500 
 S -1.51742076875000 -3.15031222187500 -0.238818171875000 
