16

 C -2.34124534375000 -6.40152463124999 -2.24643922187500 
 C -1.13428434375000 -6.87373463124999 -1.62576122187500 
 C -2.39946834375000 -2.57678363124999 -2.40434922187500 
 C -1.15653134375000 -3.12610963124999 -1.82495122187500 
 N -0.122543343750004 -6.91151163124999 -2.49692622187500 
 N -2.25344134375000 -6.23618763124999 -3.54065822187500 
 N -2.84425534375000 -6.64779463124999 0.275198778124998 
 N -0.158808343750003 -3.32204963124999 -2.67896522187500 
 N -2.27056134375000 -2.41612663124999 -3.70404222187500 
 N -3.03496434375000 -3.09511163124999 5.302877812499807E-002
 S -0.706763343750003 -6.54455963124999 -4.03413122187500 
 S -3.69792034375000 -6.32440463124999 -1.16364922187500 
 S -1.34790734375000 -7.30427963124999 3.018377812499806E-002
 S -0.725138343750004 -2.74489063124999 -4.13336622187500 
 S -3.76267134375000 -2.44971463124999 -1.33210622187500 
 S -1.36832434375000 -3.49989863124999 -0.102028221875002 
