16

 C -2.53524205625000 -6.50392905625000 -2.40070939375000 
 C -1.35479605625000 -6.96284405625000 -1.77400839375000 
 C -2.57493005625000 -2.69180305625000 -2.54008239375000 
 C -1.34023305625000 -3.19207305625000 -1.84490839375000 
 N -0.346755056249997 -7.18255305625000 -2.61053939375000 
 N -2.40025705625000 -6.25826705625000 -3.71712639375000 
 N -3.08044705625000 -6.86146905625000 9.507660624999881E-002
 N -0.219207056249997 -3.30033805625000 -2.56881339375000 
 N -2.31122805625000 -2.52700305625000 -3.84769839375000 
 N -3.19559305625000 -2.94171605625000 -4.411639375000109E-002
 S -0.841770056249996 -6.71519905625000 -4.08362039375000 
 S -3.89765105625000 -6.44856805625000 -1.30191539375000 
 S -1.47066805625000 -7.17998305625000 -9.184039375000119E-002
 S -0.765830056249996 -2.94438605625000 -4.13304339375000 
 S -3.96562105625000 -2.62916805625000 -1.51685539375000 
 S -1.56888405625000 -3.30903005625000 -0.111103393750001 
