16

 C -2.28496129687500 -6.28997335625000 -2.22604322500000 
 C -1.12584129687500 -6.76574635625000 -1.55194622500000 
 C -2.31010629687500 -2.46446535625000 -2.11676222500000 
 C -1.15395929687500 -3.13145535625000 -1.64643422500000 
 N -6.817629687500038E-002 -6.90001635625000 -2.36597022500000 
 N -2.12269629687500 -6.05597535625000 -3.52771122500000 
 N -3.08399229687500 -6.49191735625000 0.214487774999999 
 N -8.593429687500009E-002 -3.09256535625000 -2.43191522500000 
 N -2.22664929687500 -2.05979735625000 -3.38743022500000 
 N -2.93906129687500 -3.31096835625000 0.263071774999999 
 S -0.631770296875000 -6.59082935625000 -3.88802922500000 
 S -3.71572729687500 -6.09431335625000 -1.22693722500000 
 S -1.48839129687500 -7.10270635625000 0.140495774999999 
 S -0.645187296875000 -2.45966435625000 -3.86399722500000 
 S -3.65599329687500 -2.48105735625000 -0.957816225000002 
 S -1.35446429687500 -3.75546635625000 -4.550622500000134E-002
