16

 C -2.35676935000000 -6.44372317187500 -2.32889124687500 
 C -1.12339635000000 -6.86699117187500 -1.78171824687500 
 C -2.55193735000000 -2.74625817187500 -2.41000924687500 
 C -1.40716635000000 -3.28141517187500 -1.69245024687500 
 N -0.116338350000004 -6.91674517187500 -2.64761724687500 
 N -2.36001635000000 -6.18513717187500 -3.66019224687500 
 N -2.73811835000000 -6.80887617187500 0.213132753125002 
 N -0.345129350000004 -3.44818917187500 -2.43126524687500 
 N -2.35954535000000 -2.59048817187500 -3.69411424687500 
 N -3.22962535000000 -2.96567117187500 1.021175312500144E-002
 S -0.803448350000004 -6.51373517187500 -4.12901524687500 
 S -3.64437935000000 -6.42467617187500 -1.08580924687500 
 S -1.10418235000000 -7.16576817187500 -9.972624687499820E-002
 S -0.845219350000004 -3.01190917187500 -4.06880224687500 
 S -3.90431335000000 -2.39816817187500 -1.41629924687500 
 S -1.61539635000000 -3.41471217187500 1.529375312500147E-002
