16

 C -2.55694124062501 -6.67745862187500 -2.53707214375000 
 C -1.33048324062501 -7.11824162187500 -1.96358314375000 
 C -2.26674524062501 -2.45136062187500 -2.30607714375000 
 C -1.05717924062501 -3.16935162187500 -1.84745314375000 
 N -0.284410240625010 -7.20614762187500 -2.75953314375000 
 N -2.44159124062501 -6.37553162187500 -3.83007714375000 
 N -2.98001724062501 -6.66377762187500 -5.397914374999901E-002
 N -0.129037240625010 -3.34697762187500 -2.80122614375000 
 N -2.20951924062501 -2.18354462187500 -3.60996614375000 
 N -2.80419024062501 -3.20103162187500 0.133385856250001 
 S -0.857176240625010 -6.76646862187500 -4.26088714375000 
 S -3.82067524062501 -6.31701162187500 -1.44661614375000 
 S -1.34935924062501 -7.31150562187500 -0.245421143749999 
 S -0.830990240625010 -2.73588562187500 -4.24455914375000 
 S -3.61743624062501 -2.43653362187500 -1.11830614375000 
 S -1.18166424062501 -3.60950762187500 -0.125008143749999 
