16

 C -2.43296163749999 -6.60682683750000 -2.41378145312500 
 C -1.17146063749999 -6.91606083750000 -1.79437045312500 
 C -2.09240163749999 -2.71828183750000 -2.29173145312500 
 C -0.976165637499988 -3.28703983750000 -1.59625245312500 
 N -0.106430637499988 -6.89409783750000 -2.64417745312500 
 N -2.30436863749999 -6.39327283750000 -3.73372345312500 
 N -2.95536263749999 -6.89341383750000 0.175714546875000 
 N 0.103135362500011 -3.43911983750000 -2.36071245312500 
 N -1.92358963749999 -2.47691083750000 -3.58610845312500 
 N -2.90809263749999 -3.17015083750000 8.228354687500006E-002
 S -0.730466637499989 -6.69074883750000 -4.17947145312500 
 S -3.77448163749999 -6.65161883750000 -1.24514245312500 
 S -1.36697363749999 -7.24820483750000 -7.026045312499996E-002
 S -0.307853637499989 -2.86229883750000 -3.86863245312500 
 S -3.48831463749999 -2.49809083750000 -1.28083745312500 
 S -1.34371063749999 -3.70625583750000 3.216954687500007E-002
