16

 C -2.31510279687499 -6.45064591562500 -2.31042616562500 
 C -1.04722979687499 -6.85237591562500 -1.81281916562500 
 C -2.55648979687499 -2.68634591562500 -2.45792516562500 
 C -1.39719679687499 -3.24069891562500 -1.76871616562500 
 N -9.301579687498851E-002 -6.95762391562500 -2.73899116562500 
 N -2.34939379687499 -6.17645191562500 -3.62528016562500 
 N -2.61506079687499 -6.75326191562500 0.243261834375001 
 N -0.394316796874989 -3.48731091562500 -2.60233116562500 
 N -2.39839579687499 -2.41118091562500 -3.74910216562500 
 N -3.32160279687499 -2.98260891562500 2.082383437500068E-002
 S -0.775143796874989 -6.40898391562500 -4.14820516562500 
 S -3.53681579687499 -6.34846291562500 -1.11611416562500 
 S -1.04582579687499 -7.17997891562500 -4.997516562499937E-002
 S -0.835891796874988 -2.96366591562500 -4.04515316562500 
 S -3.95502979687499 -2.40631791562500 -1.39498516562500 
 S -1.71479379687499 -3.35143091562500 -5.802216562499929E-002
