16

 C -2.29872790625000 -6.05917313437500 -2.26810975312500 
 C -1.13442990625000 -6.72171113437500 -1.74004575312500 
 C -2.70854090625000 -2.43444613437500 -2.71234675312500 
 C -1.50175190625000 -2.85197613437500 -2.08091875312500 
 N -0.259666906249998 -7.06088213437500 -2.69193975312500 
 N -2.24251890625000 -5.86835113437500 -3.58228075312500 
 N -2.67587890625000 -6.39336213437500 0.286481246874998 
 N -0.512457906249998 -3.09004113437500 -2.96109075312500 
 N -2.66373990625000 -2.31702013437500 -4.02480975312500 
 N -3.16977590625000 -2.38218413437500 -0.177522753125002 
 S -0.821908906249997 -6.56129313437500 -4.14900475312500 
 S -3.49623390625000 -5.75383613437500 -1.04338275312500 
 S -1.20922990625000 -7.05180913437500 -0.101103753125002 
 S -1.09955890625000 -2.75607213437500 -4.39182175312500 
 S -3.99193690625000 -2.17253413437500 -1.63307375312500 
 S -1.58999890625000 -2.84317113437500 -0.373559753125002 
