16

 C -2.47125762187501 -6.45771841562500 -2.51692491250000 
 C -1.30034262187501 -6.90668541562500 -1.83096891250000 
 C -2.68651262187501 -2.91729741562500 -2.48309491250000 
 C -1.48842362187501 -3.42084941562500 -1.86893891250000 
 N -0.249168621875007 -6.99734941562500 -2.65142191250000 
 N -2.33015162187501 -6.27930241562500 -3.83943691250000 
 N -3.14749962187501 -6.71161741562500 4.027087499998583E-003
 N -0.487083621875007 -3.63131741562500 -2.72652791250000 
 N -2.55967362187501 -2.59962841562500 -3.77098491250000 
 N -3.28098762187501 -3.27069541562500 6.176087499998761E-003
 S -0.731692621875007 -6.66153741562500 -4.21886391250000 
 S -3.88839762187501 -6.14006841562500 -1.35559391250000 
 S -1.53359862187501 -6.97936041562500 -9.085291250000127E-002
 S -1.01183762187501 -3.11427941562500 -4.19273091250000 
 S -4.02327162187501 -2.89691941562500 -1.45183891250000 
 S -1.73647462187501 -3.72822141562500 -0.174964912500001 
