16

 C -2.37988038750000 -6.54829153750000 -2.50922420937500 
 C -1.15259338750000 -6.82176453750000 -1.79185820937500 
 C -2.56653838750000 -2.75209253750000 -2.42438520937500 
 C -1.41453538750000 -3.28111553750000 -1.67953320937500 
 N -9.781538749999985E-002 -6.91479653750000 -2.59114420937500 
 N -2.25607638750000 -6.18424853750000 -3.78051320937500 
 N -2.94167938750000 -6.59560953750000 1.126879062500152E-002
 N -0.367015387500000 -3.49802153750000 -2.47785020937500 
 N -2.41296738750000 -2.57319053750000 -3.72765620937500 
 N -3.37401738750000 -3.03078953750000 -1.410820937499846E-002
 S -0.631518387500000 -6.52491953750000 -4.09191720937500 
 S -3.81871238750000 -6.37782353750000 -1.38017620937500 
 S -1.30530338750000 -6.89631453750000 -0.112152209374999 
 S -0.796063387500000 -2.92818453750000 -3.96857620937500 
 S -3.98562938750000 -2.56016153750000 -1.46756420937500 
 S -1.75289938750000 -3.46518453750000 7.669790625001394E-003
