16

 C -2.45670216875000 -6.24029827187500 -2.69632893437500 
 C -1.23857816875000 -6.65614727187500 -2.02386193437500 
 C -2.45648516875000 -2.79648527187500 -2.60123493437500 
 C -1.24307216875000 -3.07515127187500 -1.88051893437500 
 N -0.153794168750003 -6.89719627187500 -2.78739093437500 
 N -2.25287216875000 -6.01657527187500 -3.98137993437500 
 N -3.15767416875000 -6.47229927187500 -0.184710934375001 
 N -0.149367168750003 -3.09346627187500 -2.64921793437500 
 N -2.36596816875000 -2.64307427187500 -3.94659493437500 
 N -3.12055416875000 -2.83524227187500 -4.754793437500049E-002
 S -0.636814168750004 -6.36589527187500 -4.32076093437500 
 S -3.82088916875000 -6.02006027187500 -1.63244193437500 
 S -1.54293016875000 -6.87171827187500 -0.304845934375001 
 S -0.734411168750003 -2.90753727187500 -4.19529493437500 
 S -3.85668816875000 -2.68377027187500 -1.51878493437500 
 S -1.45234116875000 -3.19735427187500 -0.119179934375001 
