16

 C -2.21141997500000 -6.63308436250000 -2.21425873750000 
 C -0.931214974999998 -7.11858836250000 -1.68615773750000 
 C -2.46341497500000 -2.70739636250000 -2.29903973750000 
 C -1.29836797500000 -3.28335136250000 -1.75792973750000 
 N 3.926402500000226E-002 -7.17444336250000 -2.59352473750000 
 N -2.25639297500000 -6.37641936250000 -3.50563373750000 
 N -2.59474097500000 -6.99310036250000 0.343057262500000 
 N -0.285667974999997 -3.54564236250000 -2.59313873750000 
 N -2.36570197500000 -2.38589836250000 -3.59497673750000 
 N -2.98908297500000 -3.18484436250000 0.220899262500000 
 S -0.683500974999998 -6.63613536250000 -4.02532273750000 
 S -3.43572697500000 -6.42697236250000 -0.988015737500000 
 S -1.01872197500000 -7.22755436250000 4.990226249999985E-002
 S -0.883900974999998 -2.98407036250000 -4.07059573750000 
 S -3.74158197500000 -2.48078936250000 -1.11740873750000 
 S -1.39020397500000 -3.52913936250000 -4.452973750000000E-002
