16

 C -2.29268701562499 -6.36052986562500 -2.48594783125000 
 C -1.13325601562499 -6.84162586562500 -1.71211083125000 
 C -2.72301001562499 -2.48824386562500 -2.47187183125000 
 C -1.47574501562499 -2.85206486562500 -1.85702783125000 
 N -2.693901562499157E-002 -6.99130486562500 -2.44592083125000 
 N -2.07681901562499 -6.15456386562500 -3.79788083125000 
 N -3.06741401562499 -6.45211986562500 -5.256883125000211E-002
 N -0.388942015624991 -2.84251386562500 -2.64264083125000 
 N -2.64324201562499 -2.31860586562500 -3.80222283125000 
 N -3.29089601562499 -2.87866886562500 3.261616874999773E-002
 S -0.506682015624992 -6.62763586562500 -4.01256083125000 
 S -3.72218001562499 -6.17669886562500 -1.53486083125000 
 S -1.47533101562499 -7.07501486562500 -3.342483125000228E-002
 S -1.03102501562499 -2.56147586562500 -4.14132283125000 
 S -4.05350401562499 -2.44794086562500 -1.40391583125000 
 S -1.64012601562499 -2.93796886562500 -9.154483125000246E-002
