16

 C -2.49584627812500 -6.61539580937500 -2.30475132187500 
 C -1.26479027812500 -7.02840280937500 -1.63106532187500 
 C -2.40202827812500 -2.54196280937500 -2.53178032187500 
 C -1.26006927812500 -3.03574380937500 -1.83050432187500 
 N -0.295304278124997 -7.41127380937500 -2.42262332187500 
 N -2.36398327812500 -6.56137180937500 -3.62595932187500 
 N -2.99787327812500 -6.63931180937500 0.234050678125001 
 N -0.190511278124997 -3.05958780937500 -2.60313532187500 
 N -2.18224927812500 -2.26034280937500 -3.81602532187500 
 N -2.99573827812500 -2.69650980937500 -1.445232187499879E-002
 S -0.809985278124997 -7.15312380937500 -3.96000832187500 
 S -3.78651427812500 -6.22729780937500 -1.19973032187500 
 S -1.40225327812500 -7.28749180937500 5.792467812500113E-002
 S -0.555384278124997 -2.57212080937500 -4.15441932187500 
 S -3.74436627812500 -2.34946480937500 -1.46222332187500 
 S -1.44779327812500 -3.35279280937500 -0.119421321874999 
