16

 C -2.45600446875000 -6.77764358437499 -2.35100801250000 
 C -1.19075046875000 -7.13778358437500 -1.74011201250000 
 C -2.84287546875000 -3.18120758437500 -2.17122601250000 
 C -1.61579046875000 -3.53588858437500 -1.40354401250000 
 N -0.170981468750002 -7.25091258437500 -2.56893601250000 
 N -2.27908246875000 -6.61242658437499 -3.63978901250000 
 N -2.94584046875000 -6.89993858437500 0.167934987499999 
 N -0.589341468750002 -3.62151558437500 -2.21711701250000 
 N -2.66439746875000 -3.07175358437499 -3.49385301250000 
 N -3.41848746875000 -3.26111158437500 0.371629987499999 
 S -0.700586468750001 -6.85941458437499 -4.09383601250000 
 S -3.69226046875000 -6.44383658437500 -1.19878801250000 
 S -1.26359946875000 -7.19770758437499 2.641498749999882E-002
 S -1.04352046875000 -3.32495658437499 -3.77245701250000 
 S -4.26830346875000 -3.20119358437500 -1.11286301250000 
 S -1.78534746875000 -3.72242758437500 0.309395987499999 
