16

 C -2.62707939062500 -6.29037617500000 -2.26972972187500 
 C -1.46404439062500 -6.95270317500000 -1.70354972187500 
 C -2.29883239062500 -2.47641217500000 -2.46637272187500 
 C -1.10332639062500 -2.99375817500000 -1.89244072187500 
 N -0.501154390625000 -7.15040517500000 -2.58522172187500 
 N -2.46282739062500 -5.91820117500000 -3.54086672187500 
 N -3.07224039062500 -6.69523117500000 0.213251278125002 
 N -0.134019390625000 -3.26394017500000 -2.76337772187500 
 N -2.18466739062500 -2.20728617500000 -3.78276472187500 
 N -2.89052439062500 -2.73142617500000 -1.464672187499794E-002
 S -0.983118390625000 -6.55161717500000 -4.06174972187500 
 S -3.88473239062500 -6.10334817500000 -1.13620072187500 
 S -1.55666839062500 -7.23860917500000 -1.757772187499773E-002
 S -0.635770390625000 -2.73939017500000 -4.18440172187500 
 S -3.58900139062500 -2.17447917500000 -1.38956072187500 
 S -1.32271739062500 -3.26867217500000 -0.133545721874998 
