16

 C -2.41947743750000 -6.52806961875001 -2.51589050937500 
 C -1.14075143750000 -6.94219261875001 -1.91631350937500 
 C -2.71188743750000 -2.66782161875001 -2.32591450937500 
 C -1.50759243750000 -3.21424261875001 -1.64908750937500 
 N -0.122308437500001 -7.08017061875001 -2.76309350937500 
 N -2.29214343750000 -6.39093061875001 -3.82660650937500 
 N -2.91979743750000 -6.73862061875001 -0.100377509374999 
 N -0.515056437500001 -3.44525761875001 -2.51581050937500 
 N -2.56808243750000 -2.36703061875001 -3.62088850937500 
 N -3.32307643750000 -2.82762561875001 0.123896490625001 
 S -0.760318437500000 -6.70672161875001 -4.25868950937500 
 S -3.74529043750000 -6.27484761875001 -1.44032250937500 
 S -1.29544043750000 -7.16416761875001 -0.149171509374999 
 S -1.02618443750000 -2.92907861875001 -3.99031050937500 
 S -3.99218243750000 -2.19312161875001 -1.30155750937500 
 S -1.69914843750000 -3.43421661875001 4.683649062500139E-002
