16

 C -2.60277637500000 -6.69553826562500 -2.20450306875000 
 C -1.43966037500000 -7.26333726562500 -1.64907306875000 
 C -2.27199937500000 -2.87235826562500 -2.31207006875000 
 C -1.10658137500000 -3.40552026562500 -1.71309506875000 
 N -0.559295375000000 -7.51177226562500 -2.60100606875000 
 N -2.67263837500000 -6.47396026562500 -3.50053006875000 
 N -3.10844637500000 -7.05868826562500 0.299214931250002 
 N -9.819637500000056E-002 -3.57447826562500 -2.52406806875000 
 N -2.14007137500000 -2.68338126562500 -3.61236406875000 
 N -2.80766837500000 -3.15959526562500 0.176331931250002 
 S -1.20488437500000 -6.98673826562500 -4.02581506875000 
 S -3.89221237500000 -6.42634026562500 -1.07764006875000 
 S -1.50845837500000 -7.43984126562500 4.267893125000177E-002
 S -0.610277375000001 -3.19720426562500 -4.07273506875000 
 S -3.57178637500000 -2.54629126562500 -1.20625906875000 
 S -1.21584337500000 -3.56417726562500 4.390593125000186E-002
