16

 C -2.44641618124999 -6.22798539687499 -2.39778727500000 
 C -1.28431018124999 -6.91639039687499 -1.86347927500000 
 C -2.58156618124999 -2.41265239687499 -2.63279327500000 
 C -1.38854318124999 -2.89575439687499 -2.01379527500000 
 N -0.375411181249993 -7.14451639687499 -2.79244027500000 
 N -2.41727118124999 -5.94484339687499 -3.70884627500000 
 N -2.85292418124999 -6.31020939687499 0.168691725000000 
 N -0.358369181249993 -3.09155739687499 -2.77962827500000 
 N -2.52720118124999 -2.43172639687499 -3.94605827500000 
 N -3.07982718124999 -2.48994039687499 -0.113282275000000 
 S -0.995702181249992 -6.57344239687499 -4.24813327500000 
 S -3.63078518124999 -5.77918039687499 -1.17988327500000 
 S -1.39209018124999 -7.08557039687499 -0.130457275000000 
 S -0.996981181249993 -2.88329939687499 -4.38779827500000 
 S -3.80707118124999 -2.06374439687499 -1.51643927500000 
 S -1.50908318124999 -2.95156039687499 -0.276422275000000 
