16

 C -2.50466095000000 -6.70887685000000 -2.29765439687500 
 C -1.26874495000000 -7.06351885000000 -1.74209339687500 
 C -2.29915195000000 -3.14914985000000 -2.32743539687500 
 C -1.05165595000000 -3.61660385000000 -1.73701739687500 
 N -0.328646950000000 -7.28115285000000 -2.67403539687500 
 N -2.56979795000000 -6.72754985000000 -3.61498039687500 
 N -2.87040295000000 -6.77601385000000 0.219904603125000 
 N -8.364494999999916E-002 -3.85615585000000 -2.61021039687500 
 N -2.19525395000000 -2.95000685000000 -3.60388239687500 
 N -2.73747095000000 -3.38139585000000 0.194337603125000 
 S -1.01157395000000 -6.97839985000000 -4.14897039687500 
 S -3.71745795000000 -6.40561085000000 -1.17464139687500 
 S -1.29822695000000 -7.12852485000000 1.743660312500017E-002
 S -0.639431950000000 -3.42316785000000 -4.08579039687500 
 S -3.57568795000000 -2.87448285000000 -1.14548739687500 
 S -1.13960595000000 -3.83886185000000 9.732603125000239E-003
