16

 C -2.57895130937500 -6.59455035937500 -2.46662672500000 
 C -1.29505030937500 -6.76986935937500 -1.77291672500000 
 C -2.60881930937500 -2.64997735937500 -2.58394072500000 
 C -1.34249330937500 -3.04224535937500 -2.04147272500000 
 N -0.213566309375000 -6.54528435937500 -2.53302872500000 
 N -2.44174930937500 -6.31993035937500 -3.78208272500000 
 N -3.02877930937500 -6.61885035937500 0.132221275000000 
 N -0.405803309375001 -3.05123835937500 -2.97014972500000 
 N -2.65870930937500 -2.49679535937500 -3.87092372500000 
 N -3.05185130937500 -3.16082835937500 -6.952672499999979E-002
 S -0.804011309375000 -6.36227035937500 -4.08284572500000 
 S -3.90139730937500 -6.45546735937500 -1.29435172500000 
 S -1.41455630937500 -6.95135435937500 -4.058672499999982E-002
 S -1.13519530937500 -2.68524435937500 -4.43258172500000 
 S -3.90942530937500 -2.65334935937500 -1.39957972500000 
 S -1.42156430937500 -3.35022135937500 -0.304053725000000 
