16

 C -2.52862316562500 -6.33186013125000 -2.29813404062500 
 C -1.33121116562500 -6.91235613125000 -1.66844904062500 
 C -2.30583616562500 -2.30339113125000 -2.52986604062500 
 C -1.12608916562500 -2.76533613125000 -1.86248304062500 
 N -0.256705165624997 -7.07777613125000 -2.48790204062500 
 N -2.33036516562500 -5.99948913125000 -3.57858604062500 
 N -3.17058816562500 -6.66923513125000 0.135572959374999 
 N -0.128570165624997 -3.01157013125000 -2.68558404062500 
 N -2.20809716562500 -2.24289113125000 -3.81295604062500 
 N -2.86197516562500 -2.46467213125000 -6.778040625001314E-003
 S -0.840006165624997 -6.57792613125000 -4.00343104062500 
 S -3.78890416562500 -5.98663813125000 -1.22643604062500 
 S -1.58093516562500 -7.22501613125000 4.918695937499873E-002
 S -0.670802165624997 -2.70943013125000 -4.24124804062500 
 S -3.60575616562500 -1.84036013125000 -1.37085104062500 
 S -1.37598316562500 -3.13522913125000 -0.198301040625001 
