16

 C -2.41024328750000 -6.47424440312500 -2.54273084687500 
 C -1.18133028750000 -6.87138840312500 -1.95570384687500 
 C -2.54412028750000 -2.51828640312500 -2.34959584687500 
 C -1.46941128750000 -3.11578240312500 -1.64351684687500 
 N -0.119809287500000 -6.96039840312500 -2.73351284687500 
 N -2.25601128750000 -6.20871940312500 -3.82866284687500 
 N -2.96279228750000 -6.86051840312500 -9.897484687500002E-002
 N -0.429506287500000 -3.39691040312500 -2.38052284687500 
 N -2.32142828750000 -2.42411640312500 -3.66007684687500 
 N -3.26371028750000 -2.88071240312500 4.151715312500004E-002
 S -0.639456287500000 -6.56560740312500 -4.25921684687500 
 S -3.82278328750000 -6.53551240312500 -1.49553584687500 
 S -1.31237728750000 -7.23631040312500 -0.233303846875000 
 S -0.834578287500000 -3.05298940312500 -3.95935784687500 
 S -3.96177728750000 -2.23004340312500 -1.35014484687500 
 S -1.66314428750000 -3.22803040312500 8.823115312499996E-002
