16

 C -2.78766897187499 -6.75723879062500 -2.32010652812500 
 C -1.51477197187499 -7.03947679062500 -1.72420152812500 
 C -2.39943897187499 -3.09016479062500 -2.42048952812500 
 C -1.09585497187499 -3.15048879062500 -1.87886252812500 
 N -0.440016971874995 -7.04169779062500 -2.52773752812500 
 N -2.70478297187499 -6.59939379062500 -3.65689152812500 
 N -3.14782697187499 -6.69077879062500 0.199626471875000 
 N -0.150533971874995 -3.21496079062500 -2.80324252812500 
 N -2.51377497187499 -3.28007679062500 -3.74481152812500 
 N -2.76443097187499 -3.11148579062500 9.962347187499976E-002
 S -1.07432897187500 -6.71712679062500 -4.00771652812500 
 S -4.02477797187499 -6.33198679062500 -1.19355852812500 
 S -1.51120597187500 -7.01758479062500 9.448471874999642E-003
 S -0.973830971874995 -3.21963179062500 -4.29273552812500 
 S -3.66851797187500 -3.00065179062500 -1.23465352812500 
 S -1.11904497187499 -3.32604779062500 -0.157845528125000 
