16

 C -2.50867178437500 -6.70393970000000 -2.38898295625000 
 C -1.23862578437500 -6.95105670000000 -1.76802395625000 
 C -2.13089478437500 -2.86482770000000 -2.41766595625000 
 C -0.966022784375002 -3.25022170000000 -1.60734195625000 
 N -0.173542784375002 -6.92236970000000 -2.57674995625000 
 N -2.39282678437500 -6.55487070000000 -3.71017995625000 
 N -2.93550978437500 -7.04205570000000 8.032504375000338E-002
 N 0.108048215624999 -3.41926770000000 -2.37400595625000 
 N -1.94380578437500 -2.77830370000000 -3.73249495625000 
 N -2.90843678437500 -3.09568970000000 2.912604375000338E-002
 S -0.814134784375002 -6.55629770000000 -4.04554295625000 
 S -3.80059178437500 -6.79433470000000 -1.34719595625000 
 S -1.31598678437500 -7.26167970000000 -6.016195624999665E-002
 S -0.294486784375001 -3.09435570000000 -3.96741295625000 
 S -3.51692578437500 -2.52451570000000 -1.42282195625000 
 S -1.32148878437500 -3.65907370000000 3.655804375000349E-002
