16

 C -2.44597693750000 -6.46845597812499 -2.35461458750000 
 C -1.16856193750000 -6.82377097812499 -1.72445858750000 
 C -2.56764493750000 -2.86342497812499 -2.57691258750000 
 C -1.31108093750000 -3.30950097812499 -2.04093358750000 
 N -0.143387937500003 -6.73352697812499 -2.58741158750000 
 N -2.38368293750000 -6.20660297812499 -3.66295458750000 
 N -2.96307693750000 -6.83484997812499 0.172502412500001 
 N -0.233265937500002 -3.30562297812499 -2.81151858750000 
 N -2.47155593750000 -2.53891197812499 -3.83629658750000 
 N -2.90195993750000 -3.19984297812499 -6.269958749999871E-002
 S -0.797343937500003 -6.43912197812499 -4.07024358750000 
 S -3.78898693750000 -6.50698697812499 -1.19900058750000 
 S -1.29002693750000 -7.07217897812499 6.910412500001462E-003
 S -0.911596937500002 -2.72710997812499 -4.32666558750000 
 S -3.82562493750000 -2.91672197812499 -1.42231358750000 
 S -1.30195593750000 -3.46457597812499 -0.341843587499999 
