16

 C -2.56803371874999 -6.28018446875000 -2.48480286562500 
 C -1.39815371874999 -6.89121746875000 -1.87477786562500 
 C -2.42153571874999 -2.58781846875000 -2.20496286562500 
 C -1.36163071874999 -3.34299146875000 -1.67340886562500 
 N -0.450801718749990 -7.17619246875000 -2.74803786562500 
 N -2.40415671874999 -5.97975846875000 -3.77178386562500 
 N -3.05155471874999 -6.59072646875000 6.734613437499726E-002
 N -0.385868718749991 -3.71519746875000 -2.51359986562500 
 N -2.31707871874999 -2.32957246875000 -3.50151486562500 
 N -2.96020671874999 -2.74542946875000 0.318532134374997 
 S -0.958230718749991 -6.63397246875000 -4.24300386562500 
 S -3.79558571874999 -6.01699446875000 -1.28138886562500 
 S -1.57836071874999 -7.28243046875000 -0.208255865625003 
 S -0.901631718749991 -3.01632846875000 -3.93298786562500 
 S -3.78256371874999 -2.41493546875000 -1.09408786562500 
 S -1.48685971874999 -3.60386646875000 7.696413437499738E-002
