16

 C -2.47762752812500 -6.83535885312499 -2.26604910312500 
 C -1.17974952812500 -7.18340585312500 -1.81946210312500 
 C -2.59238152812500 -2.74051685312500 -2.36838810312500 
 C -1.42566852812500 -3.34303885312499 -1.78523810312500 
 N -0.297417528124996 -7.35402285312500 -2.78621410312500 
 N -2.60112552812500 -6.72089785312499 -3.57419210312500 
 N -2.63652452812500 -6.94408285312499 0.279080896875001 
 N -0.460222528124996 -3.53062585312499 -2.67308210312500 
 N -2.48355252812500 -2.52571785312499 -3.65592210312500 
 N -3.17939152812500 -3.28664185312500 -4.573103124998701E-003
 S -1.07601052812500 -7.01945285312499 -4.22577110312500 
 S -3.66956252812500 -6.79990185312499 -1.06742210312500 
 S -1.06730352812500 -7.33675485312499 -5.599010312499897E-002
 S -0.959694528124997 -2.97994785312499 -4.14082910312500 
 S -3.96335852812500 -2.60658785312499 -1.32490810312500 
 S -1.54565552812500 -3.52119785312499 -7.295810312499884E-002
