16

 C -2.56513646250000 -6.65578366875000 -2.35456255625000 
 C -1.36622346250000 -7.08944266875000 -1.74467455625000 
 C -2.38396746250000 -3.03134766875000 -2.34484555625000 
 C -1.11994646250000 -3.55721566875000 -1.86636755625000 
 N -0.395206462500003 -7.36951466875000 -2.59082355625000 
 N -2.55608146250000 -6.61688566875000 -3.70589455625000 
 N -3.01598246250000 -6.81830866875000 0.189142443749999 
 N -0.167689462500003 -3.65241766875000 -2.78819555625000 
 N -2.39717346250000 -2.82934966875000 -3.69164255625000 
 N -2.74224846250000 -3.30697666875000 0.202958443749999 
 S -0.961914462500003 -7.00710666875000 -4.08920855625000 
 S -3.86913046250000 -6.51636066875000 -1.16489055625000 
 S -1.40594846250000 -7.21876366875000 -1.769955625000064E-002
 S -0.859695462500002 -3.23524166875000 -4.20806455625000 
 S -3.62288946250000 -2.75287066875000 -1.14282055625000 
 S -1.22088346250000 -3.89893566875000 -9.149255625000086E-002
