16

 C -2.30574615000000 -6.31672013750000 -2.39042476875000 
 C -1.07677415000000 -6.82876213750000 -1.81093676875000 
 C -2.49428215000000 -3.17099013750000 -2.34660876875000 
 C -1.23130115000000 -3.27579313750000 -1.69909876875000 
 N -8.157315000000409E-002 -7.17335913750000 -2.66007476875000 
 N -2.17595515000000 -6.12681613750000 -3.71948576875000 
 N -2.95526315000000 -6.94373713750000 3.235723125000334E-002
 N -0.169134150000003 -3.20814513750000 -2.54010876875000 
 N -2.38867915000000 -3.08066513750000 -3.68221776875000 
 N -3.01836715000000 -2.67841413750000 8.596923125000355E-002
 S -0.652971150000003 -6.66749413750000 -4.11197076875000 
 S -3.54622615000000 -6.14379413750000 -1.23346976875000 
 S -1.25874115000000 -7.24610213750000 -0.115413768749997 
 S -0.784551150000003 -3.15721213750000 -4.07956476875000 
 S -3.92392715000000 -2.68980813750000 -1.33129576875000 
 S -1.34208615000000 -3.04371213750000 3.407023125000341E-002
