16

 C -2.31664615312500 -6.44596471250000 -2.22678999375000 
 C -1.08624315312500 -6.99196071250000 -1.63724799375000 
 C -2.34350115312500 -2.65124471250000 -2.47791399375000 
 C -1.11820615312500 -3.21471571250000 -1.99405699375000 
 N -0.142855153125003 -7.20956371250000 -2.53037499375000 
 N -2.28607115312500 -6.20665171250000 -3.52745899375000 
 N -2.82218215312500 -6.69670571250000 0.289235006249999 
 N -0.199671153125004 -3.40152971250000 -2.92605099375000 
 N -2.28532515312500 -2.25151571250000 -3.75361599375000 
 N -2.76447915312500 -3.16053571250000 -2.246799375000097E-002
 S -0.762289153125003 -6.77070071250000 -4.01746099375000 
 S -3.56774415312500 -6.40247471250000 -1.13392699375000 
 S -1.21065515312500 -7.17983171250000 7.054100624999893E-002
 S -0.873085153125004 -2.78151171250000 -4.34144999375000 
 S -3.49749215312500 -2.42514571250000 -1.23507699375000 
 S -1.16391915312500 -3.49288971250000 -0.260946993750001 
