16

 C -2.32724795625001 -6.24695294687500 -2.58052745937500 
 C -1.15677495625001 -6.80071494687500 -1.90661245937500 
 C -2.26632895625001 -2.90546594687500 -2.36247145937500 
 C -1.04555695625001 -3.57334794687500 -1.81560545937500 
 N -0.128838956250006 -7.10302594687500 -2.68191245937500 
 N -2.07328795625001 -5.97519694687500 -3.85911945937500 
 N -2.97233195625001 -6.68914494687500 -8.990945937499717E-002
 N -0.113631956250006 -3.60506194687500 -2.74267145937500 
 N -2.19138695625001 -2.49436994687500 -3.62908445937500 
 N -2.61396195625001 -3.25244094687500 0.145987540625003 
 S -0.539315956250006 -6.58420694687500 -4.21539645937500 
 S -3.67279695625001 -6.04227494687500 -1.47891045937500 
 S -1.35851695625001 -7.14106994687500 -0.167402459374997 
 S -0.668708956250006 -2.93273994687500 -4.15175045937500 
 S -3.46993595625001 -2.79663994687500 -1.15141145937500 
 S -1.06022095625001 -3.77861294687500 -0.115149459374997 
