16

 C -2.30673403125001 -6.50521315625000 -2.23241932500000 
 C -1.09879703125001 -6.96450215625000 -1.67152832500000 
 C -2.33680903125001 -2.57688415625000 -2.50937732500000 
 C -1.12380303125001 -3.26345515625000 -2.06130232500000 
 N -0.109385031250006 -7.17074415625000 -2.54766332500000 
 N -2.25556103125001 -6.26069915625000 -3.55849032500000 
 N -2.82698303125001 -6.66406115625000 0.333466675000001 
 N -0.186601031250006 -3.38753415625000 -2.98911432500000 
 N -2.35828203125001 -2.30610715625000 -3.81627332500000 
 N -2.69422903125001 -3.13587615625000 8.073067500000097E-002
 S -0.743743031250006 -6.68804015625000 -4.02216132500000 
 S -3.68735103125001 -6.51251815625000 -1.13695932500000 
 S -1.25933003125001 -7.14889715625000 0.113768675000001 
 S -0.872573031250005 -2.81417915625000 -4.40680232500000 
 S -3.55863503125001 -2.40815015625000 -1.21061832500000 
 S -1.11560103125001 -3.49259415625000 -0.260109324999999 
