16

 C -2.37259210000000 -6.45931844374999 -2.55931448437500 
 C -1.23262110000000 -6.83277644374999 -1.78407048437500 
 C -2.63009910000000 -2.84426144374999 -2.41263248437500 
 C -1.42550810000000 -3.18367144374999 -1.68975648437500 
 N -0.142330100000001 -6.90432744374999 -2.51492948437500 
 N -2.20623310000000 -6.41412544374999 -3.86154748437500 
 N -2.99489710000000 -6.53975644374999 2.843515624999293E-003
 N -0.344953100000001 -3.18354944374999 -2.43328648437500 
 N -2.40337610000000 -2.63179944374999 -3.69875148437500 
 N -3.34871610000000 -3.11052444374999 -5.468148437500076E-002
 S -0.570903100000001 -6.59941844374999 -4.07908448437500 
 S -3.75464110000000 -6.28019244374999 -1.46991648437500 
 S -1.37324710000000 -6.80680944374999 -0.112368484375001 
 S -0.793411100000001 -2.85885744374999 -4.02177448437500 
 S -3.99179910000000 -2.47197844374999 -1.43017548437500 
 S -1.67988210000000 -3.35767944374999 -3.643748437500083E-002
