16

 C -2.24233105937500 -6.39723668750000 -2.60682545312500 
 C -1.13543505937500 -7.03430968750000 -1.96129945312500 
 C -2.67925405937500 -2.50004868750000 -2.37550345312500 
 C -1.57017605937500 -2.97535868750000 -1.66229245312500 
 N -9.610405937500044E-002 -7.33004168750000 -2.73243945312500 
 N -2.07380005937500 -6.20942668750000 -3.92981745312500 
 N -2.80498805937500 -6.49622568750000 -8.079245312500127E-002
 N -0.539392059375000 -3.29642268750000 -2.41278645312500 
 N -2.49746905937500 -2.23998168750000 -3.65071845312500 
 N -3.37264605937500 -2.58928868750000 0.119198546874999 
 S -0.522119059375001 -6.81932568750000 -4.26545045312500 
 S -3.57316805937500 -6.14559068750000 -1.53061345312500 
 S -1.25082905937500 -7.11982868750000 -0.222894453125001 
 S -0.960464059375001 -2.88543268750000 -3.96636045312500 
 S -4.03721405937500 -2.17017568750000 -1.37128945312500 
 S -1.83058005937500 -3.08835768750000 4.529254687499873E-002
