16

 C -2.63309493125000 -6.32621580937500 -2.22140991250000 
 C -1.42573093125000 -6.88442680937500 -1.74562291250000 
 C -2.37478893125000 -2.66251280937500 -2.47992491250000 
 C -1.17085493125000 -3.21789080937500 -1.85487791250000 
 N -0.477516931250000 -7.16348180937500 -2.65172891250000 
 N -2.57719293125000 -6.08141180937500 -3.51667491250000 
 N -3.06991493125000 -6.73477780937500 0.228638087500002 
 N -0.189596931250000 -3.39413580937500 -2.72873291250000 
 N -2.22623393125000 -2.31414880937500 -3.72899291250000 
 N -2.93200393125000 -3.03712280937500 6.362087500002556E-003
 S -1.05474393125000 -6.49497880937500 -4.09399691250000 
 S -3.90112893125000 -6.11600380937500 -1.10469191250000 
 S -1.53421493125000 -7.25518680937500 -2.824091249999761E-002
 S -0.662961931250000 -2.82229280937500 -4.14931091250000 
 S -3.67959093125000 -2.46917180937500 -1.34132891250000 
 S -1.31732793125000 -3.39911780937500 -0.143674912499998 
