16

 C -2.66885482187500 -6.21688454999999 -2.49793442187500 
 C -1.50634982187500 -6.73047454999999 -1.84015242187500 
 C -2.20620782187500 -3.00723254999999 -2.25291142187500 
 C -0.914004821875001 -3.40926154999999 -1.69878242187500 
 N -0.430195821875001 -7.03128054999999 -2.58825242187500 
 N -2.40123982187500 -6.03795954999999 -3.79068342187500 
 N -3.36494482187500 -6.49681854999999 -2.305342187500070E-002
 N 5.749317812499832E-002 -3.38361354999999 -2.59797742187500 
 N -2.13052682187500 -2.70506954999999 -3.53862142187500 
 N -2.61595882187500 -3.44108554999999 0.217679578124999 
 S -0.905936821875001 -6.61645254999999 -4.12302542187500 
 S -4.03436082187500 -5.94308154999999 -1.43462742187500 
 S -1.79591182187500 -7.00339554999999 -0.144418421875001 
 S -0.563423821875001 -2.82927354999999 -4.03897542187500 
 S -3.54118882187500 -2.97399154999999 -1.11449542187500 
 S -1.00120382187500 -3.73791154999999 -1.158542187500067E-002
