16

 C -2.10103719062500 -6.50622623750000 -2.30315122500000 
 C -0.887487190625004 -6.96298923750000 -1.66224022500000 
 C -2.59084419062500 -2.59816923750000 -2.44806922500000 
 C -1.32233019062500 -2.91814323750000 -1.85650022500000 
 N 9.934580937499682E-002 -7.09929423750000 -2.51834722500000 
 N -2.03446419062500 -6.32632423750000 -3.62136622500000 
 N -2.64700819062500 -6.77227123750000 0.213176774999999 
 N -0.267284190625004 -3.17455723750000 -2.67263322500000 
 N -2.52380219062500 -2.47066123750000 -3.78803422500000 
 N -3.09157419062500 -2.70421723750000 8.233977499999923E-002
 S -0.486193190625004 -6.84379323750000 -4.05680722500000 
 S -3.45001319062500 -6.37898523750000 -1.15454222500000 
 S -1.06130219062500 -7.20134023750000 1.932677499999924E-002
 S -0.945470190625004 -2.76332123750000 -4.16735622500000 
 S -3.88126519062500 -2.41929023750000 -1.31973822500000 
 S -1.47022219062500 -3.01085723750000 -0.104427225000001 
