16

 C -2.51293759375000 -6.22434857187501 -2.54002254062500 
 C -1.41777559375000 -6.91899957187501 -1.86527654062500 
 C -2.61235359375000 -2.57157457187501 -2.44511054062500 
 C -1.47929459375000 -3.04782657187501 -1.70452854062500 
 N -0.338556593749999 -7.15203257187501 -2.59738454062500 
 N -2.19971359375000 -5.84856657187501 -3.78604254062500 
 N -3.18215259375000 -6.70218357187501 -3.986254062500016E-002
 N -0.340280593749999 -3.29604857187501 -2.42417654062500 
 N -2.36645959375000 -2.41458157187501 -3.73065554062500 
 N -3.42016059375000 -2.78986057187501 -3.220954062500025E-002
 S -0.735183593750000 -6.55024557187501 -4.08664354062500 
 S -3.83774459375000 -5.92550657187501 -1.38481454062500 
 S -1.63457559375000 -7.25123957187501 -0.155205540625000 
 S -0.839139593750000 -2.84916557187501 -4.05021954062500 
 S -3.92506059375000 -2.13240957187501 -1.43313054062500 
 S -1.81590559375000 -3.26439657187501 -1.238954062500008E-002
