16

 C -2.50544779062501 -6.48593906250000 -2.36449991250000 
 C -1.28722079062501 -6.92951806250000 -1.73262591250000 
 C -2.25385479062501 -2.94346306250000 -2.31120891250000 
 C -1.01877179062501 -3.42168406250000 -1.70443491250000 
 N -0.264312790625010 -7.00100206250000 -2.56423791250000 
 N -2.45890079062501 -6.35270806250000 -3.70305491250000 
 N -2.95599779062501 -6.64910406250000 0.227205087499999 
 N 1.944720937498978E-002 -3.56003106250000 -2.52276191250000 
 N -2.12476879062501 -2.71593706250000 -3.60361491250000 
 N -2.81846579062501 -3.40263306250000 0.181638087499999 
 S -0.879319790625010 -6.76645806250000 -4.13654091250000 
 S -3.80831079062501 -6.31603906250000 -1.10591791250000 
 S -1.37328879062501 -6.98960806250000 -6.725912500000764E-003
 S -0.548061790625010 -3.01540306250000 -3.99965891250000 
 S -3.58365679062501 -2.88512206250000 -1.19484691250000 
 S -1.19284879062501 -3.85204206250000 2.998087499999080E-003
