16

 C -2.33616847499999 -6.08008834687500 -2.22308148437500 
 C -1.15494847499999 -6.65387434687500 -1.62139248437500 
 C -2.62931047499999 -2.48283434687500 -2.59969048437500 
 C -1.38380247499999 -2.84023134687500 -1.95998148437500 
 N -0.183015474999991 -6.92952034687500 -2.49114148437500 
 N -2.25940847499999 -5.81361834687500 -3.54310948437500 
 N -2.74017747499999 -6.22705534687500 0.386209515624998 
 N -0.355226474999991 -3.04756934687500 -2.79444948437500 
 N -2.56520347499999 -2.40484334687500 -3.92513448437500 
 N -3.17290847499999 -2.41283534687500 -2.300748437500166E-002
 S -0.748170474999991 -6.44277434687500 -3.99400548437500 
 S -3.60370747499999 -5.83897534687500 -0.974950484375001 
 S -1.18801847499999 -6.88308534687500 0.107325515624998 
 S -1.00093747499999 -2.79869434687500 -4.32764448437500 
 S -3.96622447499999 -2.02153334687500 -1.45676548437500 
 S -1.54439547499999 -2.91726234687500 -0.164388484375001 
