16

 C -2.71041136875000 -6.69634184062500 -2.23863935625000 
 C -1.45279736875000 -7.17356884062500 -1.68461135625000 
 C -2.26202436875000 -2.93290984062500 -2.29243835625000 
 C -1.06563536875000 -3.42019884062500 -1.64698035625000 
 N -0.551097368749996 -7.49655984062500 -2.61587135625000 
 N -2.65791136875000 -6.52414584062500 -3.56402935625000 
 N -3.15389236875000 -7.01403984062500 0.292590643750000 
 N -2.987036874999571E-002 -3.52507384062500 -2.48990035625000 
 N -2.11420636875000 -2.75138484062500 -3.59538635625000 
 N -2.84312136875000 -3.18918684062500 0.184219643750000 
 S -1.15055836875000 -6.99714484062500 -4.08478135625000 
 S -3.88256636875000 -6.44663384062500 -1.08064635625000 
 S -1.54128036875000 -7.39940384062500 3.388464374999955E-002
 S -0.588023368749996 -3.23283084062500 -4.05020535625000 
 S -3.56974036875000 -2.58455984062500 -1.17266735625000 
 S -1.25021136875000 -3.62404684062500 3.160564374999963E-002
