16

 C -2.72792239375000 -6.39946543125000 -2.61301666562500 
 C -1.50452339375000 -6.82560543125000 -1.99818366562500 
 C -2.35643539375000 -2.91563443125000 -2.43184966562500 
 C -1.04475139375000 -3.22467743125000 -1.79737766562500 
 N -0.391115393749996 -6.91842743125000 -2.73239466562500 
 N -2.55718339375000 -6.13842543125000 -3.91389666562500 
 N -3.31616339375000 -6.65183143125000 -0.159058665625001 
 N -4.416939374999629E-002 -3.29120243125000 -2.68563466562500 
 N -2.35515039375000 -2.73426343125000 -3.76297066562500 
 N -2.68321639375000 -3.01142643125000 0.143779334374999 
 S -0.950265393749996 -6.38612243125000 -4.24123066562500 
 S -4.10263539375000 -6.35599443125000 -1.62223166562500 
 S -1.75747339375000 -7.22740643125000 -0.334930665625001 
 S -0.774404393749997 -3.04723143125000 -4.18002366562500 
 S -3.60386839375000 -2.67770243125000 -1.19969666562500 
 S -1.13478139375000 -3.48292643125000 -4.817266562500100E-002
