16

 C -2.36889104687499 -6.54453506562499 -2.49522061250000 
 C -1.14144004687499 -6.91712206562499 -1.85589761250000 
 C -2.68329604687499 -2.63288906562499 -2.36973361250000 
 C -1.55178104687499 -3.22139806562499 -1.73608761250000 
 N -0.132416046874993 -7.01648306562499 -2.72288261250000 
 N -2.34019804687499 -6.42646706562499 -3.82599161250000 
 N -2.91610504687499 -6.68366306562499 3.712538749999861E-002
 N -0.479256046874993 -3.42891706562499 -2.50172361250000 
 N -2.53173004687499 -2.42516906562499 -3.66885561250000 
 N -3.27474904687499 -2.81384606562499 0.155344387499999 
 S -0.761001046874993 -6.77943306562499 -4.23399761250000 
 S -3.70872604687499 -6.26405006562499 -1.37830061250000 
 S -1.31438104687499 -7.15413206562499 -0.173056612500001 
 S -1.05078004687499 -2.91686206562499 -4.01555261250000 
 S -3.96061904687499 -2.22678906562499 -1.28053861250000 
 S -1.71318504687499 -3.46514906562499 2.316638749999878E-002
