16

 C -2.31312079375000 -6.37761161875000 -2.17763832812500 
 C -1.12098379375000 -6.89246061875000 -1.51353832812500 
 C -2.36503879375000 -2.73311161875000 -2.68940832812500 
 C -1.17037379375000 -3.19167861875000 -1.98972532812500 
 N -0.112277793750003 -7.01379161875000 -2.37644732812500 
 N -2.10046679375000 -6.01966261875000 -3.47971032812500 
 N -2.84023579375000 -6.93905161875000 0.345909671874999 
 N -0.130216793750003 -3.39333661875000 -2.79998332812500 
 N -2.18834679375000 -2.54730061875000 -3.99598032812500 
 N -2.92972679375000 -2.74874461875000 -0.169424328125001 
 S -0.517122793750003 -6.28450861875000 -3.79951432812500 
 S -3.64650479375000 -6.30765361875000 -1.00499932812500 
 S -1.29734679375000 -7.33610061875000 8.184567187499914E-002
 S -0.660291793750003 -3.11404161875000 -4.34569532812500 
 S -3.68671679375000 -2.43776961875000 -1.62632632812500 
 S -1.28098779375000 -3.21844661875000 -0.254932328125001 
