16

 C -2.51308453125000 -6.21055002187500 -2.52923749375000 
 C -1.40523753125000 -6.93350202187500 -1.86725849375000 
 C -2.59367653125000 -2.56979702187500 -2.43237049375000 
 C -1.47125953125000 -3.03962202187500 -1.71161949375000 
 N -0.327397531250002 -7.16982902187500 -2.58688249375000 
 N -2.19113653125000 -5.85275202187500 -3.76804449375000 
 N -3.19509553125000 -6.69274102187500 -4.098449374999902E-002
 N -0.353047531250001 -3.29019602187500 -2.43874249375000 
 N -2.35729153125000 -2.39034102187500 -3.73467049375000 
 N -3.39767353125000 -2.77029002187500 -1.840749374999895E-002
 S -0.727369531250002 -6.54362302187500 -4.08794649375000 
 S -3.82694753125000 -5.92995302187500 -1.38449949375000 
 S -1.62754353125000 -7.24597102187500 -0.144105493749999 
 S -0.825129531250002 -2.85625702187500 -4.05253149375000 
 S -3.93128653125000 -2.12141702187500 -1.42694049375000 
 S -1.80161353125000 -3.24950002187500 -2.106649374999892E-002
