16

 C -2.39339560937499 -6.35921925625000 -2.42480854062500 
 C -1.14158660937499 -6.69962225625000 -1.81585354062500 
 C -2.35177860937499 -2.94835025625000 -2.42455254062500 
 C -1.06100760937499 -3.22477925625000 -1.77569054062500 
 N -0.150867609374993 -6.98758725625000 -2.65421254062500 
 N -2.36187860937499 -6.33372625625000 -3.73738554062500 
 N -2.89876860937499 -6.38571025625000 6.560745937500045E-002
 N -8.656560937499336E-002 -3.32136925625000 -2.65741554062500 
 N -2.27584860937499 -2.86794625625000 -3.73980454062500 
 N -2.75207260937499 -3.03103625625000 9.455745937500049E-002
 S -0.809708609374994 -6.72282425625000 -4.19898154062500 
 S -3.75294360937499 -6.26611925625000 -1.33929854062500 
 S -1.28785860937499 -6.89461025625000 -6.538354062499963E-002
 S -0.690838609374993 -3.20717725625000 -4.22181354062500 
 S -3.57071460937499 -2.71133725625000 -1.29351054062500 
 S -1.12717260937499 -3.48901025625000 -0.103891540624999 
