16

 C -2.51763037187500 -6.26206118125001 -2.48571115625000 
 C -1.33794837187500 -6.67440418125001 -1.81906015625000 
 C -2.44332237187500 -2.35436818125001 -2.33658815625000 
 C -1.30856237187500 -2.96755418125001 -1.72734715625000 
 N -0.293332371875000 -6.95781718125001 -2.53657415625000 
 N -2.31960737187500 -6.23199818125001 -3.76804815625000 
 N -3.08553437187500 -6.55313918125001 4.744384375000021E-002
 N -0.322469371875000 -3.08304318125001 -2.59040515625000 
 N -2.30904737187500 -2.07215118125001 -3.63009415625000 
 N -3.04965137187500 -2.90683618125001 4.861884375000014E-002
 S -0.724185371875000 -6.57759018125001 -4.09920015625000 
 S -3.80741937187500 -5.91140018125001 -1.36126215625000 
 S -1.45507637187500 -6.89899018125001 -7.017515624999993E-002
 S -0.808086371875000 -2.66761818125001 -4.11127515625000 
 S -3.69881837187500 -2.08358118125001 -1.24010915625000 
 S -1.38675737187500 -3.21016418125001 -3.421215624999996E-002
