16

 C -2.41772705937500 -6.64475027187500 -2.36361175625000 
 C -1.18822205937500 -6.97348427187500 -1.75686175625000 
 C -2.50686505937500 -2.82841627187500 -2.24785075625000 
 C -1.26297705937500 -3.27450527187500 -1.67317575625000 
 N -0.148517059375002 -7.17944027187500 -2.58259275625000 
 N -2.26822005937500 -6.50631727187500 -3.68667975625000 
 N -2.81934805937500 -6.63632927187500 0.139227243750001 
 N -0.379153059375001 -3.56204627187500 -2.61742375625000 
 N -2.54696005937500 -2.74767327187500 -3.57877675625000 
 N -2.89877005937500 -3.10484227187500 0.280786243750001 
 S -0.710348059375002 -7.00029127187500 -4.12084275625000 
 S -3.72351005937500 -6.39345327187500 -1.31071375625000 
 S -1.26406905937500 -7.34599227187500 -5.566675624999862E-002
 S -1.00848705937500 -3.08294027187500 -4.02875775625000 
 S -3.68824405937500 -2.61237627187500 -1.08405575625000 
 S -1.28705105937500 -3.22149627187500 4.210424375000144E-002
