16

 C -2.21778262500000 -6.42108090937500 -2.40318624062500 
 C -0.947888625000004 -6.72088790937500 -1.75796824062500 
 C -2.56914762500000 -2.64724090937500 -2.30697024062500 
 C -1.33422862500000 -3.04929190937500 -1.70596324062500 
 N 6.239537499999592E-002 -6.85016490937500 -2.60683724062500 
 N -2.19365262500000 -6.22930590937500 -3.70950324062500 
 N -2.69487362500000 -6.86306990937500 8.993675937500112E-002
 N -0.313368625000004 -3.22275590937500 -2.52639824062500 
 N -2.47631362500000 -2.49985690937500 -3.61209024062500 
 N -3.13963962500000 -3.04072690937500 0.162660759375001 
 S -0.575814625000004 -6.51911490937500 -4.09374024062500 
 S -3.50066862500000 -6.29810190937500 -1.25985224062500 
 S -1.04723962500000 -7.01462990937500 -7.666024062499899E-002
 S -0.883922625000004 -2.87697390937500 -4.05823524062500 
 S -3.89037162500000 -2.53490390937500 -1.24734124062500 
 S -1.46869462500000 -3.28536090937500 3.830759375001103E-003
