16

 C -2.12754925312500 -6.04965386250000 -2.61490194062500 
 C -1.01796525312500 -6.58049386250000 -1.82687294062500 
 C -2.37807725312500 -2.76311186250000 -2.54264594062500 
 C -1.13187425312500 -3.12229086250000 -1.88019194062500 
 N 3.561874687500399E-002 -6.90631486250000 -2.54771594062500 
 N -1.90863125312500 -5.97643686250000 -3.91716594062500 
 N -3.00045625312500 -6.29744386250000 -0.193938940624999 
 N -8.450725312499596E-002 -3.28081686250000 -2.69981794062500 
 N -2.31643725312500 -2.71114786250000 -3.86794494062500 
 N -3.02041525312500 -2.92981586250000 -1.140094062499886E-002
 S -0.362818253124995 -6.59393486250000 -4.18346894062500 
 S -3.65146025312500 -5.84719286250000 -1.64151094062500 
 S -1.42771825312500 -6.84964686250000 -0.164805940624999 
 S -0.742228253124996 -3.04156286250000 -4.22842394062500 
 S -3.75450125312500 -2.76251186250000 -1.45756294062500 
 S -1.33815825312500 -3.31081886250000 -0.109652940624999 
