16

 C -2.54359101874999 -6.36260246875001 -2.27866275937500 
 C -1.29420001874999 -6.86082946875001 -1.66176375937500 
 C -2.57815101874999 -3.09715046875001 -2.40113175937500 
 C -1.32022501874999 -3.36002446875001 -1.77065675937500 
 N -0.309909018749992 -7.05518046875001 -2.56976775937500 
 N -2.42342401874999 -6.12849446875001 -3.59593275937500 
 N -3.12674801874999 -6.56649846875001 0.261901240625001 
 N -0.270230018749992 -3.42155646875001 -2.59005275937500 
 N -2.50142101874999 -3.03361146875001 -3.72860875937500 
 N -3.08656101874999 -3.10401146875001 0.136591240625001 
 S -0.915898018749992 -6.66836546875001 -4.08311675937500 
 S -3.90161901874999 -6.11926046875001 -1.13173975937500 
 S -1.47620901874999 -7.09289546875001 9.974624062500115E-002
 S -0.856866018749992 -3.14711746875001 -4.13167775937500 
 S -3.93923401874999 -2.96311246875001 -1.28359275937500 
 S -1.46144901874999 -3.47339946875001 -3.781375937499876E-002
