16

 C -2.56993018437500 -6.72197987187501 -2.37559455312500 
 C -1.26784518437500 -6.81033787187501 -1.77865455312500 
 C -2.34795118437500 -2.59962987187501 -2.40559555312500 
 C -1.26349318437500 -3.24654287187501 -1.69741455312500 
 N -0.231776184375000 -6.85577287187501 -2.59249355312500 
 N -2.50968518437500 -6.58471587187501 -3.69243355312500 
 N -2.96252418437500 -6.88885587187501 0.169607446875000 
 N -0.208758184374999 -3.50256887187501 -2.48389455312500 
 N -2.17368818437500 -2.48499387187501 -3.73382955312500 
 N -3.20829818437500 -3.06305687187501 -3.754355312500013E-002
 S -0.900565184375000 -6.77180387187501 -4.09615655312500 
 S -3.83419518437500 -6.78372387187501 -1.21867755312500 
 S -1.28472618437500 -7.09955187187501 -2.737655312500009E-002
 S -0.631784184374999 -3.00856187187501 -4.01576255312500 
 S -3.81722218437500 -2.40380587187501 -1.43075555312500 
 S -1.59812318437500 -3.55230587187501 -1.838255312500015E-002
