16

 C -2.47072108750000 -6.44742050937500 -2.56917670625000 
 C -1.25025608750000 -6.77853550937500 -1.87658670625000 
 C -2.37473908750000 -2.62485650937500 -2.47140270625000 
 C -1.16590308750000 -3.02634950937500 -1.77268070625000 
 N -0.131577087500001 -6.84450150937500 -2.61465270625000 
 N -2.29693508750000 -6.25716650937500 -3.87668270625000 
 N -3.09251208750000 -6.60260350937500 -6.531870625000247E-002
 N -0.127972087500002 -3.27850250937500 -2.57556670625000 
 N -2.26148708750000 -2.49683750937500 -3.81089370625000 
 N -3.04877408750000 -2.79074550937500 8.553929374999769E-002
 S -0.621229087500001 -6.50681850937500 -4.16726670625000 
 S -3.85583408750000 -6.32593550937500 -1.46961870625000 
 S -1.47531208750000 -7.03173750937500 -0.115679706250002 
 S -0.747301087500001 -2.99772350937500 -4.12492270625000 
 S -3.72515208750000 -2.29855350937500 -1.30986870625000 
 S -1.41452408750000 -3.15233350937500 -2.182270625000227E-002
