16

 C -2.43145921875000 -6.73933764375000 -2.39881467812500 
 C -1.10029621875000 -7.03378564375000 -1.94129567812500 
 C -2.55863621875000 -2.90503664375000 -2.46083767812500 
 C -1.35309121875000 -3.44604164375000 -1.76614767812500 
 N -0.209247218749995 -7.10423764375000 -2.90189367812500 
 N -2.55152321875000 -6.54561564375000 -3.71142267812500 
 N -2.62812221875000 -7.13593964375000 9.605732187499849E-002
 N -0.324573218749996 -3.60566164375000 -2.58469167812500 
 N -2.35866221875000 -2.74165164375000 -3.78208567812500 
 N -3.16374821875000 -3.12462064375000 -1.760967812500147E-002
 S -1.01131221875000 -6.74686064375000 -4.35270667812500 
 S -3.68962021875000 -6.73980764375000 -1.17553967812500 
 S -1.02525621875000 -7.36249164375000 -0.242293678125002 
 S -0.755232218749995 -3.16664964375000 -4.05531067812500 
 S -3.89016921875000 -2.58972364375000 -1.44666667812500 
 S -1.61879621875000 -3.75833564375000 -8.082367812500157E-002
