16

 C -2.59750000000000 -6.68221122812499 -2.39796191875000 
 C -1.39488300000000 -7.09804622812499 -1.74777091875000 
 C -2.47514600000000 -2.88834722812499 -2.38165891875000 
 C -1.22822800000000 -3.36067122812499 -1.80890291875000 
 N -0.328044000000004 -7.22986122812499 -2.51734591875000 
 N -2.45795000000000 -6.51824222812499 -3.70962691875000 
 N -3.08340200000000 -6.88560522812499 0.155483081249999 
 N -0.309045000000004 -3.62988022812499 -2.74201291875000 
 N -2.47630100000000 -2.62630922812499 -3.67995191875000 
 N -2.91789100000000 -3.21070622812499 0.167537081249999 
 S -0.816269000000004 -6.78417922812499 -4.02222691875000 
 S -3.92503600000000 -6.53525422812499 -1.24662791875000 
 S -1.49037100000000 -7.27563222812499 -1.162191875000085E-002
 S -0.939126000000004 -3.14252322812499 -4.15560391875000 
 S -3.76394100000000 -2.65482322812499 -1.15421291875000 
 S -1.34251500000000 -3.52157522812499 -5.590591875000106E-002
