16

 C -2.45933890624999 -6.39413491875000 -2.17012719062500 
 C -1.20362790624999 -6.84378891875000 -1.60221519062500 
 C -2.19441590624999 -2.61432791875000 -2.59148019062500 
 C -1.00639090624999 -3.03723791875000 -1.85233719062500 
 N -0.222739906249994 -7.00492991875000 -2.45140619062500 
 N -2.26296390624999 -6.08738291875000 -3.45552919062500 
 N -2.84240690624999 -6.81729891875000 0.407706809374999 
 N 7.586409375000613E-002 -3.25886191875000 -2.61068919062500 
 N -2.01572390624999 -2.58775291875000 -3.88908619062500 
 N -2.95743790624999 -2.83619091875000 -0.162289190625001 
 S -0.775162906249994 -6.62217391875000 -3.96631319062500 
 S -3.75361790624999 -6.45592291875000 -0.979970190625001 
 S -1.33915390624999 -7.45214091875000 1.798980937499906E-002
 S -0.428894906249994 -2.95204091875000 -4.17714419062500 
 S -3.60592990624999 -2.30456991875000 -1.61537319062500 
 S -1.32905390624999 -3.11859491875000 -0.211994190625001 
