16

 C -2.76216546874999 -6.38113231249999 -2.48279883750000 
 C -1.60029546874999 -6.84356531249999 -1.77550783750000 
 C -2.21896346874999 -2.88429631249999 -2.23249583750000 
 C -1.02044546874999 -3.28747431249999 -1.65140483750000 
 N -0.562346468749995 -7.02590031249999 -2.57858983750000 
 N -2.58532846874999 -6.07650931249999 -3.76356883750000 
 N -3.42797346874999 -6.49280431249999 2.009916249999910E-002
 N 5.099531250005285E-003 -3.42858331249999 -2.48185383750000 
 N -2.15841446874999 -2.71258731249999 -3.54019683750000 
 N -2.71844546874999 -3.22727831249999 0.245011162499999 
 S -1.04270346874999 -6.49295831249999 -4.07667883750000 
 S -4.10769446874999 -6.05594231249999 -1.43137683750000 
 S -1.86929246874999 -7.01984531249999 -7.869783750000114E-002
 S -0.581874468749994 -2.99461131249999 -3.97385783750000 
 S -3.55119346874999 -2.96663931249999 -1.15330483750000 
 S -1.12613646875000 -3.54563231249999 7.831316249999909E-002
