16

 C -2.44377685312500 -6.68750238750000 -2.28981651250000 
 C -1.20628585312500 -6.91336338750000 -1.62882251250000 
 C -2.35693485312500 -2.61362838750000 -2.51032351250000 
 C -1.10951585312500 -3.18969638750000 -2.03743751250000 
 N -0.119699853125001 -6.84895538750000 -2.38945351250000 
 N -2.31655985312500 -6.47706938750000 -3.61135751250000 
 N -2.92359785312500 -6.81840838750000 0.284693487500001 
 N -0.167069853125001 -3.29769238750000 -2.93782751250000 
 N -2.42325285312500 -2.46860338750000 -3.83454451250000 
 N -2.59641285312500 -2.91762138750000 4.357148750000128E-002
 S -0.723084853125001 -6.57792038750000 -3.88536451250000 
 S -3.73307085312500 -6.61919438750000 -1.18366851250000 
 S -1.29002885312500 -7.07764638750000 6.594448750000126E-002
 S -0.894441853125001 -2.98065138750000 -4.36175251250000 
 S -3.51479185312500 -2.42732638750000 -1.28619051250000 
 S -1.09973385312500 -3.48564438750000 -0.343676512499999 
