16

 C -2.35069456562500 -6.60636956250000 -2.40834777500000 
 C -1.11871256562500 -7.04794256250000 -1.73073677500000 
 C -2.48203156562500 -2.82925556250000 -2.24104977500000 
 C -1.22072756562500 -3.22100956250000 -1.69452577500000 
 N -0.124063565625004 -7.21376256250000 -2.57158977500000 
 N -2.26658956562500 -6.45018456250000 -3.71859277500000 
 N -2.85066456562500 -6.57873356250000 0.114767224999999 
 N -0.320870565625004 -3.53630556250000 -2.60063077500000 
 N -2.51750156562500 -2.70839456250000 -3.54002777500000 
 N -2.90051856562500 -3.05473356250000 0.280539224999999 
 S -0.716442565625004 -6.94695956250000 -4.08637577500000 
 S -3.70934856562500 -6.38785656250000 -1.28558477500000 
 S -1.26123656562500 -7.36706256250000 -3.295877500000111E-002
 S -1.01635456562500 -3.15386156250000 -4.04103877500000 
 S -3.69857356562500 -2.66760356250000 -1.09504277500000 
 S -1.26782156562500 -3.18997456250000 1.771422499999886E-002
