16

 C -2.37371040000000 -6.63221262500001 -2.48644249062500 
 C -1.14755840000000 -7.07429462500001 -1.91011749062500 
 C -2.40871140000000 -2.96333562500001 -2.51725649062500 
 C -1.23393640000000 -3.47700062500001 -1.80502749062500 
 N -6.963340000000162E-002 -7.13089662500001 -2.68983649062500 
 N -2.24754740000000 -6.26753062500001 -3.76085449062500 
 N -2.85756440000000 -7.01639862500001 2.413150937500030E-002
 N -0.195824400000001 -3.75789762500001 -2.61705349062500 
 N -2.21380340000000 -2.70226162500001 -3.79925749062500 
 N -3.06420540000000 -3.21474562500001 -2.586949062499988E-002
 S -0.658255400000002 -6.58177762500001 -4.16619749062500 
 S -3.69251740000000 -6.62142562500001 -1.40591649062500 
 S -1.26674240000000 -7.35757262500001 -0.224952490625000 
 S -0.674164400000001 -3.27797162500001 -4.06292749062500 
 S -3.72957840000000 -2.67032962500001 -1.49971849062500 
 S -1.50006140000000 -3.71048262500001 -0.155634490625000 
