16

 C -2.44913727187500 -6.36668554374999 -2.41073313125000 
 C -1.26687527187500 -6.95704154374999 -1.78419213125000 
 C -2.66140127187500 -2.86281654374999 -2.42958913125000 
 C -1.52699127187500 -3.44057754374999 -1.71947813125000 
 N -0.393958271875001 -7.34955254374999 -2.71118013125000 
 N -2.45430227187500 -6.21315654374999 -3.76959213125000 
 N -3.04343727187500 -6.60258454374999 0.154231868750000 
 N -0.453932271875002 -3.64785454374999 -2.48428913125000 
 N -2.42136927187500 -2.66666754374999 -3.71587613125000 
 N -3.20818027187500 -2.69539654374999 0.111643868750000 
 S -1.00749127187500 -6.89121154374999 -4.20646413125000 
 S -3.84461627187500 -6.09411654374999 -1.30451313125000 
 S -1.51506527187500 -7.30991154374999 -4.722013124999980E-002
 S -0.898324271875001 -3.18559454374999 -4.02355713125000 
 S -3.93457227187500 -2.40651654374999 -1.36573813125000 
 S -1.69495527187500 -3.35153154374999 3.872186875000039E-002
