16

 C -2.44109983750000 -6.41272237500000 -2.48021501562500 
 C -1.22911983750000 -6.85620537500000 -1.82831001562500 
 C -2.46911783750000 -2.49126637500000 -2.17831401562500 
 C -1.24962383750000 -2.97813937500000 -1.58577001562500 
 N -0.162904837499998 -7.01379937500000 -2.62382501562500 
 N -2.23455983750000 -6.21283037500000 -3.78847801562500 
 N -3.02157183750000 -6.59221437500000 6.409498437499961E-002
 N -0.269500837499997 -3.11700437500000 -2.47837801562500 
 N -2.50231783750000 -2.42229937500000 -3.53233501562500 
 N -2.94242883750000 -2.92653537500000 0.346347984375000 
 S -0.681460837499997 -6.64195037500000 -4.17654401562500 
 S -3.71864983750000 -6.08578137500000 -1.35453001562500 
 S -1.41800083750000 -7.08873237500000 -7.141701562500025E-002
 S -0.964968837499997 -2.83284837500000 -3.95864601562500 
 S -3.75293883750000 -2.35535537500000 -0.949974015625001 
 S -1.35260683750000 -3.38927437500000 0.113577984375000 
