16

 C -2.18901976250000 -6.26267715625000 -2.30859774687500 
 C -0.959796762499999 -6.80573815625000 -1.73968274687500 
 C -2.76601076250000 -2.53858515625000 -2.48794774687500 
 C -1.55458176250000 -3.00552215625000 -1.87743674687500 
 N -2.655176249999958E-002 -6.94262115625000 -2.66621974687500 
 N -2.13842576250000 -6.09536515625000 -3.63576674687500 
 N -2.57759576250000 -6.67885515625000 0.232788253124999 
 N -0.538388762499999 -3.08566415625000 -2.69056274687500 
 N -2.67297876250000 -2.34965315625000 -3.77916174687500 
 N -3.39077176250000 -2.92278015625000 -4.473474687500101E-002
 S -0.601207762500000 -6.47312015625000 -4.12991974687500 
 S -3.46325476250000 -6.21778715625000 -1.11908674687500 
 S -1.03715076250000 -7.20443915625000 -6.505274687500107E-002
 S -1.11570976250000 -2.64811215625000 -4.23057274687500 
 S -4.10630976250000 -2.34247115625000 -1.39968574687500 
 S -1.80757876250000 -3.33488815625000 -0.202323746875001 
