16

 C -2.31063320000000 -7.01399650937501 -2.46088848750000 
 C -1.17830420000000 -7.46348350937501 -1.65082348750000 
 C -2.86180220000000 -2.87966050937501 -2.34022348750000 
 C -1.68913920000000 -3.60898850937501 -1.78167648750000 
 N -8.491119999999519E-002 -7.50679950937501 -2.43497948750000 
 N -2.17943920000000 -6.81396250937501 -3.78147848750000 
 N -2.96386220000000 -6.76778550937501 8.059351250000013E-002
 N -0.693540199999995 -3.93392150937501 -2.64256548750000 
 N -2.68628020000000 -2.63592850937501 -3.64785148750000 
 N -3.34126620000000 -3.10964250937501 0.169527512500000 
 S -0.525168199999995 -7.07644950937501 -3.97308248750000 
 S -3.66967820000000 -6.48567850937501 -1.43797148750000 
 S -1.40207620000000 -7.42164550937501 7.622251250000001E-002
 S -1.28331919999999 -3.43448250937501 -4.16937848750000 
 S -4.08627120000000 -2.45874850937501 -1.21131348750000 
 S -1.79132120000000 -3.80625350937501 -2.327248749999988E-002
