16

 C -2.40028263437500 -6.37206520937501 -2.58020856875000 
 C -1.28499663437500 -6.77961420937500 -1.78080456875000 
 C -2.33548163437500 -2.60644620937501 -2.40691756875000 
 C -1.20876263437501 -3.24664420937501 -1.82496456875000 
 N -0.191557634375005 -6.92886220937500 -2.49740956875000 
 N -2.19098463437501 -6.21942720937500 -3.90387256875000 
 N -3.26461863437500 -6.67287220937501 -0.151639568750000 
 N -0.251212634375005 -3.68827520937501 -2.63781756875000 
 N -2.12861463437500 -2.38548320937501 -3.69328056875000 
 N -2.97302363437500 -2.85133220937500 5.577943124999996E-002
 S -0.639129634375005 -6.70731020937500 -4.04192956875000 
 S -3.87137863437500 -6.13752820937500 -1.61164856875000 
 S -1.58786663437500 -6.87988820937501 -0.110338568750000 
 S -0.678382634375005 -3.04830620937500 -4.12610256875000 
 S -3.69265163437500 -2.27377020937501 -1.37022856875000 
 S -1.43252563437501 -3.35592020937500 -4.339556875000006E-002
