16

 C -2.47832757499999 -6.86798600625000 -2.31027875000000 
 C -1.12592657499999 -7.20416400625000 -1.84069475000000 
 C -2.63049957499999 -2.82071300625000 -2.43174175000000 
 C -1.38904657499999 -3.30658200625000 -1.75503175000000 
 N -0.255077574999993 -7.32172100625000 -2.85146075000000 
 N -2.57598757499999 -6.69756200625000 -3.61927975000000 
 N -2.63159357499999 -6.88271400625000 0.228998250000000 
 N -0.384788574999994 -3.55996100625000 -2.59264975000000 
 N -2.48696157499999 -2.55580300625000 -3.70814575000000 
 N -3.22512257499999 -3.27734500625000 -1.098975000000046E-002
 S -1.10371357499999 -6.97019400625000 -4.23053575000000 
 S -3.71795457499999 -6.80213600625000 -1.05668175000000 
 S -1.01199657499999 -7.36797200625000 -0.130463750000001 
 S -0.973733574999994 -3.00771300625000 -4.10272375000000 
 S -3.94318757499999 -2.59025400625000 -1.38468775000000 
 S -1.55679357499999 -3.59740300625000 -6.596475000000046E-002
