16

 C -2.47694700000000 -6.60367232812501 -2.44288245312500 
 C -1.18570900000000 -6.95383632812501 -1.93394145312500 
 C -2.62038800000000 -2.76643632812501 -2.52419945312500 
 C -1.45893600000000 -3.26681632812500 -1.80564445312500 
 N -0.233374999999995 -6.95597532812500 -2.86941145312500 
 N -2.60693900000000 -6.34533232812501 -3.73414845312500 
 N -2.88099700000000 -6.89243232812501 7.522454687499947E-002
 N -0.359401999999996 -3.51851732812501 -2.51610545312500 
 N -2.41998100000000 -2.74500932812500 -3.82362645312500 
 N -3.29419200000000 -2.68028732812501 -7.465545312500055E-002
 S -1.04663000000000 -6.55958832812501 -4.31869045312500 
 S -3.73861800000000 -6.46735732812501 -1.27364645312500 
 S -1.31998400000000 -7.38655732812501 -0.259819453125000 
 S -0.856225999999996 -3.25749132812501 -4.08415845312500 
 S -3.91532100000000 -2.15757332812501 -1.51147345312500 
 S -1.71072400000000 -3.24016332812501 -7.248645312500024E-002
