16

 C -2.36332648124999 -6.47815974687500 -2.20000641250000 
 C -1.06547648124999 -6.90663574687500 -1.72072741250000 
 C -2.46430348124999 -2.77853274687500 -2.48158141250000 
 C -1.34978948124999 -3.36148074687500 -1.83583241250000 
 N -0.106451481249993 -6.96357974687500 -2.63252241250000 
 N -2.40487448124999 -6.20400274687500 -3.50753541250000 
 N -2.62472748124999 -6.61724674687500 0.301356587499998 
 N -0.258845481249992 -3.44929474687500 -2.56675041250000 
 N -2.27978848124999 -2.52552074687500 -3.78950741250000 
 N -3.03518348124999 -2.77525174687500 4.388758749999777E-002
 S -0.838395481249992 -6.47976874687500 -4.06585341250000 
 S -3.46844848124999 -6.07097674687500 -1.00075741250000 
 S -1.01000248124999 -7.09928474687500 4.491258749999782E-002
 S -0.748247481249992 -3.05535274687500 -4.11127541250000 
 S -3.77230548124999 -2.35309274687500 -1.38710941250000 
 S -1.46857548124999 -3.38649474687500 -0.133752412500002 
