16

 C -2.41908705000000 -6.52284152500000 -2.42965195312500 
 C -1.31112005000000 -7.02121452500000 -1.67260495312500 
 C -2.36128905000000 -2.78128052500000 -2.55363095312500 
 C -1.15619705000000 -3.29856252500000 -1.86609095312500 
 N -0.259633050000002 -7.33790352500000 -2.42693695312500 
 N -2.17102205000000 -6.45861952500000 -3.73178495312500 
 N -3.30356305000000 -6.71809252500000 -3.721995312499904E-002
 N -0.157503050000003 -3.53212352500000 -2.65839495312500 
 N -2.12016905000000 -2.56910852500000 -3.84266595312500 
 N -3.00583205000000 -3.01995652500000 -3.860395312499931E-002
 S -0.609082050000002 -6.97234552500000 -3.99764595312500 
 S -3.84160205000000 -6.11951652500000 -1.49637195312500 
 S -1.68065405000000 -7.19734352500000 4.940204687500072E-002
 S -0.572275050000003 -3.01794552500000 -4.25184095312500 
 S -3.72637505000000 -2.71475252500000 -1.47510995312500 
 S -1.36433405000000 -3.51479052500000 -0.149859953124999 
