16

 C -2.65316459375000 -6.40650300937500 -2.48866536250000 
 C -1.34182159375000 -6.81036100937500 -2.08421436250000 
 C -2.70210559375000 -3.04153400937500 -2.34194936250000 
 C -1.53036859375000 -3.48170700937500 -1.57374336250000 
 N -0.454883593750001 -6.91688200937500 -3.02515536250000 
 N -2.67135559375000 -6.14824100937500 -3.75929936250000 
 N -2.80892659375000 -6.62653100937500 2.076063750000312E-002
 N -0.517175593750001 -3.78140100937500 -2.38135836250000 
 N -2.50697059375000 -2.89924900937500 -3.64578536250000 
 N -3.37193659375000 -3.17427000937500 0.135475637500003 
 S -1.21151859375000 -6.59513400937500 -4.46650936250000 
 S -3.80980059375000 -6.18668000937500 -1.31070836250000 
 S -1.27739359375000 -7.16153800937500 -0.379456362499997 
 S -0.875650593750001 -3.19930200937500 -3.88548436250000 
 S -4.06182759375000 -2.69841800937500 -1.33472536250000 
 S -1.70632059375000 -3.33448400937500 0.140344637500003 
