16

 C -2.54480049375000 -6.35285851250000 -2.53449188437500 
 C -1.28977349375000 -6.64087251250000 -1.87574588437500 
 C -2.41782549375000 -2.83399851250000 -2.59427088437500 
 C -1.21049549375000 -3.05641451250000 -1.84957388437500 
 N -0.238984493750001 -6.78252051250000 -2.63407188437500 
 N -2.36148249375000 -6.22737751250000 -3.83933588437500 
 N -3.07974049375000 -6.54530451250000 -6.415088437500116E-002
 N -0.173415493750001 -3.29937951250000 -2.60328188437500 
 N -2.36249349375000 -2.96659951250000 -3.89941188437500 
 N -2.98454049375000 -2.69839951250000 -1.641188437500118E-002
 S -0.743618493750001 -6.45601251250000 -4.17226588437500 
 S -3.85446549375000 -6.14834751250000 -1.47699788437500 
 S -1.40309149375000 -6.76571151250000 -0.133736884375001 
 S -0.691993493750001 -3.22089751250000 -4.22117288437500 
 S -3.74609949375000 -2.57682051250000 -1.47086188437500 
 S -1.36767749375000 -3.15357551250000 -0.102905884375001 
