16

 C -2.38954501250000 -6.47333063437500 -2.55131453437500 
 C -1.13840601250000 -6.85556063437500 -1.86568553437500 
 C -2.51632401250000 -2.54480963437500 -2.38179653437500 
 C -1.34631801250000 -3.10498963437500 -1.62979753437500 
 N -0.105882012500000 -6.90640263437500 -2.72480953437500 
 N -2.27302301250000 -6.26735063437500 -3.87085453437500 
 N -3.00006701250000 -6.88255163437500 -5.674353437499935E-002
 N -0.268714012499999 -3.40717563437500 -2.37731953437500 
 N -2.33269601250000 -2.48958163437500 -3.69242953437500 
 N -3.29391901250000 -2.80367263437500 2.469746562500075E-002
 S -0.695499012500000 -6.53877963437500 -4.20368553437500 
 S -3.77145401250000 -6.56099163437500 -1.50988353437500 
 S -1.30536701250000 -7.28124963437500 -0.201592534374999 
 S -0.809813012499999 -3.04414963437500 -3.91516053437500 
 S -3.90976701250000 -2.26507663437500 -1.40697253437500 
 S -1.64036401250000 -3.21030263437500 5.791446562500080E-002
