16

 C -2.36952817187500 -6.37325535000000 -2.27211253750000 
 C -1.12471017187500 -6.85245835000000 -1.66811253750000 
 C -2.38294417187500 -2.73207035000000 -2.47750153750000 
 C -1.18769517187500 -3.12714535000000 -1.82881453750000 
 N -7.699217187500107E-002 -6.95066035000000 -2.52141353750000 
 N -2.29518117187500 -6.11123635000000 -3.56631653750000 
 N -2.93763617187500 -6.75186835000000 0.279248462499999 
 N -0.164930171875001 -3.09579835000000 -2.68593353750000 
 N -2.32452717187500 -2.37151835000000 -3.76984753750000 
 N -2.98160817187500 -3.12889735000000 -2.640453750000082E-002
 S -0.710515171875001 -6.46267335000000 -4.00973653750000 
 S -3.63737417187500 -6.24295935000000 -1.12558053750000 
 S -1.31287817187500 -7.20783035000000 0.102015462499999 
 S -0.746344171875001 -2.70888835000000 -4.21652253750000 
 S -3.77896317187500 -2.57439835000000 -1.41255253750000 
 S -1.32216317187500 -3.48242035000000 -0.110312537500001 
