16

 C -2.30119468750001 -6.49232317500000 -2.42996614062500 
 C -1.05509768750001 -6.89281417500000 -1.86947114062500 
 C -2.40231568750001 -2.49983117500000 -2.43166514062500 
 C -1.28929368750001 -3.22148717500000 -1.91979614062500 
 N -0.178496687500009 -7.31063117500000 -2.77947914062500 
 N -2.37861368750001 -6.45923217500000 -3.77944914062500 
 N -2.63225468750001 -6.44388717500000 0.186735859375002 
 N -0.371026687500009 -3.59786417500000 -2.79093214062500 
 N -2.36626668750001 -2.36412417500000 -3.75981614062500 
 N -3.05437968750001 -3.02500317500000 -2.791406249977868E-004
 S -0.805018687500008 -6.94569417500000 -4.31810114062500 
 S -3.53648368750001 -6.21000617500000 -1.13603414062500 
 S -1.02385268750001 -6.89829817500000 -0.114690140624998 
 S -0.927129687500009 -3.02382817500000 -4.26284514062500 
 S -3.70928868750001 -2.35643317500000 -1.36892714062500 
 S -1.43270068750001 -3.38369217500000 -0.194351140624998 
