16

 C -2.42888565625000 -6.84904525000001 -2.37854919687500 
 C -1.06872665625000 -6.99785525000001 -1.87876519687500 
 C -2.45590265625000 -2.67067225000001 -2.42591219687500 
 C -1.33892365625000 -3.32381625000001 -1.72936619687500 
 N -0.119287656249997 -6.99730925000001 -2.83168119687500 
 N -2.47284265625000 -6.64409025000001 -3.70097519687500 
 N -2.69390065625000 -7.03684725000001 0.183535803125001 
 N -0.274719656249998 -3.57448525000001 -2.50006719687500 
 N -2.24552165625000 -2.47702725000001 -3.72151519687500 
 N -3.25821065625000 -2.99172525000001 3.189280312500120E-002
 S -0.924332656249998 -6.68566225000001 -4.26750219687500 
 S -3.64008865625000 -6.77950425000001 -1.12519619687500 
 S -1.05721965625000 -7.01128525000001 -0.147863196874999 
 S -0.753085656249998 -3.07682725000001 -4.02433019687500 
 S -3.87149265625000 -2.52679825000001 -1.41072619687500 
 S -1.65292365625000 -3.42270325000001 -2.922519687499880E-002
