16

 C -2.50251774687500 -6.48989238125000 -2.38157942500000 
 C -1.32324374687500 -6.98282438125000 -1.74118542500000 
 C -2.56524374687500 -2.71973338125000 -2.50800242500000 
 C -1.33523774687500 -3.16901538125000 -1.82655842500000 
 N -0.328405746874997 -7.18483338125000 -2.56853542500000 
 N -2.35355374687500 -6.27183238125000 -3.67415442500000 
 N -3.11024174687500 -6.80510738125000 0.107267575000001 
 N -0.254124746874997 -3.27231838125000 -2.58915342500000 
 N -2.31853774687500 -2.49594838125000 -3.80397642500000 
 N -3.18614974687500 -2.99033038125000 -4.043042499999894E-002
 S -0.850582746874997 -6.72216638125000 -4.05719742500000 
 S -3.86827774687500 -6.44583438125000 -1.31212742500000 
 S -1.52475174687500 -7.17530138125000 -7.719442499999896E-002
 S -0.740829746874997 -2.91542938125000 -4.12670342500000 
 S -3.94122974687500 -2.66137838125000 -1.51353442500000 
 S -1.56216174687500 -3.31844938125000 -0.137870424999999 
