16

 C -2.45817453749999 -6.44458666874999 -2.34389064062500 
 C -1.12628353749999 -6.84267766874999 -1.79937864062500 
 C -2.55487853749999 -2.81765666874999 -2.41525364062500 
 C -1.35543353749999 -3.21565366874999 -1.67931864062500 
 N -8.727053749999225E-002 -6.91593366874999 -2.62939064062500 
 N -2.36742353749999 -6.18975166874999 -3.63442064062500 
 N -2.75905653749999 -6.85006566874999 0.216301359375000 
 N -0.297667537499993 -3.44612366874999 -2.48251964062500 
 N -2.40792753749999 -2.64344766874999 -3.73657664062500 
 N -3.20122053749999 -2.93872266874999 3.184935937499977E-002
 S -0.814185537499992 -6.58443766874999 -4.10778864062500 
 S -3.70689953749999 -6.45454466874999 -1.10551764062500 
 S -1.16501053749999 -7.17086766874999 -9.613464062500032E-002
 S -0.825232537499992 -3.03889966874999 -4.03581664062500 
 S -3.88410453749999 -2.40822066874999 -1.35830264062500 
 S -1.60438853749999 -3.44931566874999 2.917135937499982E-002
