16

 C -2.30982982499999 -6.35896921875000 -2.50080304062500 
 C -1.13411082499999 -6.82860021875000 -1.72277404062500 
 C -2.72150482499999 -2.49333421875000 -2.45176604062500 
 C -1.47109282499999 -2.83755221875000 -1.83041604062500 
 N -2.675582499999241E-002 -7.00526321875000 -2.44181004062500 
 N -2.08076382499999 -6.16452821875000 -3.81072504062500 
 N -3.08126782499999 -6.45291121875000 -5.578104062500122E-002
 N -0.372502824999993 -2.84750521875000 -2.60610304062500 
 N -2.61647682499999 -2.32260721875000 -3.79754604062500 
 N -3.28902382499999 -2.86331221875000 3.339495937499870E-002
 S -0.520045824999992 -6.62941521875000 -4.01276004062500 
 S -3.72912182499999 -6.17550221875000 -1.55273204062500 
 S -1.48937982499999 -7.07341821875000 -2.215504062500129E-002
 S -1.02754282499999 -2.57160021875000 -4.13916404062500 
 S -4.03878882499999 -2.44182621875000 -1.40325504062500 
 S -1.62811582499999 -2.94323421875000 -0.102096040625001 
