16

 C -2.65349899687501 -6.32503393125000 -2.57648372187500 
 C -1.43187899687501 -6.76110993125000 -1.90895072187500 
 C -2.72815899687501 -2.65133893125000 -2.49216572187500 
 C -1.56712399687501 -3.19806093125000 -1.84497572187500 
 N -0.408730996875009 -6.95955793125000 -2.72439272187500 
 N -2.47279999687501 -6.12057893125000 -3.87237372187500 
 N -3.20865999687501 -6.69142993125000 -7.846272187499981E-002
 N -0.481680996875009 -3.42162393125000 -2.62946772187500 
 N -2.52598699687501 -2.31079093125000 -3.76411872187500 
 N -3.37957599687501 -2.85087193125000 -5.210072187499959E-002
 S -0.838398996875009 -6.42181993125000 -4.18741272187500 
 S -3.97455899687501 -6.13310393125000 -1.42882172187500 
 S -1.59109099687501 -7.01769193125000 -0.249418721875000 
 S -0.992460996875010 -2.77119193125000 -4.14405672187500 
 S -4.11928999687501 -2.52684093125000 -1.52027672187500 
 S -1.80865199687501 -3.43895893125000 -0.102500721875000 
