16

 C -2.36863603750000 -6.21405895625001 -2.20870333125000 
 C -1.21035603750000 -6.75862595625001 -1.58080033125000 
 C -2.29735003750000 -2.56046795625001 -2.14181033125000 
 C -1.11152003750000 -3.06000895625001 -1.53001033125000 
 N -9.792903750000370E-002 -6.97525095625001 -2.29080833125000 
 N -2.14568803750000 -6.00195195625001 -3.49953733125000 
 N -2.98031703750000 -6.44672595625001 0.331057668750000 
 N -0.152428037500004 -3.16293695625001 -2.42830433125000 
 N -2.21939703750000 -2.19143295625001 -3.41437033125000 
 N -2.95343503750000 -3.12499895625001 0.225444668750000 
 S -0.516200037500004 -6.42632395625001 -3.86731333125000 
 S -3.73333503750000 -6.12652995625001 -1.12641133125000 
 S -1.49027003750000 -7.14224095625001 0.150330668750000 
 S -0.634164037500004 -2.47822195625001 -3.84146133125000 
 S -3.70582803750000 -2.44496695625001 -1.12314833125000 
 S -1.36513803750000 -3.70949695625001 9.147366874999974E-002
