16

 C -2.19443501875000 -6.40886457500000 -2.39990035937500 
 C -0.957866018750001 -6.74859557500000 -1.75662935937500 
 C -2.58085401875000 -2.63722657500000 -2.34157035937500 
 C -1.32241501875000 -2.98598057500000 -1.67549935937500 
 N 6.391998124999887E-002 -6.78929457500000 -2.58775135937500 
 N -2.18486201875000 -6.24942557500000 -3.73551035937500 
 N -2.67769001875000 -6.85497957500000 8.361164062499982E-002
 N -0.343770018750001 -3.22087257500000 -2.53378035937500 
 N -2.44440501875000 -2.55817457500000 -3.65085135937500 
 N -3.17559001875000 -3.02146357500000 0.146978640625000 
 S -0.569521018750001 -6.51767557500000 -4.11003035937500 
 S -3.49204201875000 -6.31153357500000 -1.24748235937500 
 S -1.02136601875000 -7.03990657500000 -6.943635937500048E-002
 S -0.870867018750001 -2.92268757500000 -4.07375335937500 
 S -3.88169001875000 -2.53349057500000 -1.28220235937500 
 S -1.49270701875000 -3.32429257500000 8.179640624999651E-003
