16

 C -2.19400386875000 -6.26027468437500 -2.31199718125000 
 C -0.961290868749998 -6.80208768437500 -1.74773018125000 
 C -2.76194986875000 -2.54514668437500 -2.48376318125000 
 C -1.55363286875000 -3.00492268437500 -1.87271518125000 
 N -2.544486874999841E-002 -6.94378568437500 -2.66349018125000 
 N -2.14191286875000 -6.09570668437500 -3.63902518125000 
 N -2.57643586875000 -6.67629168437500 0.231639818750001 
 N -0.537828868749998 -3.09635568437500 -2.67733518125000 
 N -2.66524186875000 -2.34545168437500 -3.77870518125000 
 N -3.38617586875000 -2.92587668437500 -4.934218124999923E-002
 S -0.604528868749998 -6.47150568437500 -4.12945018125000 
 S -3.46209986875000 -6.22024568437500 -1.11404518125000 
 S -1.03355886875000 -7.20758968437500 -6.482418124999922E-002
 S -1.11549686875000 -2.65268968437500 -4.23018918125000 
 S -4.10200686875000 -2.34183168437500 -1.40063218125000 
 S -1.80812386875000 -3.33524968437500 -0.203728181249999 
