16

 C -2.32797847812500 -6.37213429374999 -2.47941658437500 
 C -1.12875647812500 -6.72203929374999 -1.78926458437500 
 C -2.57899147812500 -2.66878429374999 -2.46010558437500 
 C -1.31314347812500 -2.93722729375000 -1.80040658437500 
 N -4.213947812499974E-002 -6.98087029374999 -2.48590858437500 
 N -2.17801047812500 -6.44878429374999 -3.79196358437500 
 N -3.05213347812500 -6.41033329374999 -5.081558437499978E-002
 N -0.262745478125000 -3.05419229374999 -2.62158758437500 
 N -2.44423447812500 -2.55188029374999 -3.77609958437500 
 N -3.17598747812500 -2.83009229374999 -1.560758437499965E-002
 S -0.606518478124999 -6.91785429375000 -4.04030058437500 
 S -3.69694847812500 -6.13325429374999 -1.52327358437500 
 S -1.42369847812500 -6.83248029375000 -4.153458437499968E-002
 S -0.838548478124999 -2.76041229374999 -4.14838758437500 
 S -3.99895147812500 -2.69672529374999 -1.49645058437500 
 S -1.54841847812500 -3.16606529374999 -0.133384584375000 
