16

 C -2.26804645000000 -6.54123631562500 -2.20267880937500 
 C -1.04400145000000 -7.00390131562500 -1.63672580937500 
 C -2.37683445000000 -2.66064531562500 -2.24809180937500 
 C -1.26881845000000 -3.33254431562500 -1.73500180937500 
 N -5.002145000000091E-002 -7.21781231562500 -2.47813680937500 
 N -2.12890345000000 -6.28144531562500 -3.48909180937500 
 N -2.70112245000000 -6.90908431562500 0.328647190625000 
 N -0.333112450000001 -3.53816631562500 -2.65377380937500 
 N -2.34012145000000 -2.36046131562500 -3.55142680937500 
 N -2.96505945000000 -3.18464831562500 0.171803190624999 
 S -0.587896450000001 -6.70602231562500 -3.96381980937500 
 S -3.52768545000000 -6.41709731562500 -1.00221180937500 
 S -1.05332345000000 -7.25638931562500 0.112543190625000 
 S -0.812268450000001 -2.88404431562500 -4.08465080937500 
 S -3.74720045000000 -2.52121531562500 -1.12408280937500 
 S -1.33315345000000 -3.55786131562500 1.709019062499961E-002
