16

 C -2.66392264687500 -6.29151480937500 -2.25704124062500 
 C -1.44502264687500 -6.85910480937500 -1.74761824062500 
 C -2.47800264687500 -2.98127680937500 -2.35717624062500 
 C -1.32809464687500 -3.56589880937500 -1.68655024062500 
 N -0.543776646875003 -7.13147180937500 -2.69088224062500 
 N -2.65679764687500 -6.02955180937500 -3.56091724062500 
 N -3.08168164687500 -6.82303280937500 0.159979759374997 
 N -0.225619646875002 -3.72776580937500 -2.42743524062500 
 N -2.23841464687500 -2.72724080937500 -3.64012924062500 
 N -3.12942064687500 -3.14380680937500 0.160288759374998 
 S -1.19415464687500 -6.54793680937500 -4.12859224062500 
 S -3.94359664687500 -6.05221880937500 -1.09271724062500 
 S -1.53140564687500 -7.33733380937500 -0.133346240625003 
 S -0.700140646875003 -3.19204280937500 -3.95294524062500 
 S -3.77689064687500 -2.57506380937500 -1.32038924062500 
 S -1.59734064687500 -3.86586180937500 2.259875937499745E-002
