16

 C -2.34947155937500 -6.55924358125000 -2.47029938750000 
 C -1.20169755937500 -7.01156458125000 -1.74861738750000 
 C -2.33497755937500 -2.92125858125000 -2.51631038750000 
 C -1.18874255937500 -3.36683858125000 -1.85935238750000 
 N -0.103410559375003 -7.18600358125000 -2.46833038750000 
 N -2.09561255937500 -6.41329058125000 -3.74886238750000 
 N -3.15087855937500 -6.82020458125000 -3.503938749999880E-002
 N -0.129466559375003 -3.46671058125000 -2.61135438750000 
 N -2.22591055937500 -2.77521858125000 -3.82821238750000 
 N -3.00186055937500 -3.13641358125000 -7.562338749999875E-002
 S -0.503001559375003 -6.82391358125000 -4.01238338750000 
 S -3.74321155937500 -6.34988658125000 -1.47027738750000 
 S -1.55736055937500 -7.34214058125000 -0.103603387499999 
 S -0.653301559375003 -3.11597358125000 -4.18297038750000 
 S -3.65913055937500 -2.66871858125000 -1.47110838750000 
 S -1.43071355937500 -3.69000858125000 -0.207322387499999 
