16

 C -2.62405595625000 -6.48638442499999 -2.33714535625000 
 C -1.38580795625000 -6.95733742499999 -1.79541735625000 
 C -2.34866295625000 -2.99620742499999 -2.43927935625000 
 C -1.10656595625000 -3.44144942499999 -1.72709535625000 
 N -0.380696956250000 -7.07653242499999 -2.63022135625000 
 N -2.61376395625000 -6.34272242499999 -3.63938835625000 
 N -2.95573095625000 -6.71816842499999 0.173217643750000 
 N -9.992595624999989E-002 -3.64148142499999 -2.56605335625000 
 N -2.19594295625000 -2.73260542499999 -3.74682935625000 
 N -2.90183095625000 -3.17754742499999 8.092664374999980E-002
 S -1.04531795625000 -6.64143942499999 -4.11371635625000 
 S -3.84329995625000 -6.23789742499999 -1.17698735625000 
 S -1.33606595625000 -7.00971942499999 -7.152135625000033E-002
 S -0.655110956250000 -3.19839642499999 -4.09519535625000 
 S -3.67417095625000 -2.75673742499999 -1.34438935625000 
 S -1.31792095625000 -3.57201642499999 5.020643749999776E-003
