16

 C -2.37770588750000 -6.34590680000001 -2.48296728437500 
 C -1.21818688750000 -6.77943780000001 -1.77273228437500 
 C -2.61729388750000 -2.74142280000001 -2.57592328437500 
 C -1.39001688750000 -3.04685880000001 -1.87362528437500 
 N -0.147560887500003 -7.18775380000001 -2.46083428437500 
 N -2.11675088750000 -6.43615880000001 -3.79766428437500 
 N -2.97782588750000 -6.39974080000001 5.075771562500031E-002
 N -0.332466887500003 -3.07913780000001 -2.68289228437500 
 N -2.45444388750000 -2.46182180000001 -3.85486928437500 
 N -3.14285988750000 -2.86921080000001 -4.927028437499970E-002
 S -0.544487887500003 -6.93553380000001 -4.05904928437500 
 S -3.71252188750000 -6.04722580000001 -1.41192228437500 
 S -1.33641888750000 -6.80632780000001 -1.908428437499965E-002
 S -0.846668887500003 -2.77465880000001 -4.24511628437500 
 S -3.90625588750000 -2.70775680000001 -1.47038328437500 
 S -1.50292388750000 -3.07106180000001 -0.143724284375000 
