16

 C -2.23107072812501 -6.35436534687500 -2.46518587187500 
 C -1.07596872812501 -6.82760134687500 -1.73852087187500 
 C -2.83069472812501 -2.56242234687500 -2.52694887187500 
 C -1.56524772812501 -2.82223634687500 -1.89459887187500 
 N 2.967927187499164E-002 -7.04413934687500 -2.47732787187500 
 N -2.01945372812501 -6.13383634687500 -3.77273887187500 
 N -2.91586372812501 -6.56616234687500 8.182112812499920E-002
 N -0.505773728125008 -2.91726634687500 -2.67702087187500 
 N -2.69354172812501 -2.31915134687500 -3.78765887187500 
 N -3.35214472812501 -2.87635234687500 -1.561187187500090E-002
 S -0.440624728125008 -6.54620134687500 -4.02053487187500 
 S -3.64676072812501 -6.16562834687500 -1.34803087187500 
 S -1.32040772812501 -7.08042134687500 -3.974187187500089E-002
 S -1.13060472812501 -2.46753334687500 -4.26337087187500 
 S -4.17299472812501 -2.47929534687500 -1.40287887187500 
 S -1.68691972812501 -3.00184934687500 -0.146756871875001 
