16

 C -2.28457739375000 -6.47610371250000 -2.49485927812500 
 C -1.10541539375000 -7.00356271250000 -1.87049227812500 
 C -2.39016739375000 -3.05055171249999 -2.29616227812500 
 C -1.12846739375000 -3.47967871249999 -1.67996127812500 
 N -5.841239374999940E-002 -7.25958471250000 -2.64842427812500 
 N -2.09804039375000 -6.24658471250000 -3.80185727812500 
 N -2.80715739375000 -6.73371471249999 3.612272187499843E-002
 N -0.112751393749999 -3.64602071250000 -2.49718627812500 
 N -2.26405339375000 -2.82050971250000 -3.61497727812500 
 N -2.98116739375000 -3.06352771249999 0.174723721874998 
 S -0.553641393750000 -6.71526371250000 -4.13629627812500 
 S -3.60085539375000 -6.21373871249999 -1.31689027812500 
 S -1.27945439375000 -7.43661671249999 -0.196725278125001 
 S -0.722793393749999 -3.17393671250000 -4.04976127812500 
 S -3.69459739375000 -2.79067971249999 -1.27071027812500 
 S -1.38176739375000 -3.57110071250000 6.481872187499849E-002
