16

 C -2.41113150937501 -6.68440750000000 -2.20530021250000 
 C -1.19802250937501 -7.09285350000000 -1.62213321250000 
 C -2.41752650937501 -2.78536150000000 -2.39787621250000 
 C -1.19923850937501 -3.11485550000000 -1.78496621250000 
 N -0.168317509375005 -7.24080350000000 -2.40811421250000 
 N -2.34013150937501 -6.47618350000000 -3.50899921250000 
 N -2.86227850937501 -6.89777550000000 0.329036787500004 
 N -0.215610509375005 -3.34046750000000 -2.62166621250000 
 N -2.35171350937501 -2.68080150000000 -3.71222321250000 
 N -2.96551150937501 -3.03581950000000 5.032378750000421E-002
 S -0.708476509375005 -6.79155750000000 -3.90512621250000 
 S -3.67025650937501 -6.71146850000000 -1.07681421250000 
 S -1.21921450937501 -7.35340450000000 8.183578750000420E-002
 S -0.760363509375005 -3.04434350000000 -4.09587821250000 
 S -3.76697150937501 -2.63044050000000 -1.34103321250000 
 S -1.30306650937501 -3.20042950000000 -0.102096212499996 
