16

 C -2.46086547812500 -6.11018988437499 -2.20240831250000 
 C -1.24375447812500 -6.65124288437499 -1.63396331250000 
 C -2.55449547812500 -2.47567488437499 -2.52527531250000 
 C -1.32637647812500 -2.99242188437499 -1.83845731250000 
 N -0.280107478124997 -6.92362588437499 -2.53441531250000 
 N -2.43399747812500 -5.86817488437499 -3.52150431250000 
 N -2.94770747812500 -6.31654988437499 0.309597687500002 
 N -0.314684478124997 -3.28252288437499 -2.63287831250000 
 N -2.41718047812500 -2.32626088437499 -3.81801331250000 
 N -3.08134347812500 -2.45469888437499 -8.238312499998290E-003
 S -0.950105478124997 -6.45262888437499 -4.00542931250000 
 S -3.74304047812500 -5.87592088437499 -1.07023431250000 
 S -1.30398547812500 -6.85139788437499 0.117217687500002 
 S -0.894531478124997 -2.85451088437499 -4.13078431250000 
 S -3.84399847812500 -2.20513288437499 -1.43907131250000 
 S -1.44581147812500 -2.97008888437499 -0.124800312499998 
