16

 C -2.63059718437500 -6.69857833437500 -2.44047688125000 
 C -1.35315718437500 -6.97134633437500 -1.77604788125000 
 C -2.26095318437500 -3.11764333437500 -2.24845588125000 
 C -1.03759618437500 -3.55646533437500 -1.56096888125000 
 N -0.381820184375003 -7.19843033437500 -2.63115288125000 
 N -2.59999618437500 -6.59285333437500 -3.75565988125000 
 N -3.04898318437500 -6.74477233437500 8.069211874999804E-002
 N 5.169381562499709E-002 -3.65558933437500 -2.34300688125000 
 N -2.10864818437500 -2.92514433437500 -3.56590188125000 
 N -2.90572718437500 -3.34399733437500 0.221579118749998 
 S -1.03077918437500 -6.95724433437500 -4.13968188125000 
 S -3.92023418437500 -6.47099333437500 -1.33262088125000 
 S -1.44474118437500 -7.03441533437500 -0.117373881250002 
 S -0.524998184375002 -3.28611333437500 -3.87332888125000 
 S -3.63576418437500 -2.88553133437500 -1.19609688125000 
 S -1.30535118437500 -3.87336933437500 0.153695118749998 
