16

 C -2.45235149375000 -6.54128830312499 -2.29998673125000 
 C -1.27334649375000 -6.98348930312499 -1.59245973125000 
 C -2.42869249375000 -2.71415730312499 -2.49293773125000 
 C -1.27844849375000 -3.18083230312499 -1.82693573125000 
 N -0.223040493750002 -7.16785330312499 -2.41968173125000 
 N -2.22579949375000 -6.34632930312499 -3.61270173125000 
 N -3.11478249375000 -6.59758830312499 0.156519268750000 
 N -0.191347493750001 -3.21708130312499 -2.57377973125000 
 N -2.31031449375000 -2.49832430312499 -3.80851973125000 
 N -3.12860349375000 -3.25544930312499 -1.696973125000034E-002
 S -0.687359493750002 -6.76601130312499 -3.95628173125000 
 S -3.87055349375000 -6.31344530312499 -1.33170273125000 
 S -1.57752549375000 -7.25604430312499 0.172932268750000 
 S -0.709244493750002 -2.71528030312499 -4.10357073125000 
 S -3.88409449375000 -2.74245930312499 -1.43231373125000 
 S -1.47535849375000 -3.44533630312499 -6.464773125000023E-002
