16

 C -2.45987885312500 -6.32933593437500 -2.56597339062500 
 C -1.26600585312500 -6.75083693437500 -1.87113339062500 
 C -2.74433985312500 -2.90677493437500 -2.46419939062500 
 C -1.55206285312500 -3.47384593437500 -1.85762539062500 
 N -0.189482853124997 -6.95459293437500 -2.64905339062500 
 N -2.26525185312500 -6.30365993437500 -3.87860739062500 
 N -3.15233685312500 -6.61531793437500 -0.166210390624997 
 N -0.575122853124998 -3.74799693437500 -2.71033339062500 
 N -2.60022385312500 -2.67493793437500 -3.76529139062500 
 N -3.33569385312500 -3.27532693437500 -3.706639062499684E-002
 S -0.694484853124997 -6.69705093437500 -4.17330539062500 
 S -3.87630185312500 -6.25770293437500 -1.57788339062500 
 S -1.52854085312500 -7.13648893437500 -0.110940390624997 
 S -0.993662853124998 -3.09483793437500 -4.14132339062500 
 S -4.09771285312500 -2.57310093437500 -1.39293139062500 
 S -1.77389585312500 -3.86042993437500 -0.229572390624997 
