16

 C -2.40846496249999 -6.49402038125000 -2.60594757812500 
 C -1.21923596249999 -6.94205138125000 -2.01641157812500 
 C -2.59656896249999 -2.52338138125000 -2.36565257812500 
 C -1.49075396249999 -3.14151338125000 -1.68347757812500 
 N -0.131403962499995 -7.08174838125000 -2.79253457812500 
 N -2.24423696249999 -6.22025138125000 -3.90283957812500 
 N -3.01072496249999 -6.85268438125000 -5.218157812499991E-002
 N -0.458149962499995 -3.51734838125000 -2.44230957812500 
 N -2.44374596249999 -2.36831538125000 -3.68449057812500 
 N -3.39209296249999 -2.90515938125000 0.166490421875000 
 S -0.667928962499994 -6.59884538125000 -4.25824657812500 
 S -3.71785196249999 -6.43444738125000 -1.45884957812500 
 S -1.35182196249999 -7.14188138125000 -0.252584578125000 
 S -0.925042962499995 -2.98625338125000 -3.97735857812500 
 S -3.95785996249999 -2.22610538125000 -1.20918557812500 
 S -1.76658096249999 -3.26900438125000 4.636542187500003E-002
