16

 C -2.32230099375000 -6.35865146875000 -2.51877534375000 
 C -1.16751499375000 -6.79685346875000 -1.74801334375000 
 C -2.68542899375000 -2.51677546875000 -2.45056834375000 
 C -1.44397899375000 -2.78920946875000 -1.76639034375000 
 N -5.497099375000492E-002 -7.03132046875000 -2.44826934375000 
 N -2.09057899375000 -6.19853446875000 -3.81101134375000 
 N -3.09894399375000 -6.46906946875000 -5.790234374999992E-002
 N -0.371307993750005 -2.86480446875000 -2.54177134375000 
 N -2.55867099375000 -2.33704446875000 -3.75223234375000 
 N -3.27004099375000 -2.81927746875000 2.612965625000019E-002
 S -0.531845993750005 -6.63455646875000 -4.02341834375000 
 S -3.74835599375000 -6.16985346875000 -1.58494234375000 
 S -1.52742499375000 -7.06165946875000 -6.861343749999804E-003
 S -1.00374299375000 -2.59552346875000 -4.13518934375000 
 S -4.02086199375000 -2.42449046875000 -1.39304734375000 
 S -1.60137099375000 -2.96246446875000 -0.118084343750000 
