16

 C -2.61169155000000 -6.68562806875000 -2.45546193125000 
 C -1.34168555000000 -6.96682506875000 -1.78562293125000 
 C -2.26982655000000 -3.13192206875000 -2.25315493125000 
 C -1.02277555000000 -3.57743306875000 -1.55825493125000 
 N -0.373016549999996 -7.18934506875000 -2.63551593125000 
 N -2.60469255000000 -6.59890706875000 -3.76682993125000 
 N -3.04006355000000 -6.73553706875000 6.894406874999870E-002
 N 5.843045000000480E-002 -3.66496506875000 -2.34345493125000 
 N -2.10959855000000 -2.91222006875000 -3.56902393125000 
 N -2.90697155000000 -3.35217806875000 0.232320068749999 
 S -1.02845655000000 -6.94766606875000 -4.14312793125000 
 S -3.90886255000000 -6.47255206875000 -1.34280293125000 
 S -1.44703155000000 -7.01624506875000 -0.110207931250002 
 S -0.527073549999996 -3.28925106875000 -3.86554893125000 
 S -3.64507055000000 -2.90051206875000 -1.19438493125000 
 S -1.30978255000000 -3.87109806875000 0.153507068749999 
