16

 C -2.49942771562500 -6.59172771875000 -2.53306688750000 
 C -1.19413171562500 -6.82344271875000 -1.89927688750000 
 C -2.36554671562500 -3.18151171875000 -2.18553088750000 
 C -1.10964071562500 -3.63184071875000 -1.54023988750000 
 N -0.136416715625002 -6.92461571875000 -2.68382388750000 
 N -2.38734171562500 -6.54295171875000 -3.85196188750000 
 N -2.98329171562500 -6.58290971875000 -2.132588750000242E-002
 N -0.121440715625002 -3.89115071875000 -2.38110188750000 
 N -2.23559771562500 -2.91386171875000 -3.49180488750000 
 N -2.87835671562500 -3.53544571875000 0.337963112499998 
 S -0.776759715625001 -6.83115571875000 -4.21587488750000 
 S -3.81747171562500 -6.39071271875000 -1.40165088750000 
 S -1.35390071562500 -6.77598171875000 -0.158414887500002 
 S -0.649452715625001 -3.32065671875000 -3.83655388750000 
 S -3.72417371562500 -3.26861171875000 -1.10892088750000 
 S -1.23778271562500 -3.75109671875000 0.225320112499998 
