16

 C -2.48917006249999 -6.66354486875000 -2.41932929375000 
 C -1.23077006249999 -6.91428986875000 -1.79480029375000 
 C -2.09619706249999 -2.91408086875000 -2.38495829375000 
 C -0.947429062499994 -3.26603586875000 -1.60793029375000 
 N -0.191542062499995 -6.91233286875000 -2.58057529375000 
 N -2.38586406249999 -6.53918986875000 -3.73263729375000 
 N -2.95239206249999 -7.00931086875000 5.197770625000175E-002
 N 0.147365937500006 -3.36523086875000 -2.34166029375000 
 N -1.89845406249999 -2.70855686875000 -3.67991329375000 
 N -2.96833506249999 -3.10699486875000 3.170570625000169E-002
 S -0.788903062499994 -6.59183086875000 -4.04414229375000 
 S -3.80644006249999 -6.76880086875000 -1.31071729375000 
 S -1.28670106249999 -7.27932586875000 -7.920229374999832E-002
 S -0.303245062499994 -3.05930286875000 -3.97317229375000 
 S -3.51170706249999 -2.49001486875000 -1.40727129375000 
 S -1.33312006249999 -3.68675586875000 5.720670625000168E-002
