16

 C -2.61661796875000 -6.29972787187500 -2.54371449375000 
 C -1.42181196875000 -6.73869787187500 -1.91750249375000 
 C -2.68921496875000 -2.67400087187500 -2.49445349375000 
 C -1.52389496875000 -3.26389087187500 -1.86029049375000 
 N -0.365336968749999 -6.92214687187500 -2.68545849375000 
 N -2.47705196875000 -6.10158187187500 -3.84370349375000 
 N -3.21961596875000 -6.72144887187500 -4.922549374999985E-002
 N -0.512548968749999 -3.30612087187500 -2.76609349375000 
 N -2.58687196875000 -2.34161287187500 -3.76110349375000 
 N -3.35548296875000 -2.93239787187500 -5.368849374999973E-002
 S -0.852528968749999 -6.41664787187500 -4.21756849375000 
 S -3.97813096875000 -6.21597487187500 -1.44866549375000 
 S -1.57151196875000 -6.93662887187500 -0.195323493750000 
 S -1.03174596875000 -2.76601187187500 -4.16345149375000 
 S -4.09912096875000 -2.49960087187500 -1.49073349375000 
 S -1.76171096875000 -3.40633387187500 -0.156605493750000 
