16

 C -2.39978580312500 -6.61872898125000 -2.44074660000000 
 C -1.21762380312500 -7.20938998125000 -1.86412460000000 
 C -2.74388480312500 -2.79934898125000 -2.55480560000000 
 C -1.60544180312500 -3.31043198125000 -1.83123960000000 
 N -0.222152803125003 -7.26623198125000 -2.72130160000000 
 N -2.28130180312500 -6.24389498125000 -3.73807260000000 
 N -3.01965080312500 -6.91149898125000 9.474939999999932E-002
 N -0.578529803125003 -3.64834198125000 -2.59130660000000 
 N -2.52696880312500 -2.58592698125000 -3.82810660000000 
 N -3.45605080312500 -3.11292098125000 -0.131662600000001 
 S -0.772983803125003 -6.70928798125000 -4.17595060000000 
 S -3.76110180312500 -6.40939098125000 -1.28563860000000 
 S -1.45458880312500 -7.51933598125000 -0.154191600000001 
 S -0.935015803125003 -3.18906798125000 -4.08891760000000 
 S -4.05378880312500 -2.50679598125000 -1.54412660000000 
 S -1.82511480312500 -3.51054298125000 -0.169436600000001 
