16

 C -2.31512804687499 -6.05853288437501 -1.99573057187500 
 C -1.10426504687499 -6.69379888437501 -1.46208257187500 
 C -2.33504504687499 -2.68142188437501 -2.29950157187500 
 C -1.18723804687499 -3.15403388437501 -1.57639357187500 
 N -0.126787046874988 -6.87499588437501 -2.34694157187500 
 N -2.22121804687499 -5.76243288437501 -3.29761357187500 
 N -2.85125604687499 -6.84056488437501 0.365197428125003 
 N -0.128182046874987 -3.41348888437501 -2.34539157187500 
 N -2.12691904687499 -2.46096088437501 -3.58789057187500 
 N -3.11085504687499 -2.90240088437501 7.246542812500301E-002
 S -0.677783046874987 -6.23535588437501 -3.78190957187500 
 S -3.60708504687499 -6.15176188437501 -0.916044571874997 
 S -1.20204304687499 -7.27217688437501 0.163826428125003 
 S -0.585757046874988 -3.05707888437501 -3.87575357187500 
 S -3.72218804687499 -2.41304888437501 -1.35027857187500 
 S -1.51200304687499 -3.29752388437501 7.829042812500298E-002
