16

 C -2.28030794687499 -6.53261170000000 -2.37648525625000 
 C -1.07268794687500 -7.02988470000000 -1.79685325625000 
 C -2.42424294687500 -2.99756470000000 -2.43589425625000 
 C -1.13957094687500 -3.27040770000000 -1.78638325625000 
 N -7.690494687499516E-002 -7.04998670000000 -2.69173325625000 
 N -2.23902794687500 -6.06999970000000 -3.63129325625000 
 N -2.83021894687500 -6.78940070000000 0.142999743749997 
 N -0.130103946874995 -3.35744170000000 -2.63997625625000 
 N -2.29195694687500 -2.85084070000000 -3.73854125625000 
 N -2.95670594687500 -3.46220570000000 3.555774374999676E-002
 S -0.731066946874996 -6.49103070000000 -4.16885625625000 
 S -3.59754794687499 -6.30036170000000 -1.25132025625000 
 S -1.24630394687500 -7.33913470000000 -5.178225625000343E-002
 S -0.698761946874995 -3.12113070000000 -4.08695225625000 
 S -3.75650694687500 -2.84310670000000 -1.33965725625000 
 S -1.33533494687499 -3.66337070000000 -0.111461256250003 
