16

 C -2.62028510000000 -6.59899777500000 -2.35531927187500 
 C -1.36655210000000 -6.79643177500000 -1.69872427187500 
 C -2.25297010000000 -2.97140477500000 -2.47659427187500 
 C -1.06027210000000 -3.40332377500000 -1.83669627187500 
 N -0.318806100000000 -6.87227777500000 -2.50031127187500 
 N -2.52975310000000 -6.45083277500000 -3.67447527187500 
 N -3.08866610000000 -7.09784877500000 0.135156728124997 
 N -5.904709999999991E-002 -3.64701377500000 -2.68903727187500 
 N -2.21150210000000 -2.89481277500000 -3.79344827187500 
 N -2.80789310000000 -2.98517577500000 3.439672812499728E-002
 S -0.917850100000000 -6.59876777500000 -3.97513727187500 
 S -3.94692110000000 -6.91231177500000 -1.26712827187500 
 S -1.38667010000000 -7.14040377500000 -3.520327187500261E-002
 S -0.665929100000000 -3.22391677500000 -4.22245227187500 
 S -3.57185410000000 -2.85730277500000 -1.39634727187500 
 S -1.13796410000000 -3.35926477500000 -6.144527187500270E-002
