16

 C -2.26396072187500 -6.64103884062500 -2.35043384375000 
 C -1.11384372187500 -7.01315784062500 -1.61685384375000 
 C -2.92596372187500 -3.22883184062500 -2.21608984375000 
 C -1.71054772187500 -3.62895984062500 -1.62857484375000 
 N -0.150874721875004 -7.32733984062500 -2.48674784375000 
 N -2.17842572187500 -6.57175184062500 -3.66991284375000 
 N -2.98803572187500 -6.94266384062500 5.308315624999937E-002
 N -0.616932721875004 -3.72865784062500 -2.41648984375000 
 N -2.78880072187500 -3.00635084062500 -3.52601684375000 
 N -3.51742572187500 -3.37357584062500 0.239615156249999 
 S -0.688052721875004 -7.16699184062500 -4.04545784375000 
 S -3.67702272187500 -6.53772584062500 -1.34357384375000 
 S -1.29996272187500 -7.23521084062500 6.292315624999922E-002
 S -1.23991672187500 -3.40554484062500 -3.93993084375000 
 S -4.29135972187500 -2.99224984062500 -1.19925784375000 
 S -1.91949372187500 -3.73637684062500 0.148914156249999 
