16

 C -2.56092700000000 -6.68034168125000 -2.52290049375000 
 C -1.28331000000000 -7.11750468125000 -1.89761249375000 
 C -2.31398700000000 -2.48979968125000 -2.29459949375000 
 C -1.11617900000000 -3.16187768125000 -1.83164549375000 
 N -0.280851999999999 -7.21319568125000 -2.76211349375000 
 N -2.43379400000000 -6.39657168125000 -3.81665349375000 
 N -2.99176100000000 -6.70154768125000 -4.814549374999832E-002
 N -0.144469000000000 -3.32102468125000 -2.77122449375000 
 N -2.22545200000000 -2.18664168125000 -3.59076849375000 
 N -2.81056500000000 -3.20216968125000 0.142273506250002 
 S -0.871562000000000 -6.75102368125000 -4.23624349375000 
 S -3.86607800000000 -6.31244968125000 -1.42980449375000 
 S -1.35581800000000 -7.30964968125000 -0.231077493749998 
 S -0.825182000000000 -2.80370268125000 -4.19729849375000 
 S -3.60974100000000 -2.42189068125000 -1.10668049375000 
 S -1.17708700000000 -3.60436368125000 -0.103815493749998 
