16

 C -2.47698570312500 -6.35414150000000 -2.45521058437500 
 C -1.24970170312500 -6.80768350000000 -1.82919158437500 
 C -2.47396570312500 -2.61419950000001 -2.20134058437500 
 C -1.29147670312500 -3.18516050000000 -1.63306758437500 
 N -0.254051703124996 -7.09547150000000 -2.66593558437500 
 N -2.33484770312500 -6.25178050000000 -3.75768558437500 
 N -3.10178270312500 -6.74701950000000 -7.710758437500154E-002
 N -0.279496703124996 -3.35926550000000 -2.49326958437500 
 N -2.44691770312500 -2.35798150000000 -3.51350658437500 
 N -2.97031770312500 -2.90682750000000 0.380284415624998 
 S -0.816722703124996 -6.67367950000000 -4.14695258437500 
 S -3.74019670312500 -5.92783850000001 -1.37751558437500 
 S -1.48047170312500 -7.15868950000000 -0.154896584375002 
 S -0.929211703124996 -2.85259750000001 -3.92374758437500 
 S -3.75726570312500 -2.26426350000000 -0.964060584375002 
 S -1.35460370312500 -3.39934250000000 0.100107415624999 
