16

 C -2.37349501875000 -6.31887450000000 -2.58610587187500 
 C -1.19432601875000 -6.69651250000000 -1.88801687187500 
 C -2.38927601875000 -2.71733750000000 -2.61150487187500 
 C -1.16257901875000 -3.06173350000000 -1.95343987187500 
 N -8.130901875000340E-002 -6.94114150000000 -2.63382787187500 
 N -2.22088401875000 -6.28716950000000 -3.89956187187500 
 N -3.04837701875000 -6.30241050000000 -0.123264871874998 
 N -0.153404018750003 -3.24866150000000 -2.80376887187500 
 N -2.29165201875000 -2.53302650000000 -3.96875987187500 
 N -2.84852801875000 -3.02115550000000 -5.106687187499803E-002
 S -0.610749018750004 -6.64425250000000 -4.21604987187500 
 S -3.82304501875000 -6.21927050000000 -1.58543787187500 
 S -1.47844001875000 -6.85658950000000 -0.105094871874998 
 S -0.716302018750003 -2.80556750000000 -4.29971287187500 
 S -3.69396101875000 -2.58112950000000 -1.41600987187500 
 S -1.23990201875000 -3.26452250000000 -0.207315871874998 
