16

 C -2.36718424375000 -6.09790435625000 -2.34799018750000 
 C -1.20634624375000 -6.81725535625000 -1.80857118750000 
 C -2.69374124375000 -2.48938835625000 -2.72904018750000 
 C -1.42525724375000 -2.83890235625000 -2.10424918750000 
 N -0.326287243750000 -7.14442935625000 -2.74507018750000 
 N -2.37283324375000 -5.88184335625000 -3.67620918750000 
 N -2.70696024375000 -6.36814735625000 0.192049812500002 
 N -0.431134243749999 -3.11220935625000 -2.91091418750000 
 N -2.59038124375000 -2.38214735625000 -4.05047218750000 
 N -3.09528924375000 -2.42682935625000 -0.134647187499998 
 S -0.952569243749999 -6.55626135625000 -4.19199318750000 
 S -3.57148224375000 -5.74898635625000 -1.13488018750000 
 S -1.27145024375000 -7.09918335625000 -9.741718749999806E-002
 S -1.02929424375000 -2.80815035625000 -4.41147918750000 
 S -3.98558424375000 -2.08025835625000 -1.52536618750000 
 S -1.52753524375000 -2.90584235625000 -0.320563187499998 
