16

 C -2.57761799999999 -6.21286997812500 -2.30697270312500 
 C -1.40847799999999 -6.87473097812500 -1.74868870312500 
 C -2.24171999999999 -2.36004497812500 -2.46057970312500 
 C -1.11119299999999 -2.95013397812500 -1.82611870312500 
 N -0.435565999999987 -7.22557397812500 -2.57317270312500 
 N -2.43514599999999 -5.97682697812500 -3.60984370312500 
 N -3.14485399999999 -6.67751697812500 0.220169296874998 
 N -9.186299999998671E-002 -3.12624097812500 -2.65339670312500 
 N -2.16628999999999 -2.22686097812500 -3.81093770312500 
 N -2.87200499999999 -2.60001397812500 -6.578703125001972E-003
 S -0.924494999999987 -6.54622797812500 -4.00841570312500 
 S -3.90344999999999 -6.07464597812500 -1.12257970312500 
 S -1.54350399999999 -7.24091097812500 -2.334970312500184E-002
 S -0.693552999999987 -2.70455997812500 -4.25902770312500 
 S -3.55082699999999 -2.05863197812500 -1.42568470312500 
 S -1.35132499999999 -3.23950797812500 -0.154258703125002 
