16

 C -2.56186906562500 -6.78758510937500 -2.34566785000000 
 C -1.25148106562500 -7.16012110937500 -1.74071985000000 
 C -2.29853906562500 -3.06931510937500 -2.33964385000000 
 C -1.10003506562500 -3.63874710937500 -1.77205785000000 
 N -0.291860065625001 -7.26608410937500 -2.64931985000000 
 N -2.56741506562500 -6.66898510937500 -3.66550585000000 
 N -2.93800906562500 -6.76072710937500 0.219461150000000 
 N -8.150806562500179E-002 -3.78826010937500 -2.62874385000000 
 N -2.27264206562500 -2.95139710937500 -3.67249785000000 
 N -2.72001506562500 -3.37012310937500 0.225819150000000 
 S -1.01667806562500 -7.00197810937500 -4.12665585000000 
 S -3.78340606562500 -6.41611910937500 -1.14200185000000 
 S -1.30985106562500 -7.16564310937500 5.232150000000324E-003
 S -0.724215065625001 -3.35346710937500 -4.09261885000000 
 S -3.57833606562500 -2.82575910937500 -1.14536785000000 
 S -1.16471206562500 -3.88125010937500 -8.697084999999971E-002
