16

 C -2.39116755625000 -6.53003667500000 -2.57439081875000 
 C -1.25610555625000 -7.12938967500000 -1.88694481875000 
 C -2.43698855625000 -2.87829467500000 -2.38222581875000 
 C -1.19215255625000 -3.21965467500000 -1.69823981875000 
 N -0.166993556249999 -7.43719567500000 -2.61187481875000 
 N -2.07763455625000 -6.30644067500000 -3.85332481875000 
 N -3.03079855625000 -6.77891767500000 -3.240581875000004E-002
 N -0.200670556249999 -3.42320167500000 -2.53120481875000 
 N -2.37759855625000 -2.74811367500000 -3.70041581875000 
 N -3.06646255625000 -3.00638667500000 8.420018124999995E-002
 S -0.624992556249999 -7.01391267500000 -4.16323781875000 
 S -3.68615855625000 -6.13686267500000 -1.44079781875000 
 S -1.44689855625000 -7.28989767500000 -0.145132818750000 
 S -0.834815556249999 -3.14915267500000 -4.11117681875000 
 S -3.78564155625000 -2.55849267500000 -1.33180981875000 
 S -1.39665955625000 -3.36482667500000 2.997918124999988E-002
