16

 C -2.33498367500000 -6.53005474687500 -2.55206271875000 
 C -1.08926367500000 -6.84249074687500 -1.90126871875000 
 C -2.53241667500000 -2.48567774687500 -2.63573171875000 
 C -1.46733467500000 -3.04863374687500 -1.81368371875000 
 N 2.572332500000307E-002 -6.96118474687499 -2.65721771875000 
 N -2.13184267500000 -6.22632474687500 -3.84379471875000 
 N -2.89935867500000 -6.52715274687500 2.628828125000093E-002
 N -0.381311674999997 -3.35131874687500 -2.52452171875000 
 N -2.27965467500000 -2.30740374687500 -3.94339371875000 
 N -3.44234467500000 -2.85176874687500 -0.241601718749999 
 S -0.562193674999997 -6.54482974687500 -4.20735671875000 
 S -3.73189567500000 -6.29464374687500 -1.50373771875000 
 S -1.28695667500000 -6.81434974687500 -7.559271874999918E-002
 S -0.639843674999997 -2.73845274687500 -4.08376471875000 
 S -3.93254467500000 -2.30384474687500 -1.72177171875000 
 S -1.84895767500000 -3.24695674687500 -0.183529718749999 
