16

 C -2.60874715000000 -6.50701014062499 -2.36632445937500 
 C -1.42754415000000 -6.97061214062499 -1.65648345937500 
 C -2.57380415000000 -2.71616814062499 -2.41058945937500 
 C -1.34835515000000 -3.13733914062499 -1.88776445937500 
 N -0.406130149999996 -7.23414214062499 -2.46101645937500 
 N -2.51745715000000 -6.44168614062500 -3.70854245937500 
 N -3.19967115000000 -6.49255814062500 0.175718540624999 
 N -0.383135149999996 -3.35944214062499 -2.77507545937500 
 N -2.51911515000000 -2.60262214062499 -3.73573745937500 
 N -2.94698515000000 -2.90277514062499 7.399054062499943E-002
 S -0.923814149999996 -6.88484314062499 -4.01838245937500 
 S -3.95422215000000 -6.19018314062499 -1.28362345937500 
 S -1.59732515000000 -6.84861314062499 7.579654062499941E-002
 S -1.03201115000000 -3.12863714062499 -4.26699045937500 
 S -3.87405415000000 -2.58023014062499 -1.29307845937500 
 S -1.36816115000000 -3.37142114062499 -0.133817459375000 
