16

 C -2.69171132187499 -6.30797470000000 -2.44068065625000 
 C -1.47835532187499 -6.70365370000000 -1.78501865625000 
 C -2.48112632187499 -2.97722170000000 -2.31057565625000 
 C -1.20866132187499 -3.26853470000000 -1.66289365625000 
 N -0.450266321874995 -6.78099070000000 -2.61810565625000 
 N -2.66424832187499 -6.22262570000000 -3.77285965625000 
 N -3.28106932187499 -6.61119970000000 4.506434374999979E-002
 N -0.154417321874995 -3.45944670000000 -2.46564465625000 
 N -2.37506832187499 -2.86654470000000 -3.63977265625000 
 N -2.98032132187500 -3.07391470000000 0.255085343750000 
 S -1.06389232187500 -6.52763470000000 -4.13649965625000 
 S -4.03228432187499 -6.15410570000000 -1.35931365625000 
 S -1.66038332187499 -6.92282270000000 -0.108690656250000 
 S -0.778001321874995 -3.12098770000000 -3.99737265625000 
 S -3.76198032187499 -2.73083470000000 -1.18670165625000 
 S -1.36899032187500 -3.48177370000000 6.905634374999980E-002
