16

 C -2.37495442499999 -6.38473188437500 -2.38831822187500 
 C -1.20089442499999 -6.95273388437500 -1.66628122187500 
 C -2.50951742499999 -2.59235688437500 -2.54473722187500 
 C -1.24072842499999 -3.04431988437501 -2.00383622187500 
 N -0.106255424999993 -7.19962788437500 -2.35731522187500 
 N -2.04866242499999 -6.09621688437501 -3.62249922187500 
 N -2.93385242499999 -6.30417788437500 0.146649778125000 
 N -0.220842424999992 -3.07066188437500 -2.87478322187500 
 N -2.46769442499999 -2.39413488437500 -3.88431422187500 
 N -2.93821642499999 -2.93119788437501 3.271778124999569E-003
 S -0.472076424999992 -6.69928688437501 -3.86728822187500 
 S -3.64505142499999 -5.87195888437500 -1.29330622187500 
 S -1.36003642499999 -6.94951288437500 4.921177812499944E-002
 S -0.880061424999992 -2.53732388437501 -4.30378722187500 
 S -3.78544242499999 -2.38118888437501 -1.34461022187500 
 S -1.39781942499999 -3.38643088437501 -0.336168221875000 
