16

 C -2.30582835312500 -6.68811853750000 -2.34415820000000 
 C -1.10678235312500 -7.11059853750000 -1.68277720000000 
 C -2.87585835312500 -3.16038453750000 -2.15157720000000 
 C -1.68513135312500 -3.49501153750000 -1.50887120000000 
 N -8.647735312500426E-002 -7.31768353750000 -2.54854120000000 
 N -2.30175035312500 -6.61480253750000 -3.69637520000000 
 N -2.93904135312500 -6.93211353750000 0.181995800000001 
 N -0.617041353125004 -3.72353153750000 -2.28842120000000 
 N -2.73855835312500 -3.12340853750000 -3.47242920000000 
 N -3.47952435312500 -3.29280653750000 0.328648800000001 
 S -0.719112353125004 -6.95828053750000 -4.06042120000000 
 S -3.71662035312500 -6.47152953750000 -1.24434420000000 
 S -1.29972035312500 -7.19835053750000 7.657800000000714E-003
 S -1.12608235312500 -3.32028553750000 -3.78642220000000 
 S -4.23687835312500 -3.16158453750000 -1.16485120000000 
 S -1.85695935312500 -3.73563853750000 0.234257800000001 
