16

 C -2.50410469062500 -6.28145758750000 -2.47577957812500 
 C -1.30652369062500 -6.64247358750000 -1.76736557812500 
 C -2.42412169062500 -2.31891758750000 -2.35082157812500 
 C -1.28243669062500 -2.93635758750000 -1.76533357812500 
 N -0.270811690624997 -6.96686658750000 -2.52069657812500 
 N -2.33681969062500 -6.21168058750000 -3.81737057812500 
 N -3.04904669062500 -6.56282758750000 2.723242187499952E-002
 N -0.293243690624998 -3.09653858750000 -2.62754157812500 
 N -2.29629969062500 -2.01500058750000 -3.64310657812500 
 N -3.04218769062500 -2.91361158750000 5.677442187499948E-002
 S -0.709212690624997 -6.62533958750000 -4.05083657812500 
 S -3.82155969062500 -5.89235558750000 -1.36672857812500 
 S -1.46805669062500 -6.88107858750000 -9.930157812500062E-002
 S -0.812302690624998 -2.63438658750000 -4.11838357812500 
 S -3.72514869062500 -2.12638458750000 -1.23662457812500 
 S -1.36817169062500 -3.21235958750000 -5.219957812500065E-002
