16

 C -2.20687548750000 -6.25829932500000 -2.32289747500000 
 C -0.969694487500002 -6.78960232500000 -1.77531747500000 
 C -2.75504648750000 -2.56364532500000 -2.47272547500000 
 C -1.55626648750000 -3.00284432500000 -1.85594047500000 
 N -1.543548750000134E-002 -6.94891032500000 -2.65526147500000 
 N -2.15483948750000 -6.09410532500000 -3.64739147500000 
 N -2.57550448750000 -6.66836532500000 0.227091525000000 
 N -0.528605487500002 -3.12884332500000 -2.64672847500000 
 N -2.64328448750000 -2.33142932500000 -3.78037847500000 
 N -3.37309348750000 -2.93458332500000 -6.179047500000001E-002
 S -0.615601487500002 -6.46706532500000 -4.12663647500000 
 S -3.45899348750000 -6.22746332500000 -1.09956847500000 
 S -1.02274448750000 -7.21662932500000 -6.440947500000016E-002
 S -1.11330548750000 -2.66748432500000 -4.22602147500000 
 S -4.09033348750000 -2.34024432500000 -1.40478847500000 
 S -1.80702848750000 -3.33683932500000 -0.205404475000000 
