16

 C -2.22366184375000 -6.38562081562500 -2.55444467812500 
 C -1.04062784375000 -6.71901681562500 -1.82921467812500 
 C -2.38705884375000 -2.88274381562500 -2.48482467812500 
 C -1.10644384375000 -3.29194481562500 -1.88739967812500 
 N 2.697156249998223E-003 -7.00633181562500 -2.64842167812500 
 N -2.03660984375000 -6.25216081562500 -3.88328467812500 
 N -2.98106784375000 -6.58747581562500 -9.795567812499795E-002
 N -0.105015843750001 -3.41142881562500 -2.75921467812500 
 N -2.29558284375000 -2.73597981562500 -3.81431967812500 
 N -2.73322884375000 -2.87867281562500 0.115183321875002 
 S -0.449251843750002 -6.59716381562500 -4.18423867812500 
 S -3.64150484375000 -5.92741881562500 -1.49204267812500 
 S -1.34409984375000 -6.70882081562500 -7.279767812499771E-002
 S -0.732124843750001 -3.07543881562500 -4.23907767812500 
 S -3.63429284375000 -2.77336981562500 -1.31364667812500 
 S -1.13602484375000 -3.29907681562500 -0.122740678124998 
