16

 C -2.21040264687500 -6.48547252187500 -2.52150160312500 
 C -1.03778364687500 -7.00700952187500 -1.85299860312500 
 C -2.63456264687500 -2.34206252187500 -2.42768160312500 
 C -1.56560964687500 -3.04291652187500 -1.76248360312500 
 N 1.773531249975591E-004 -7.29977352187500 -2.65266160312500 
 N -2.02166964687500 -6.33581552187500 -3.85002360312500 
 N -2.74296164687500 -6.53214052187500 -1.558560312500035E-002
 N -0.561939646875002 -3.22850352187500 -2.57844660312500 
 N -2.47109464687500 -2.17801452187500 -3.71656960312500 
 N -3.24026664687500 -2.58898452187500 5.847039687499955E-002
 S -0.511272646875002 -6.84307352187500 -4.15437660312500 
 S -3.45853764687500 -6.11676052187500 -1.43610160312500 
 S -1.29512964687500 -7.35137952187500 -0.125949603125000 
 S -0.997105646875003 -2.86006252187500 -4.09726660312500 
 S -3.86526264687500 -1.86232552187500 -1.31588860312500 
 S -1.71337564687500 -3.18262252187500 -4.964460312500041E-002
