16

 C -2.40505685312499 -6.35950086250000 -2.39620222812500 
 C -1.13561385312499 -6.83667486250000 -1.80473922812500 
 C -2.58569385312499 -2.76776886250000 -2.41781522812500 
 C -1.48885585312499 -3.35160286250000 -1.70499222812500 
 N -0.103346853124989 -6.92938386250000 -2.66463922812500 
 N -2.24598985312499 -6.19019286249999 -3.68507022812500 
 N -2.93241885312499 -6.61983586250000 0.109966771875003 
 N -0.432360853124989 -3.57903486250000 -2.46908022812500 
 N -2.28615985312499 -2.43964686250000 -3.68183322812500 
 N -3.35134285312499 -2.95110286250000 3.311477187500267E-002
 S -0.704512853124990 -6.47346886250000 -4.18037122812500 
 S -3.74692085312499 -6.45804386249999 -1.33612022812500 
 S -1.32477185312499 -7.01510186250000 -1.190622812499753E-002
 S -0.768358853124989 -3.02740986250000 -4.03461322812500 
 S -3.97256285312499 -2.62403586250000 -1.46709122812500 
 S -1.79215785312499 -3.52630486250000 1.317777187500258E-002
