16

 C -2.40353748750000 -6.62546002500001 -2.46718264375000 
 C -1.17937148750000 -7.00116302500001 -1.85391264375000 
 C -2.63130948750000 -2.93949102500001 -2.25832564375000 
 C -1.33350448750000 -3.37597002500001 -1.68207464375000 
 N -0.115194487499999 -7.20743202500001 -2.68067564375000 
 N -2.40745648750000 -6.70053202500001 -3.83343364375000 
 N -2.94854148750000 -6.82577202500001 0.100350356249999 
 N -0.337686487499999 -3.46091902500001 -2.57719764375000 
 N -2.53734048750000 -2.67710602500001 -3.57359564375000 
 N -3.00214548750000 -3.09979302500001 0.272961356249999 
 S -0.816571487499999 -6.97813302500001 -4.17601664375000 
 S -3.68059848750000 -6.41473302500001 -1.23179064375000 
 S -1.32278548750000 -7.18088802500001 -0.109911643750001 
 S -0.973810487500000 -3.00662202500001 -4.08111564375000 
 S -3.82730748750000 -2.46044402500001 -1.02017764375000 
 S -1.31658048750000 -3.39322602500001 9.994135624999911E-002
