16

 C -2.32552932812500 -6.60250608749999 -2.31037335000000 
 C -0.927684328125002 -6.80899608749999 -1.88350135000000 
 C -2.57702832812500 -2.83133408749999 -2.37589035000000 
 C -1.38780032812500 -3.36991208749999 -1.71202935000000 
 N -7.492328125002778E-003 -6.94637308749999 -2.81152235000000 
 N -2.39372832812500 -6.45265908749999 -3.61740535000000 
 N -2.38441432812500 -6.92579708749999 0.260383649999998 
 N -0.369164328125002 -3.46342708749999 -2.55223335000000 
 N -2.44996432812500 -2.64950708749999 -3.68628035000000 
 N -3.09573332812500 -2.91944808749999 0.119649649999998 
 S -0.845376328125003 -6.74372808749999 -4.28034435000000 
 S -3.46657932812500 -6.76906608749999 -1.01330635000000 
 S -0.818044328125002 -7.21225608749999 -0.195621350000002 
 S -0.848378328125002 -3.10757708749999 -4.09158735000000 
 S -3.85281232812500 -2.48783208749999 -1.31743435000000 
 S -1.57374332812500 -3.44505008749999 -4.500035000000180E-002
