16

 C -2.64559023437501 -6.25656136250000 -2.29213086562500 
 C -1.43432023437501 -6.71155036250000 -1.67203786562500 
 C -2.41484423437501 -2.63778536250000 -2.43553786562500 
 C -1.20543223437501 -2.98884336250000 -1.72411186562500 
 N -0.462153234375006 -6.96162936250000 -2.52156286562500 
 N -2.58648823437501 -6.16342936250000 -3.61569286562500 
 N -3.09965023437501 -6.44374536250000 0.226121134374999 
 N -0.171816234375006 -3.31823836250000 -2.49525886562500 
 N -2.25073823437501 -2.55922036250000 -3.76003686562500 
 N -3.05133823437501 -2.78678936250000 4.469613437499942E-002
 S -1.06838123437501 -6.59932836250000 -4.01256286562500 
 S -3.92365823437501 -5.85175636250000 -1.16816386562500 
 S -1.53672523437501 -6.90140536250000 2.445813437499944E-002
 S -0.716590234375006 -2.99934036250000 -4.10886286562500 
 S -3.70267123437501 -2.31699736250000 -1.44832986562500 
 S -1.42410423437501 -3.08355136250000 -3.992186562500066E-002
