16

 C -2.26584534687500 -6.42018718750000 -2.27047478125000 
 C -1.01094734687499 -6.89283418750000 -1.82506478125000 
 C -2.66245834687499 -2.53823218750000 -2.48726678125000 
 C -1.54753834687499 -3.17618518750000 -1.80466978125000 
 N -1.692134687499447E-002 -6.88849718750000 -2.72411978125000 
 N -2.23831734687499 -6.10328718750000 -3.55480178125000 
 N -2.56709534687499 -6.68015118750000 0.237248218749998 
 N -0.502326346874995 -3.39866418750000 -2.57904578125000 
 N -2.43521734687500 -2.34370418750000 -3.76751478125000 
 N -3.33310834687499 -2.98189318750000 -2.496578125000237E-002
 S -0.733695346874994 -6.42652918750000 -4.14519078125000 
 S -3.49278134687499 -6.28328618750000 -1.09313478125000 
 S -1.00999034687499 -7.19757318750000 -0.108381781250003 
 S -0.907071346874995 -2.84749118750000 -4.14874278125000 
 S -4.04874334687499 -2.37476018750000 -1.41948178125000 
 S -1.71703834687500 -3.35458718750000 -9.776078125000254E-002
