16

 C -2.43000245624999 -6.69682544062500 -2.39674275000000 
 C -1.09097545624999 -7.03168244062500 -1.95740275000000 
 C -2.45143745624999 -2.90021344062500 -2.45090875000000 
 C -1.39971745624999 -3.51721944062500 -1.78170375000000 
 N -0.188270456249994 -7.04477244062500 -2.93403375000000 
 N -2.50130345624999 -6.47526544062500 -3.69040975000000 
 N -2.68412545624999 -7.19491944062500 3.919224999999993E-002
 N -0.320658456249994 -3.67317944062500 -2.51200775000000 
 N -2.29263645624999 -2.72549544062500 -3.72389275000000 
 N -3.13757645624999 -3.11333844062500 -4.628575000000001E-002
 S -1.00024545624999 -6.71173744062500 -4.31925175000000 
 S -3.64269045624999 -6.73380644062500 -1.23510175000000 
 S -1.06785245624999 -7.34717844062500 -0.261524750000000 
 S -0.764877456249994 -3.19253944062500 -4.06504175000000 
 S -3.82716545624999 -2.63937144062500 -1.48028475000000 
 S -1.62679545624999 -3.72670444062500 -0.107833750000000 
