16

 C -2.38520321250001 -6.62092161250000 -2.25263905312500 
 C -1.15225121250001 -6.96085261250000 -1.61349405312500 
 C -2.40882121250001 -2.63373461250000 -2.48639005312500 
 C -1.12023021250001 -3.10453161250000 -2.02602305312500 
 N -0.130926212500006 -7.02196661250000 -2.45022805312500 
 N -2.32041421250001 -6.35114361250000 -3.56442205312500 
 N -2.87607721250001 -6.68897461250000 0.221352946875002 
 N -0.244124212500006 -3.39796461250000 -2.95249805312500 
 N -2.36811321250001 -2.41541361250000 -3.78839305312500 
 N -2.64520821250001 -3.01003961250000 1.294594687500150E-002
 S -0.686413212500006 -6.60917961250000 -3.98183205312500 
 S -3.78355021250001 -6.58579661250000 -1.12571305312500 
 S -1.24616921250001 -7.11430061250000 9.673894687500151E-002
 S -0.881882212500006 -2.87871261250000 -4.39846505312500 
 S -3.56256421250001 -2.40746761250000 -1.21553805312500 
 S -1.05590621250001 -3.50563061250000 -0.353043053124998 
