16

 C -2.36480935312500 -6.34938168125000 -2.51280200312500 
 C -1.23025435312500 -6.83731768125000 -1.73539800312500 
 C -2.63723235312500 -2.48800968125000 -2.40997900312500 
 C -1.36625435312500 -2.77019868125000 -1.76450100312500 
 N -0.176488353125001 -7.04342568125000 -2.50175000312500 
 N -2.12412935312500 -6.26466368125000 -3.81271000312500 
 N -3.19347535312500 -6.53132468125000 -0.101291003125001 
 N -0.308540353125001 -2.90371768125000 -2.61149800312500 
 N -2.49644335312500 -2.39328268125000 -3.75646900312500 
 N -3.16665035312500 -2.69455168125000 4.426299687499968E-002
 S -0.505360353125001 -6.67028168125000 -4.06879400312500 
 S -3.81343835312500 -6.14176168125000 -1.56989200312500 
 S -1.60273135312500 -6.99984468125000 -6.391600312500056E-002
 S -0.862654353125001 -2.66661368125000 -4.08438900312500 
 S -4.01660135312500 -2.36717368125000 -1.36825600312500 
 S -1.56231935312500 -3.02974768125000 -3.319800312500032E-002
