16

 C -2.64668755312500 -6.44000977812500 -2.54143037187500 
 C -1.35143155312500 -6.80379877812500 -2.06913337187500 
 C -2.63133855312500 -2.82999877812500 -2.25144037187500 
 C -1.43001855312500 -3.37390477812500 -1.59130837187500 
 N -0.401630553124998 -7.08808177812499 -2.98422737187500 
 N -2.63225455312500 -6.32630877812499 -3.88263837187500 
 N -2.82968655312500 -6.55463877812500 8.134862812500065E-002
 N -0.350915553124998 -3.49296677812499 -2.39818237187500 
 N -2.49320155312500 -2.59453577812500 -3.56983137187500 
 N -3.30075355312500 -3.12936277812500 0.218750628125000 
 S -1.10486155312500 -6.69434677812500 -4.44003437187500 
 S -3.79079955312500 -6.38705177812500 -1.24047537187500 
 S -1.28157055312500 -7.10855277812500 -0.351234371875000 
 S -0.951651553124998 -3.15176077812499 -3.94823337187500 
 S -4.01317455312500 -2.61818877812499 -1.19714837187500 
 S -1.67472355312500 -3.51737177812500 9.739162812500046E-002
