16

 C -2.58900055000000 -6.48952564062500 -2.32710220000000 
 C -1.32680155000000 -6.91533464062500 -1.73400320000000 
 C -2.57134155000000 -3.10783664062500 -2.46390520000000 
 C -1.29874055000000 -3.40111964062500 -1.84286420000000 
 N -0.341299550000000 -7.01998564062500 -2.60973620000000 
 N -2.45724055000000 -6.18755864062500 -3.60134020000000 
 N -3.07223955000000 -6.77633264062500 0.166498799999998 
 N -0.262780550000000 -3.41079064062500 -2.68313020000000 
 N -2.49852855000000 -2.86302464062500 -3.77574120000000 
 N -2.96208555000000 -3.28882764062500 0.106208799999998 
 S -0.887904550000000 -6.59022664062500 -4.08178620000000 
 S -3.80871055000000 -6.25846364062500 -1.20503820000000 
 S -1.42312355000000 -7.06740164062500 6.686799999997550E-003
 S -0.854236550000000 -3.02518564062500 -4.12618020000000 
 S -3.89467955000000 -3.03960264062500 -1.27095920000000 
 S -1.40687655000000 -3.76380464062500 -0.114957200000002 
