16

 C -2.57428737187499 -6.33508221875000 -2.46427543750000 
 C -1.31377537187500 -6.62711621875000 -1.82429943750000 
 C -2.76501737187500 -2.65969721875000 -2.57058943750000 
 C -1.52645537187500 -3.06288021875000 -1.96106943750000 
 N -0.299777371874995 -6.72722121875000 -2.67945143750000 
 N -2.47567037187499 -6.07669221875000 -3.74992643750000 
 N -3.20267037187500 -6.62154721875000 -3.991343749999876E-002
 N -0.522180371874995 -3.15561421875000 -2.83143543750000 
 N -2.71003837187500 -2.46459421875000 -3.93410043750000 
 N -3.23514137187500 -3.10924821875000 -3.308643749999840E-002
 S -0.894964371874996 -6.45262021875000 -4.20968543750000 
 S -3.93494237187500 -6.38720521875000 -1.48732643750000 
 S -1.53801737187499 -6.88924721875000 -8.969443749999861E-002
 S -1.06416537187499 -2.73690721875000 -4.30084343750000 
 S -4.03662337187500 -2.43733721875000 -1.33922143750000 
 S -1.61741337187499 -3.36938621875000 -0.256287437499998 
