16

 C -2.40059078437501 -6.51970643749999 -2.43448111562500 
 C -1.15601178437501 -6.80527443749999 -1.77840611562500 
 C -2.65612478437501 -2.63684043749999 -2.42005711562500 
 C -1.42421078437501 -3.14191943749999 -1.80127211562500 
 N -0.154865784375010 -6.99965443749999 -2.62080211562500 
 N -2.34888778437501 -6.56454543749999 -3.78113111562500 
 N -2.83699278437501 -6.62702843749999 0.100425884375000 
 N -0.390419784375010 -3.45956843749999 -2.60466211562500 
 N -2.49001878437501 -2.44541043749999 -3.74427411562500 
 N -3.17005478437501 -2.80130743749999 0.165016884375000 
 S -0.766231784375010 -6.86404843749999 -4.13030811562500 
 S -3.74079278437501 -6.31851643749999 -1.21797211562500 
 S -1.25317778437501 -7.10399743749999 -4.874711562500034E-002
 S -0.943315784375010 -2.98249643749999 -4.12383611562500 
 S -3.95139078437501 -2.29053443749999 -1.25766411562500 
 S -1.65092978437501 -3.51568343749999 -9.438811562500016E-002
