16

 C -2.50397169375000 -6.87972742187500 -2.32562457187500 
 C -1.16846369375000 -7.18912742187500 -1.91381157187500 
 C -2.58953669375000 -2.84488042187500 -2.43187557187500 
 C -1.37913569375000 -3.34829642187500 -1.78357657187500 
 N -0.230137693749997 -7.28002042187500 -2.83907257187500 
 N -2.59550069375000 -6.66516742187500 -3.63655357187500 
 N -2.61931769375000 -6.88324642187500 0.197993428124998 
 N -0.356084693749997 -3.51775642187500 -2.62022657187500 
 N -2.50795169375000 -2.59461242187500 -3.74843757187500 
 N -3.25677869375000 -3.24739642187500 -1.075657187500201E-002
 S -1.08209669375000 -6.94029742187500 -4.25759057187500 
 S -3.67636169375000 -6.80662242187500 -1.04310857187500 
 S -1.02847269375000 -7.37342742187499 -0.178035571875002 
 S -0.923872693749997 -3.04950142187500 -4.07773357187500 
 S -3.91006869375000 -2.59865442187500 -1.36266557187500 
 S -1.61872669375000 -3.62972742187500 -8.615357187500217E-002
