16

 C -2.20407984375001 -6.46606022812500 -2.52171489062500 
 C -1.03023284375001 -7.01257322812500 -1.85869989062500 
 C -2.65200684375001 -2.33072422812500 -2.43198289062500 
 C -1.56015084375001 -3.06564522812500 -1.74868789062500 
 N -5.726843750008648E-003 -7.28102722812500 -2.66000489062500 
 N -2.01231684375001 -6.31834222812500 -3.84174889062500 
 N -2.76172384375001 -6.53054822812500 -2.431489062500125E-002
 N -0.552252843750009 -3.26197622812500 -2.57427989062500 
 N -2.45646584375001 -2.17693922812500 -3.74304589062500 
 N -3.26016184375001 -2.55529822812500 6.699210937499878E-002
 S -0.519505843750008 -6.84900422812500 -4.16383389062500 
 S -3.46362284375001 -6.11836022812500 -1.45180289062500 
 S -1.30413084375001 -7.35101022812500 -0.134882890625001 
 S -0.997490843750009 -2.84522522812500 -4.07871989062500 
 S -3.86402584375001 -1.87338022812500 -1.31196989062500 
 S -1.72419884375001 -3.17669522812500 -5.874189062500124E-002
