16

 C -2.67100967812500 -6.31946880937500 -2.43702599062500 
 C -1.39113567812500 -6.62805380937500 -1.84738299062500 
 C -2.49382167812500 -2.96170680937500 -2.28073699062500 
 C -1.29349067812500 -3.33054980937500 -1.66302999062500 
 N -0.339925678125004 -6.76013780937500 -2.69512599062500 
 N -2.57943067812500 -6.20808580937500 -3.76010399062500 
 N -3.19738067812500 -6.57195880937500 5.505400937500071E-002
 N -0.292866678125004 -3.47792780937500 -2.51515299062500 
 N -2.43629667812500 -2.95463980937500 -3.60629899062500 
 N -3.01303567812500 -3.05607580937500 0.214517009375001 
 S -1.05310967812500 -6.55486280937500 -4.19435499062500 
 S -4.00380667812500 -6.17145480937500 -1.34001699062500 
 S -1.58886567812500 -6.85284580937500 -9.729599062499905E-002
 S -0.830140678125004 -3.10190880937500 -4.02190999062500 
 S -3.86637067812500 -2.66694180937500 -1.19700999062500 
 S -1.41396467812500 -3.48117880937500 4.556500937500085E-002
