16

 C -2.54700613437500 -6.65638130000000 -2.35426028125000 
 C -1.33479713437500 -7.11724130000000 -1.73776128125000 
 C -2.46623013437500 -2.88095830000000 -2.36359828125000 
 C -1.27989113437500 -3.49634430000000 -1.82386528125000 
 N -0.277137134374998 -7.32264230000000 -2.53700828125000 
 N -2.45831413437500 -6.45549030000000 -3.65939728125000 
 N -3.10389113437500 -6.77498330000000 0.162348718750001 
 N -0.301535134374999 -3.68913130000000 -2.71357728125000 
 N -2.44587913437500 -2.65881130000000 -3.69338328125000 
 N -2.86057213437500 -3.34678430000000 0.160326718750001 
 S -0.933095134374998 -6.92713030000000 -4.07093228125000 
 S -3.94515113437500 -6.60341330000000 -1.28609228125000 
 S -1.55079613437500 -7.30904330000000 1.675171875000148E-002
 S -0.953619134374998 -3.16061630000000 -4.21839728125000 
 S -3.70916613437500 -2.71281430000000 -1.14614028125000 
 S -1.21005213437500 -3.63622630000000 -0.131513281249999 
