16

 C -2.26474463437500 -6.82262504062500 -2.39819270312500 
 C -1.11378163437500 -7.47799304062500 -1.81810470312500 
 C -2.68565863437500 -2.89740604062500 -2.60949570312500 
 C -1.49646563437500 -3.14883504062500 -1.86007270312500 
 N -0.182292634374996 -7.71423804062500 -2.72038570312500 
 N -2.18634663437500 -6.53143404062500 -3.74571070312500 
 N -2.83868563437500 -7.10195804062500 0.204614296874998 
 N -0.366428634374996 -3.26539104062500 -2.58371770312500 
 N -2.44846763437500 -2.78171004062500 -3.90211570312500 
 N -3.33334763437500 -2.76168504062500 -0.120493703125002 
 S -0.693794634374996 -7.05629704062500 -4.19714770312500 
 S -3.48519063437500 -6.37121204062500 -1.19065770312500 
 S -1.30083663437500 -7.60579004062500 -3.234870312500226E-002
 S -0.777781634374996 -3.16377304062500 -4.17366370312500 
 S -4.04542163437500 -2.38095004062500 -1.60185970312500 
 S -1.71499363437500 -3.17219704062500 -0.112916703125002 
