16

 C -2.46403617187500 -6.57308996875000 -2.41349700000000 
 C -1.15611617187500 -6.90692396875000 -1.79827900000000 
 C -2.20120117187500 -3.28253996875000 -2.23280300000000 
 C -0.978388171874998 -3.58977196875000 -1.55584100000000 
 N -0.180723171874998 -7.23931096875000 -2.63084100000000 
 N -2.41400517187500 -6.55270096875000 -3.75966000000000 
 N -2.84686617187500 -6.63209996875000 0.181692000000002 
 N 8.711582812500218E-002 -3.87876596875000 -2.29873000000000 
 N -2.04488917187500 -3.21138296875000 -3.58038800000000 
 N -2.73265817187500 -3.22177196875000 0.220210000000002 
 S -0.863528171874998 -6.97493396875000 -4.14097600000000 
 S -3.67056417187500 -6.39460796875000 -1.19655200000000 
 S -1.18604417187500 -6.94994896875000 -3.034799999999827E-002
 S -0.507372171874998 -3.60403796875000 -3.95682400000000 
 S -3.57188317187500 -3.12287096875000 -1.21280500000000 
 S -1.12936617187500 -3.64519496875000 0.180922000000002 
