16

 C -2.41312932812500 -6.51898378750001 -2.44113043750000 
 C -1.31345532812500 -7.06916978750001 -1.66436543750000 
 C -2.30339432812500 -2.72310778750001 -2.55655543750000 
 C -1.19151732812500 -3.31376078750001 -1.89069143750000 
 N -0.252888328125001 -7.40480778750000 -2.41740443750000 
 N -2.21848732812500 -6.45531078750001 -3.76208543750000 
 N -3.29700832812500 -6.67265478750001 8.465624999998145E-004
 N -8.448632812500101E-002 -3.54535478750001 -2.64361443750000 
 N -2.15735332812500 -2.53291378750001 -3.86821643750000 
 N -2.97891832812500 -3.01039178750001 -2.905043750000025E-002
 S -0.692818328125001 -6.95718578750001 -3.99649043750000 
 S -3.85199232812500 -6.08115478750000 -1.47691443750000 
 S -1.75061332812500 -7.12217078750001 4.938756249999976E-002
 S -0.592971328125001 -2.99716278750001 -4.22804043750000 
 S -3.68374432812500 -2.71696278750001 -1.47184843750000 
 S -1.41342532812500 -3.43826178750001 -0.140618437500000 
