16

 C -2.44073558437500 -6.35029061562500 -2.33447385625000 
 C -1.29344358437500 -6.92023461562500 -1.68135885625000 
 C -2.38360058437500 -2.23056961562500 -2.50952785625000 
 C -1.20663058437500 -2.78415561562500 -1.87863185625000 
 N -0.252351584374996 -7.04684661562500 -2.48111385625000 
 N -2.30486158437500 -6.03206761562500 -3.61392085625000 
 N -3.19094758437500 -6.65676861562500 0.143323143750001 
 N -0.131573584374996 -3.04234361562500 -2.61118685625000 
 N -2.22669358437500 -2.24990761562500 -3.86505385625000 
 N -2.89447458437500 -2.44232761562500 1.271437500012240E-004
 S -0.804979584374997 -6.58277161562500 -3.97580385625000 
 S -3.77077458437500 -5.96243061562500 -1.25593785625000 
 S -1.58291058437500 -7.23086061562500 7.157814375000138E-002
 S -0.697094584374996 -2.70547361562500 -4.22854385625000 
 S -3.58558658437500 -1.83462561562500 -1.37526085625000 
 S -1.37542858437500 -3.08857461562500 -0.202855856249998 
