16

 C -2.33936713437500 -6.34449249062500 -2.31882087500000 
 C -1.12533413437500 -6.86097549062500 -1.76860587500000 
 C -2.39645013437500 -2.92537749062500 -2.49631087500000 
 C -1.13605713437500 -3.32759649062500 -1.82505987500000 
 N -0.134296134375004 -7.04340449062500 -2.65452387500000 
 N -2.30281013437500 -6.15328749062500 -3.63785787500000 
 N -2.83565313437500 -6.83992549062500 0.139431125000002 
 N -0.100505134375004 -3.31438149062500 -2.64712787500000 
 N -2.35140613437500 -2.75000449062500 -3.78048187500000 
 N -2.99603113437500 -3.36840849062500 3.000125000001574E-003
 S -0.749291134375004 -6.46536349062500 -4.06071087500000 
 S -3.69276113437500 -6.40987049062500 -1.20241187500000 
 S -1.22318413437500 -7.24025749062500 -8.420087499999851E-002
 S -0.793155134375004 -2.96208849062500 -4.27970387500000 
 S -3.73992213437500 -2.93205549062500 -1.38536887500000 
 S -1.35495613437500 -3.63083449062500 -0.147994874999998 
