16

 C -2.36404330625000 -6.63645945000000 -2.39930119375000 
 C -1.17036930625000 -7.13765545000000 -1.71452519375000 
 C -2.40218430625000 -2.49905145000000 -2.31407619375000 
 C -1.32806930625000 -3.34888845000000 -1.74384019375000 
 N -0.152716306250005 -7.26550445000000 -2.55138319375000 
 N -2.24684230625000 -6.34140545000000 -3.71447819375000 
 N -3.01568930625000 -6.92272345000000 0.169908806250002 
 N -0.316192306250004 -3.63606745000000 -2.57981719375000 
 N -2.20691530625000 -2.22337245000000 -3.60099619375000 
 N -2.98340330625000 -2.86708245000000 0.175908806250002 
 S -0.626503306250004 -6.73308845000000 -4.03871519375000 
 S -3.70061530625000 -6.43479645000000 -1.20949419375000 
 S -1.34667230625000 -7.30912845000000 3.278280625000152E-002
 S -0.783460306250005 -2.96095045000000 -4.08771019375000 
 S -3.67966930625000 -2.09008345000000 -1.21307319375000 
 S -1.49703830625000 -3.67650845000000 -2.533019374999834E-002
