16

 C -2.29136561562501 -6.46303702812500 -2.18106272500000 
 C -1.10470261562500 -7.02401502812500 -1.50716972500000 
 C -2.41043061562501 -2.71756702812500 -2.37897172500000 
 C -1.15652561562500 -3.15483802812500 -1.71123572500000 
 N -3.140861562500508E-002 -7.22866502812500 -2.30100072500000 
 N -2.12809161562500 -6.28645502812500 -3.50126972500000 
 N -3.03035261562500 -6.75180802812501 0.261572275000001 
 N -0.146061615625005 -3.25713902812500 -2.54156672500000 
 N -2.27453661562500 -2.37720502812500 -3.66454572500000 
 N -2.95633161562500 -3.16949202812500 0.150585275000001 
 S -0.547609615625005 -6.76889602812500 -3.84789572500000 
 S -3.67532661562501 -6.27091002812500 -1.21503672500000 
 S -1.43154161562501 -7.23006802812500 0.277116275000001 
 S -0.676259615625005 -2.68533402812500 -4.04420272500000 
 S -3.79044961562500 -2.66714602812500 -1.23830172500000 
 S -1.38082861562501 -3.69013702812500 -6.041872499999945E-002
