16

 C -2.28374389687500 -6.76979674374999 -2.41797744375000 
 C -1.16043889687500 -7.47215074374999 -1.80711744375000 
 C -2.61944989687500 -2.80616974374999 -2.61694444375000 
 C -1.39845089687500 -3.06975374374999 -1.84438244375000 
 N -0.178305896874998 -7.79063874374999 -2.67172844375000 
 N -2.19733689687500 -6.60203474374999 -3.70591944375000 
 N -2.79254589687500 -7.03263074374999 9.044455624999959E-002
 N -0.322324896874998 -3.31636074374999 -2.57179444375000 
 N -2.39671689687500 -2.83644374374999 -3.94314544375000 
 N -3.34463689687500 -2.81671074374999 -9.315744375000046E-002
 S -0.640218896874998 -7.12229874374999 -4.16629844375000 
 S -3.51314789687500 -6.36009274374999 -1.25251644375000 
 S -1.21292789687500 -7.62043374374999 -2.021844375000037E-002
 S -0.820228896874998 -3.15944974374999 -4.20195144375000 
 S -4.02039489687500 -2.37031774374999 -1.55894944375000 
 S -1.71788789687500 -3.11669374374999 -0.137240443750001 
