16

 C -2.47528721562500 -6.72539918750000 -2.37029405625000 
 C -1.29791621562500 -7.19837718750000 -1.67734105625000 
 C -2.45444521562500 -2.44501318750000 -2.43031705625000 
 C -1.29914321562500 -2.97909318750000 -1.78435105625000 
 N -0.251710215625002 -7.54253918750000 -2.45813605625000 
 N -2.33766721562500 -6.56762118750000 -3.67252105625000 
 N -3.05972121562500 -6.49532018750000 0.207914943750000 
 N -0.304723215625001 -3.25387418750000 -2.62634305625000 
 N -2.37614821562500 -2.38063418750000 -3.77720405625000 
 N -3.18413121562500 -3.05483318750000 -6.260205624999982E-002
 S -0.845846215625001 -7.20514818750000 -4.00221205625000 
 S -3.75822121562500 -6.19320618750000 -1.31906705625000 
 S -1.60453521562500 -7.23739118750000 0.111682943750000 
 S -0.810986215625002 -2.78503918750000 -4.14341605625000 
 S -3.78932321562500 -2.18464418750000 -1.34486205625000 
 S -1.52593121562500 -3.37941518750000 -6.899805624999966E-002
