16

 C -2.48925322187500 -6.18064370625001 -2.47781192500000 
 C -1.38283422187500 -6.83014270625001 -1.86641492500000 
 C -2.68230222187500 -2.62555570625001 -2.44168492500000 
 C -1.50616322187500 -3.13105270625001 -1.72654892500000 
 N -0.335998221874996 -7.09552470625001 -2.66466392500000 
 N -2.38252222187500 -6.03934870625001 -3.81276192500000 
 N -3.23358822187500 -6.61860370625001 -5.165192499999938E-002
 N -0.435305221874995 -3.27404170625001 -2.46654892500000 
 N -2.42795722187500 -2.46410170625001 -3.72236792500000 
 N -3.46143222187500 -2.87334570625001 -5.239492499999976E-002
 S -0.827703221874995 -6.50376170625001 -4.18278492500000 
 S -3.86264322187500 -5.95744570625001 -1.43156692500000 
 S -1.69597222187500 -7.28767170625001 -0.224745925000000 
 S -0.845208221874995 -2.85321570625001 -3.99063892500000 
 S -4.03909122187500 -2.24936570625001 -1.49732792500000 
 S -1.86352122187500 -3.40382670625001 -1.718692499999941E-002
