16

 C -2.33922033437500 -6.38370676562501 -2.52149530625000 
 C -1.17144533437500 -6.69742176562500 -1.74909830625000 
 C -2.58903933437500 -2.72707676562500 -2.56153730625000 
 C -1.34608833437500 -3.03689376562500 -1.88436230625000 
 N -0.162826334374997 -7.14621476562500 -2.42896330625000 
 N -2.15364533437500 -6.44420676562500 -3.83211330625000 
 N -2.95906933437500 -6.41921476562500 2.169869374999966E-002
 N -0.263426334374997 -3.05415476562500 -2.65776830625000 
 N -2.45838433437500 -2.44278776562500 -3.88132530625000 
 N -3.15657433437500 -2.84564876562500 -3.670530625000024E-002
 S -0.562367334374997 -6.93536676562500 -4.02528930625000 
 S -3.71533033437500 -6.06793376562501 -1.44936230625000 
 S -1.36591833437500 -6.81806876562500 -4.533830625000035E-002
 S -0.866996334374997 -2.77577176562500 -4.18544730625000 
 S -3.93908433437500 -2.72140676562500 -1.47455030625000 
 S -1.51070733437500 -3.09159476562500 -0.133682306250000 
