16

 C -2.27364455625000 -6.30334504062500 -2.08765325625000 
 C -1.14201955625000 -6.94711104062500 -1.49830025625000 
 C -2.38491655625000 -2.64355504062500 -2.25941425625000 
 C -1.21870155625000 -3.20596704062500 -1.61155125625000 
 N -0.104709556250002 -6.94367104062500 -2.32302525625000 
 N -2.14367555625000 -5.73207704062500 -3.29218025625000 
 N -2.96324155625000 -6.72142504062500 0.351627743750002 
 N -0.160367556250002 -3.44415604062500 -2.39343425625000 
 N -2.07426055625000 -2.22627704062500 -3.48878825625000 
 N -3.08164755625000 -2.99584504062500 0.207679743750002 
 S -0.597194556250003 -6.19292404062500 -3.74680725625000 
 S -3.67278955625000 -6.14077004062500 -1.02949925625000 
 S -1.34282155625000 -7.16802004062500 0.188512743750002 
 S -0.473041556250002 -2.77646704062500 -3.84922125625000 
 S -3.75580655625000 -2.48379804062500 -1.20867125625000 
 S -1.43771955625000 -3.33435804062500 0.148345743750002 
