16

 C -2.52914660625000 -6.49356882812500 -2.38093429687500 
 C -1.28951360625000 -6.93251682812500 -1.75588129687500 
 C -2.53452460625000 -3.17864982812500 -2.35157729687500 
 C -1.26762060625000 -3.56639782812500 -1.80441129687500 
 N -0.216459606249998 -7.08963382812500 -2.53366929687500 
 N -2.33527960625000 -6.33112782812500 -3.70176729687500 
 N -3.05544160625000 -6.79088382812500 0.106597703125000 
 N -0.279637606249998 -3.53962182812500 -2.63541829687500 
 N -2.49399360625000 -2.95639982812500 -3.65422729687500 
 N -3.03366660625000 -3.30642382812500 0.169923703125000 
 S -0.743307606249997 -6.65113882812500 -4.06376029687500 
 S -3.85271760625000 -6.30423482812500 -1.27279229687500 
 S -1.39007360625000 -6.98364082812500 -5.576229687499978E-002
 S -0.922568606249998 -3.14265282812500 -4.12860829687500 
 S -3.85442260625000 -3.20469682812500 -1.26942029687500 
 S -1.40847360625000 -3.66948982812500 -3.299529687499980E-002
