16

 C -2.65343711562500 -6.66902507187500 -2.24988634687500 
 C -1.46294511562500 -7.06926507187500 -1.54521134687500 
 C -2.25259411562500 -2.60757707187500 -2.38145234687500 
 C -1.12784611562500 -3.16267407187500 -1.81098234687500 
 N -0.356544115624998 -6.97740707187500 -2.24350434687500 
 N -2.51474811562500 -6.34603807187500 -3.52715134687500 
 N -3.25296911562500 -6.92998907187500 0.260681653124998 
 N -0.140073115624998 -3.47835707187500 -2.65502934687500 
 N -2.15137411562500 -2.34659707187500 -3.67055734687500 
 N -2.95631611562500 -2.92150207187500 2.574165312499832E-002
 S -0.827017115624998 -6.49576607187500 -3.77175534687500 
 S -4.02889011562500 -6.63336607187500 -1.14109534687500 
 S -1.61653311562500 -7.24462707187500 0.134132653124998 
 S -0.581156115624998 -2.83554807187500 -4.13961934687500 
 S -3.58422511562500 -2.28729907187500 -1.37677734687500 
 S -1.43460811562500 -3.60903407187500 -0.148288346875002 
