16

 C -2.52406197499999 -6.52896101250000 -2.45574082187500 
 C -1.31269497499999 -6.98546601250000 -1.79102982187500 
 C -2.38659397499999 -2.64142901250000 -2.25038082187500 
 C -1.18321597499999 -3.20388601250000 -1.73261182187500 
 N -0.336520974999991 -7.15170501250000 -2.65025682187500 
 N -2.48795097499999 -6.37403301250000 -3.77375982187500 
 N -3.14409697499999 -6.82176201250000 0.130763178125000 
 N -0.182002974999992 -3.44068301250000 -2.55611382187500 
 N -2.33603997499999 -2.52684701250000 -3.58386082187500 
 N -2.82391097499999 -3.09307501250000 0.258681178125000 
 S -0.873287974999991 -6.74922501250000 -4.20076182187500 
 S -3.79051497499999 -6.40178501250000 -1.28219782187500 
 S -1.52148297499999 -7.22917301250000 -7.574782187500051E-002
 S -0.824775974999992 -2.91843601250000 -4.00514882187500 
 S -3.59898497499999 -2.42666901250000 -1.03276982187500 
 S -1.23335497499999 -3.52825501250000 -1.931882187500045E-002
