16

 C -2.40617062500000 -6.42632460937500 -2.62349231562500 
 C -1.17158962500000 -6.87672460937500 -1.95636731562500 
 C -2.27120562500000 -2.52312960937500 -2.54437931562500 
 C -1.03754462500000 -3.05734260937500 -2.05630031562500 
 N -0.152839625000000 -7.16259660937500 -2.78375831562500 
 N -2.24706462500000 -6.38789060937500 -3.94642631562500 
 N -2.96931462500000 -6.63129760937500 -6.116631562500041E-002
 N -7.175962500000033E-002 -3.03499660937500 -2.95477231562500 
 N -2.30938362500000 -2.20856360937500 -3.84531831562500 
 N -2.75481662500000 -3.27851160937500 -0.100248315625000 
 S -0.674920625000000 -6.80169860937500 -4.34793331562500 
 S -3.66777662500000 -6.10602460937500 -1.53895331562500 
 S -1.36999162500000 -6.95508660937500 -0.206868315625000 
 S -0.744429625000000 -2.40986560937500 -4.39825331562500 
 S -3.51947162500000 -2.62818460937500 -1.41346431562500 
 S -1.16375262500000 -3.60714960937500 -0.401064315625000 
