16

 C -2.48066438124999 -6.33889974687500 -2.39188026562500 
 C -1.22701038124999 -6.79895374687500 -1.81160326562500 
 C -2.48874638124999 -2.48173374687500 -2.31346426562500 
 C -1.32720938124999 -3.03681474687500 -1.71976226562500 
 N -0.211641381249993 -6.94701174687500 -2.69348726562500 
 N -2.32549438124999 -5.98746174687500 -3.68037326562500 
 N -2.96322238124999 -6.34461674687500 8.299373437499802E-002
 N -0.335241381249993 -3.26037774687500 -2.55580926562500 
 N -2.38719538124999 -2.42553274687500 -3.63589326562500 
 N -3.11402738124999 -2.63592574687500 0.152103734374998 
 S -0.843084381249993 -6.45062374687500 -4.16265526562500 
 S -3.75745838124999 -6.06925274687500 -1.35290826562500 
 S -1.46367438124999 -7.02251174687500 -7.575526562500201E-002
 S -0.815200381249993 -2.79714774687500 -4.09134926562500 
 S -3.72299838124999 -1.95148474687500 -1.23202726562500 
 S -1.55461138124999 -3.24387974687500 -3.398126562500203E-002
