16

 C -2.49506035625000 -6.40204889062500 -2.54909154687500 
 C -1.32006835625000 -6.76266589062500 -1.80558254687500 
 C -2.41091935625000 -2.85515089062500 -2.43996154687500 
 C -1.22925735625000 -3.21485089062500 -1.69470954687500 
 N -0.185039356250001 -7.05434289062500 -2.47673454687500 
 N -2.24801735625000 -6.47078589062500 -3.87286954687500 
 N -3.28736935625000 -6.27834089062500 -6.626454687499961E-002
 N -0.170995356250001 -3.34701689062500 -2.48395354687500 
 N -2.26807635625000 -2.67637689062500 -3.75965654687500 
 N -2.97032235625000 -2.92831589062500 0.125930453125000 
 S -0.648763356250001 -6.82521189062500 -4.06798554687500 
 S -3.91234635625000 -6.03188289062500 -1.62327554687500 
 S -1.70262935625000 -6.71716989062500 -2.028154687499972E-002
 S -0.692220356250001 -3.15231989062500 -4.02845254687500 
 S -3.69870435625000 -2.45733889062500 -1.31402554687500 
 S -1.46159435625000 -3.49022789062500 -2.151154687499979E-002
