16

 C -2.17208892812500 -6.51374391875000 -2.49714196562500 
 C -1.04680092812500 -7.08188391875000 -1.80535096562500 
 C -2.45117992812500 -2.90441291875000 -2.35739896562500 
 C -1.25131192812500 -3.35710491875000 -1.69767096562500 
 N -8.749592812500229E-002 -7.46326091875000 -2.67655596562500 
 N -2.06229592812500 -6.33336391875000 -3.82207396562500 
 N -3.01217292812500 -6.87598791875000 -8.256296562500198E-002
 N -0.236192928125003 -3.64957791875000 -2.42990896562500 
 N -2.30029992812500 -2.71875191875000 -3.68123796562500 
 N -2.96180592812500 -2.92138891875000 0.185351034374998 
 S -0.585519928125002 -6.87281291875000 -4.19266096562500 
 S -3.57327792812500 -6.18716391875000 -1.50380596562500 
 S -1.40424792812500 -7.31207491875000 -9.462996562500203E-002
 S -0.735924928125002 -3.20626091875000 -4.03239096562500 
 S -3.76954392812500 -2.69974591875000 -1.21019396562500 
 S -1.34699792812500 -3.43236691875000 2.438003437499825E-002
