16

 C -2.47285012500000 -6.58202801562500 -2.40493416562500 
 C -1.20547812500000 -6.92975001562500 -1.81422016562500 
 C -2.17818012500000 -3.26971901562500 -2.24014916562500 
 C -0.947963125000002 -3.58390301562500 -1.54075816562500 
 N -0.197652125000002 -7.20964801562500 -2.62209016562500 
 N -2.42108812500000 -6.53397301562500 -3.73411016562500 
 N -2.82690812500000 -6.66854501562500 0.190816834375000 
 N 4.764187499999828E-002 -3.90309501562500 -2.32500716562500 
 N -2.04666212500000 -3.16142101562500 -3.55087416562500 
 N -2.73321812500000 -3.23860901562500 0.208495834375000 
 S -0.879801125000002 -7.00214401562500 -4.14768016562500 
 S -3.68875112500000 -6.39404401562500 -1.17255816562500 
 S -1.18878812500000 -6.96154501562500 -3.830216562499977E-002
 S -0.519553125000002 -3.59233201562500 -3.97543916562500 
 S -3.55818112500000 -3.10484201562500 -1.21634716562500 
 S -1.13027412500000 -3.65884201562500 0.161333834375000 
