16

 C -2.58764603750001 -6.27355582812501 -2.46352108125000 
 C -1.40731203750001 -6.90474882812501 -1.89762308125000 
 C -2.41762603750001 -2.58643982812501 -2.19020908125000 
 C -1.36840903750001 -3.36528682812501 -1.64417308125000 
 N -0.448975037500007 -7.20242982812501 -2.74917308125000 
 N -2.42886103750001 -5.97741582812501 -3.74135108125000 
 N -3.03854203750001 -6.58350982812501 6.974991875000192E-002
 N -0.406475037500007 -3.70903482812501 -2.49411808125000 
 N -2.30375903750001 -2.34316382812501 -3.49240208125000 
 N -2.95214403750001 -2.76774982812501 0.296266918750002 
 S -0.978024037500007 -6.61247682812501 -4.23845508125000 
 S -3.80903103750001 -6.01635382812501 -1.28777908125000 
 S -1.57368103750001 -7.29087782812501 -0.212335081249998 
 S -0.890220037500007 -3.04241382812501 -3.95195208125000 
 S -3.79151203750001 -2.42364682812501 -1.10393108125000 
 S -1.50139303750001 -3.62469082812501 6.087291875000189E-002
