16

 C -2.37417734062500 -6.99798905312500 -2.40442936875000 
 C -1.20946234062500 -7.41572305312500 -1.70583536875000 
 C -2.74044734062500 -2.86886505312500 -2.38073836875000 
 C -1.66008534062500 -3.60324805312500 -1.77417836875000 
 N -0.119893340625001 -7.49066405312500 -2.42579436875000 
 N -2.13576534062500 -6.82469405312500 -3.69135536875000 
 N -2.99430234062500 -6.76087005312500 1.745963125000127E-002
 N -0.737392340625001 -3.91935805312500 -2.65833736875000 
 N -2.62372234062500 -2.54790105312500 -3.66691436875000 
 N -3.25516934062500 -3.04923105312500 0.163286631250001 
 S -0.531673340625002 -7.07616605312500 -3.97511936875000 
 S -3.63257534062500 -6.49754905312500 -1.44089136875000 
 S -1.40877634062500 -7.46797505312500 6.363063125000123E-002
 S -1.26840034062500 -3.40557405312500 -4.18920536875000 
 S -4.01962834062500 -2.37061905312500 -1.19127536875000 
 S -1.78659734062500 -3.81266905312500 9.043631250001294E-003
