16

 C -2.54921936562500 -6.67526624687500 -2.34228865000000 
 C -1.26457736562500 -6.79889524687500 -1.70788265000000 
 C -2.38494936562500 -2.58436324687500 -2.44100965000000 
 C -1.22495436562500 -3.25178524687500 -1.70788965000000 
 N -0.254186365625001 -6.83368424687500 -2.58774465000000 
 N -2.48025736562500 -6.57977524687501 -3.67538965000000 
 N -3.00976136562500 -6.87312324687501 0.181082349999999 
 N -0.156832365625002 -3.50597124687500 -2.48764965000000 
 N -2.14673536562500 -2.50448324687500 -3.75019365000000 
 N -3.20849136562500 -3.07614524687501 -2.174065000000125E-002
 S -0.918239365625001 -6.77144924687500 -4.07039665000000 
 S -3.85261836562500 -6.78018924687500 -1.22516765000000 
 S -1.35548336562500 -7.11603724687500 -1.285765000000128E-002
 S -0.627970365625002 -2.98397424687500 -3.99375865000000 
 S -3.78600636562500 -2.38073224687500 -1.41139665000000 
 S -1.59843036562500 -3.56070024687500 -4.446365000000108E-002
