16

 C -2.60349825937501 -6.61998080000000 -2.38363831562500 
 C -1.34514225937501 -7.06187480000000 -1.74078231562500 
 C -2.40388725937501 -2.96944280000000 -2.35000031562500 
 C -1.17877225937501 -3.55264180000000 -1.84433231562500 
 N -0.354159259375008 -7.39499579999999 -2.57519931562500 
 N -2.53441725937501 -6.56765980000000 -3.70526531562500 
 N -3.02970125937501 -6.82547180000000 0.202348684374998 
 N -0.170303259375007 -3.67150280000000 -2.73647131562500 
 N -2.39875625937501 -2.81949880000000 -3.64211031562500 
 N -2.78289425937501 -3.29831980000000 0.195181684374998 
 S -0.982194259375007 -7.00182280000000 -4.08868331562500 
 S -3.87749325937501 -6.55021280000000 -1.21502431562500 
 S -1.44943725937501 -7.24298780000000 1.664368437499819E-002
 S -0.909940259375007 -3.19589080000000 -4.25620231562500 
 S -3.63366925937501 -2.74872879999999 -1.14931931562500 
 S -1.21180725937501 -3.86419880000000 -0.119880315625002 
