16

 C -2.36596205937500 -6.41811060625000 -2.39396216562500 
 C -1.17811805937500 -6.66718460625000 -1.69370616562500 
 C -2.26017305937500 -2.85118060625000 -2.34570616562500 
 C -0.977289059375003 -3.22720360625000 -1.79663116562500 
 N -0.103366059375003 -6.76206860625000 -2.46260916562500 
 N -2.25444205937500 -6.43174960625000 -3.73060916562500 
 N -3.06289005937500 -6.45686360625000 4.652834375001857E-003
 N 6.992594062499613E-002 -3.35831360625000 -2.64320816562500 
 N -2.22289905937500 -2.72871660625000 -3.67933216562500 
 N -2.60794005937500 -3.24526560625000 0.215580834375002 
 S -0.634527059375003 -6.52497360625000 -4.02343516562500 
 S -3.85159805937500 -6.23911560625000 -1.46757816562500 
 S -1.41789005937500 -6.85470160625000 -5.643916562499807E-002
 S -0.615158059375003 -2.93351760625000 -4.14724216562500 
 S -3.51820305937500 -2.83409360625000 -1.14842016562500 
 S -0.963154059375003 -3.54564460625000 -5.352516562499798E-002
