16

 C -2.32792702500000 -6.63371695000000 -2.24807443125000 
 C -1.06514302500000 -7.02772495000000 -1.63663443125000 
 C -2.33607402500000 -2.81945095000000 -2.44632643125000 
 C -1.15395202500000 -3.12615495000000 -1.75002643125000 
 N -6.713002499999732E-002 -7.06450795000000 -2.50596343125000 
 N -2.27583002500000 -6.35682095000000 -3.55064643125000 
 N -2.92805602500000 -7.02813995000000 0.249720568750001 
 N -9.822702499999725E-002 -3.32494795000000 -2.52162043125000 
 N -2.20435002500000 -2.72877395000000 -3.76278043125000 
 N -3.07012802500000 -2.95973995000000 3.952456875000099E-002
 S -0.715594024999997 -6.66074095000000 -4.04124143125000 
 S -3.73983102500000 -6.66013395000000 -1.20377843125000 
 S -1.25635402500000 -7.31117695000000 6.579356875000109E-002
 S -0.560005024999997 -3.08236895000000 -4.08567443125000 
 S -3.76200002500000 -2.57531495000000 -1.47030443125000 
 S -1.43500302500000 -3.12505195000000 5.665756875000105E-002
