16

 C -2.50963714687500 -6.42352248750000 -2.54346192187500 
 C -1.33078914687500 -6.77829148750000 -1.80261892187500 
 C -2.40656614687500 -2.86292748750000 -2.42924492187500 
 C -1.23105614687500 -3.22184048750000 -1.70523792187500 
 N -0.197945146875004 -7.06054348750000 -2.46079492187500 
 N -2.27488414687500 -6.46694848750000 -3.85428792187500 
 N -3.27285614687500 -6.25920848750000 -5.860492187500066E-002
 N -0.174718146875003 -3.32030248750000 -2.49034592187500 
 N -2.28712914687500 -2.70771748750000 -3.75828092187500 
 N -2.97340414687500 -2.93436948750000 0.119139078124999 
 S -0.660429146875003 -6.83364648750000 -4.07204092187500 
 S -3.90492514687500 -6.01584848750000 -1.63157692187500 
 S -1.70689014687500 -6.70996048750000 -2.332492187500068E-002
 S -0.681228146875004 -3.16353548750000 -4.01378492187500 
 S -3.72137814687500 -2.47356448750000 -1.29932792187500 
 S -1.45730314687500 -3.49766748750000 -2.491792187500064E-002
