16

 C -2.34328823750000 -6.53977098437500 -2.58988935625000 
 C -1.08114623750000 -6.85807298437500 -1.90623135625000 
 C -2.54327623750000 -2.48500298437500 -2.63168735625000 
 C -1.47939623750000 -3.03463098437500 -1.82460635625000 
 N 9.582762500004449E-003 -6.97791698437500 -2.66822835625000 
 N -2.14102523750000 -6.24939998437500 -3.85560635625000 
 N -2.89286623750000 -6.50197398437500 2.203964374999989E-002
 N -0.370377237499995 -3.31483398437500 -2.50288435625000 
 N -2.27205423750000 -2.32207698437500 -3.93221935625000 
 N -3.40980423750000 -2.87537798437500 -0.225033356250000 
 S -0.543420237499995 -6.52532198437500 -4.19014135625000 
 S -3.73149923750000 -6.27769498437500 -1.47137535625000 
 S -1.28139823750000 -6.85371298437500 -8.132935624999993E-002
 S -0.655942237499995 -2.80753198437500 -4.07657935625000 
 S -3.93083023750000 -2.36893498437500 -1.70101935625000 
 S -1.82995923750000 -3.21257198437500 -0.156273356250000 
