16

 C -2.57319470937500 -6.31897131875001 -2.52292936250000 
 C -1.31759870937500 -6.68432831875001 -1.91238536250000 
 C -2.65694970937500 -2.91079531875001 -2.31736536250000 
 C -1.42861570937500 -3.31893631875001 -1.67856036250000 
 N -0.301179709374997 -6.84184431875001 -2.74474836250000 
 N -2.50586570937500 -6.25952231875001 -3.85460136250000 
 N -2.96038270937500 -6.42431531875001 5.597563750000067E-002
 N -0.457506709374997 -3.46416031875001 -2.56985336250000 
 N -2.55331070937500 -2.72491331875001 -3.62070336250000 
 N -3.16162870937500 -3.03145731875001 0.228356637500001 
 S -0.946584709374998 -6.53051131875001 -4.22257336250000 
 S -3.82526470937500 -6.17284631875001 -1.34304636250000 
 S -1.33461870937500 -6.67913131875001 -0.149250362499999 
 S -1.03142970937500 -3.18308231875001 -4.06609436250000 
 S -3.90371470937500 -2.64218431875001 -1.21726536250000 
 S -1.56562570937500 -3.43417731875001 2.895063750000082E-002
