16

 C -2.38803833437500 -6.48838921874999 -2.43149462187500 
 C -1.13144433437500 -6.82752521874999 -1.82403562187500 
 C -2.44215233437500 -3.18274621874999 -2.17764862187500 
 C -1.06433633437500 -3.34059221875000 -1.67546662187500 
 N -5.178233437500079E-002 -6.93167921874999 -2.59121362187500 
 N -2.26184433437500 -6.30133321874999 -3.73062162187500 
 N -2.92995433437500 -6.61541021874999 0.145885378125001 
 N -0.151492334375001 -3.35875121874999 -2.65187862187500 
 N -2.58816533437500 -3.12754521874999 -3.51954062187500 
 N -2.58325133437500 -3.37021621875000 0.441301378125001 
 S -0.653698334375000 -6.60527721875000 -4.14329362187500 
 S -3.72956533437500 -6.29089221875000 -1.24424962187500 
 S -1.28967533437500 -7.00399421874999 -7.613062187499930E-002
 S -1.03964833437500 -3.16199221874999 -4.06701262187500 
 S -3.59405833437500 -3.25637921874999 -0.869468621874999 
 S -0.945587334375000 -3.47840321875000 9.336337812500073E-002
