16

 C -2.49952085000000 -6.55869088124999 -2.28525898437500 
 C -1.29068484999999 -7.16371188124999 -1.75853698437500 
 C -2.67463684999999 -2.54889788124999 -2.41182698437500 
 C -1.64873184999999 -3.24655288124999 -1.66317898437500 
 N -0.260371849999995 -7.33612588124999 -2.60756898437500 
 N -2.41728884999999 -6.27674888124999 -3.59003398437500 
 N -3.00260684999999 -6.95104388124999 0.239511015624999 
 N -0.582822849999995 -3.63595888124999 -2.37720798437500 
 N -2.41304585000000 -2.33147388124999 -3.70694698437500 
 N -3.43733884999999 -2.50363588124999 0.115990015624999 
 S -0.864606849999995 -6.80343388124999 -4.06231398437500 
 S -3.77242384999999 -6.48634388124999 -1.12160298437500 
 S -1.44670284999999 -7.45972588124999 -7.183198437500105E-002
 S -0.937975849999995 -2.98548788124999 -3.93424498437500 
 S -4.05368585000000 -2.00236088124999 -1.32738498437500 
 S -1.99616585000000 -3.36647988124999 5.557501562499878E-002
