16

 C -2.42056823125000 -6.52286892812500 -2.55361589687500 
 C -1.17502523125000 -6.70265292812500 -1.84851389687500 
 C -2.42165423125000 -3.24013392812500 -2.13624689687500 
 C -1.06745323125000 -3.53412192812500 -1.53940389687500 
 N -0.101220231250001 -6.94808392812500 -2.64184389687500 
 N -2.30368023125000 -6.49988592812500 -3.89051689687500 
 N -2.95063923125000 -6.55966792812500 -6.371896874998173E-003
 N -5.773523125000057E-002 -3.60124692812500 -2.44047689687500 
 N -2.40124923125000 -3.07730592812500 -3.45377789687500 
 N -2.81149523125000 -3.60304692812500 0.408251103125002 
 S -0.681938231250001 -6.72786692812500 -4.19771889687500 
 S -3.74537523125000 -6.29238192812500 -1.47489589687500 
 S -1.27489023125000 -6.80573492812500 -0.114667896874998 
 S -0.854235231250001 -3.39308992812500 -3.90782689687500 
 S -3.71018123125000 -3.36090992812500 -0.973424896874998 
 S -1.18674523125000 -3.68409692812500 0.202609103125002 
