16

 C -2.44472828437501 -6.19424893125000 -2.34976556875000 
 C -1.28548828437501 -6.85296493125000 -1.86021956875000 
 C -2.64287328437501 -2.47465993125000 -2.66521556875000 
 C -1.41655228437501 -2.86369693125000 -2.01816756875000 
 N -0.384106284375011 -7.12283793125000 -2.81394056875000 
 N -2.38046128437501 -5.91371393125000 -3.63031756875000 
 N -2.80777328437501 -6.32579793125000 0.181398431250000 
 N -0.401067284375011 -3.07982793125000 -2.89451756875000 
 N -2.56619328437501 -2.39685093125000 -4.00305856875000 
 N -3.11085628437501 -2.45427793125000 -7.300256874999977E-002
 S -0.972580284375010 -6.57159793125000 -4.24442356875000 
 S -3.58216828437501 -5.76639093125000 -1.18023356875000 
 S -1.32798228437501 -7.09841593125000 -0.100955568750000 
 S -0.989834284375011 -2.86179393125000 -4.40336856875000 
 S -3.87004028437501 -2.06528293125000 -1.51464556875000 
 S -1.52632828437501 -2.93168193125000 -0.317802568750000 
