16

 C -2.23628804375001 -6.90804510312500 -2.53528137812500 
 C -1.04734904375001 -7.34425810312500 -1.83097337812500 
 C -2.56470604375001 -2.70428910312500 -2.56801837812500 
 C -1.35718404375001 -3.15732010312500 -1.95653837812500 
 N -3.248904375000716E-002 -7.61071210312500 -2.64671937812500 
 N -2.17614504375001 -6.93562110312500 -3.82622137812500 
 N -2.76638504375001 -6.61817210312500 -0.120713378124998 
 N -0.362445043750007 -3.49980510312500 -2.77035937812500 
 N -2.45515304375001 -2.54927710312500 -3.91102337812500 
 N -3.01690004375001 -2.65987910312500 -1.750737812499836E-002
 S -0.634281043750008 -7.43770510312500 -4.19070137812500 
 S -3.46200904375001 -6.26399810312500 -1.55965237812500 
 S -1.15918804375001 -7.20255410312500 -0.179421378124998 
 S -0.932820043750008 -2.97051310312500 -4.28439437812500 
 S -3.82160804375001 -2.33205410312500 -1.38303837812500 
 S -1.45396304375001 -3.22241010312500 -0.202916378124998 
