16

 C -2.36781779062500 -6.43350124062500 -2.31994139687500 
 C -1.08491079062500 -6.86103724062500 -1.78546139687500 
 C -2.55900379062500 -2.69345824062500 -2.39477239687500 
 C -1.44096979062500 -3.29484324062500 -1.74542239687500 
 N -0.159416790625001 -6.92870524062500 -2.71849739687500 
 N -2.33928679062500 -6.20469124062500 -3.61237339687500 
 N -2.67311379062500 -6.78428824062500 0.239694603124999 
 N -0.352122790625002 -3.45354324062500 -2.53376839687500 
 N -2.36947179062500 -2.51208724062500 -3.69926439687500 
 N -3.27250679062500 -2.98276124062500 3.303760312499948E-002
 S -0.776081790625001 -6.45332724062500 -4.14659439687500 
 S -3.57672579062500 -6.38879924062500 -1.11096439687500 
 S -1.07391079062500 -7.16901624062500 -7.529639687500067E-002
 S -0.834936790625001 -2.99735224062500 -4.05153639687500 
 S -3.92105079062500 -2.39951024062500 -1.43384139687500 
 S -1.65948679062500 -3.37923424062500 -1.502939687500060E-002
