16

 C -2.43590002812500 -6.50450463750000 -2.58251370312500 
 C -1.26964302812500 -6.92410663750000 -1.85475370312500 
 C -2.72050102812500 -2.86490763750000 -2.51963670312500 
 C -1.60892502812500 -3.50420863750000 -1.86930870312500 
 N -0.176614028124999 -7.02491363750000 -2.62794570312500 
 N -2.24596602812500 -6.24016663750000 -3.87356870312500 
 N -3.14887002812500 -6.70605063750000 8.117296874998514E-003
 N -0.531445028124999 -3.64886863750000 -2.63494370312500 
 N -2.55570302812500 -2.61853063750000 -3.83489470312500 
 N -3.39473102812500 -3.22587963750000 -1.382270312500156E-002
 S -0.632465028124999 -6.66524863750000 -4.24170470312500 
 S -3.85652102812500 -6.30910663750000 -1.48702270312500 
 S -1.59080502812500 -7.16721863750000 -0.196782703125001 
 S -1.06904602812500 -3.13467263750000 -4.16125870312500 
 S -3.96981002812500 -2.53803763750000 -1.40753770312500 
 S -1.87438802812500 -3.81540763750000 -0.168318703125001 
