16

 C -2.50167025312500 -6.36839675625000 -2.53605969375000 
 C -1.38778725312500 -7.01872075625000 -1.96767169375000 
 C -2.40182125312500 -2.61413675625000 -2.42629869375000 
 C -1.22593125312500 -3.12665475625000 -1.80439969375000 
 N -0.310444253125003 -7.08553875625000 -2.76856669375000 
 N -2.34164625312500 -5.96591175625000 -3.80017869375000 
 N -3.14228325312500 -6.77972875625000 -6.821969375000103E-002
 N -0.236741253125003 -3.52082275625000 -2.60885569375000 
 N -2.28215425312500 -2.51144875625000 -3.73423569375000 
 N -3.03550625312500 -2.63472675625000 4.595030624999885E-002
 S -0.805886253125003 -6.46464975625000 -4.21209669375000 
 S -3.80961725312500 -6.09602875625000 -1.44272069375000 
 S -1.59792225312500 -7.35580975625000 -0.256409693750001 
 S -0.762172253125003 -2.98486975625000 -4.19534469375000 
 S -3.72997325312500 -2.15892175625000 -1.36584369375000 
 S -1.53231625312500 -3.48528775625000 -0.101982693750001 
