16

 C -2.62346365312500 -6.33080185625000 -2.48721842500000 
 C -1.39636965312500 -6.94149485625000 -1.99137442500000 
 C -2.62357365312500 -2.86343185625000 -2.37360042500000 
 C -1.47601865312500 -3.22965385625000 -1.60672942500000 
 N -0.407301653124996 -7.12436585625000 -2.85219142500000 
 N -2.56846465312500 -6.07182685625000 -3.81148842500000 
 N -2.96734465312500 -6.75073785625000 7.779757500000040E-002
 N -0.423070653124997 -3.58216285625000 -2.37779242500000 
 N -2.49607165312500 -3.05531985625000 -3.69151442500000 
 N -3.26886065312500 -2.74718785625000 8.666957500000039E-002
 S -1.07938365312500 -6.65494285625000 -4.27533042500000 
 S -3.78933665312500 -6.00203685625000 -1.19270042500000 
 S -1.41879265312500 -7.22802285625000 -0.273151425000000 
 S -0.926889653124997 -3.42494385625000 -3.95990542500000 
 S -4.04752765312500 -2.54818185625000 -1.41826842500000 
 S -1.77368765312500 -3.46796385625000 0.116066575000000 
