16

 C -2.27706706875001 -6.33079563437500 -2.32764225312500 
 C -1.19086006875000 -6.94223863437500 -1.60923825312500 
 C -2.52890906875001 -2.64911763437500 -2.61160525312500 
 C -1.26665706875001 -3.01534463437500 -2.03697225312500 
 N -0.127161068750005 -7.19202863437500 -2.33782025312500 
 N -1.98036306875001 -6.11873963437500 -3.59819225312500 
 N -2.90173506875001 -6.44918363437500 0.175857746875001 
 N -0.251629068750005 -3.06617463437501 -2.86420725312500 
 N -2.48201806875000 -2.44276063437500 -3.93241725312500 
 N -2.99053206875000 -3.02440363437500 -7.704025312499940E-002
 S -0.456421068750005 -6.64010763437500 -3.88698025312500 
 S -3.59726306875000 -5.88464363437500 -1.21803725312500 
 S -1.35360906875001 -6.97724463437500 0.125567746875001 
 S -0.878910068750005 -2.66876263437501 -4.35797625312500 
 S -3.74836206875000 -2.41639963437501 -1.40663025312500 
 S -1.36014106875001 -3.38685763437500 -0.301007253124999 
