16

 C -2.24462963124999 -6.19568812187500 -2.67198424375000 
 C -1.11950563124999 -6.69877912187500 -1.90064824375000 
 C -2.43440063124999 -2.84325412187500 -2.57152224375000 
 C -1.21779063124999 -3.07776912187500 -1.88956924375000 
 N -6.533663124999478E-002 -6.95917312187500 -2.65312124375000 
 N -1.98614363124999 -5.96914412187500 -3.96790824375000 
 N -3.05781963124999 -6.31144912187500 -0.173934243750001 
 N -0.132395631249994 -3.12894412187500 -2.66605524375000 
 N -2.33133663124999 -2.74379612187500 -3.89985924375000 
 N -3.08045263124999 -3.02110812187500 -7.129424375000148E-002
 S -0.412756631249994 -6.44814612187500 -4.16160824375000 
 S -3.61090763124999 -5.80174012187500 -1.66306724375000 
 S -1.47397063124999 -6.80592912187500 -0.210294243750001 
 S -0.710023631249995 -2.97487712187500 -4.19754224375000 
 S -3.83557063124999 -2.67491312187500 -1.51106324375000 
 S -1.41942263124999 -3.28180112187500 -0.142511243750001 
