16

 C -2.61328183750000 -6.23292416875000 -2.65877102500000 
 C -1.36856383750000 -6.55984216875000 -2.01394302500000 
 C -2.48067983750000 -2.72594416875000 -2.49378702500000 
 C -1.26088083750000 -3.06150316875000 -1.87831102500000 
 N -0.335113837500000 -6.68655816875000 -2.84172702500000 
 N -2.53277983750000 -6.04613016875000 -3.97250902500000 
 N -3.25298083750000 -6.85127716875000 -0.316680025000001 
 N -0.190627837500000 -3.22113116875000 -2.66279602500000 
 N -2.38049183750000 -2.66352816875000 -3.82708302500000 
 N -2.91421783750000 -2.90837616875000 9.574197499999948E-002
 S -0.970673837500000 -6.34773416875000 -4.38074202500000 
 S -4.00825883750000 -6.21162416875000 -1.66642002500000 
 S -1.59107783750000 -6.93562016875000 -0.381481025000001 
 S -0.784461837499999 -2.99502016875000 -4.22237902500000 
 S -3.77839683750000 -2.69874816875000 -1.36062802500000 
 S -1.28395783750000 -3.14939316875000 -0.141243025000001 
