16

 C -2.30660951562500 -6.33871809687500 -2.43539569062500 
 C -1.11995251562500 -6.83130109687500 -1.83567269062500 
 C -2.27812951562500 -2.55114909687500 -2.41955069062500 
 C -1.14988851562500 -3.11253709687500 -1.68414769062500 
 N -9.975651562500243E-002 -7.07574009687500 -2.65408369062500 
 N -2.22632651562500 -6.11868309687500 -3.72366069062500 
 N -2.97716751562500 -6.69143609687500 -1.776269062499880E-002
 N -0.119456515625003 -3.39554609687500 -2.47616669062500 
 N -2.13279151562500 -2.50506009687500 -3.74126869062500 
 N -3.03975451562500 -2.91292709687500 4.996309375001173E-003
 S -0.694618515625002 -6.63024309687500 -4.17960869062500 
 S -3.70668951562500 -6.27360809687500 -1.47335669062500 
 S -1.37968251562500 -7.08351809687500 -0.105185690624999 
 S -0.604649515625002 -3.00688909687500 -4.04780569062500 
 S -3.72264151562500 -2.38093209687500 -1.45164269062500 
 S -1.35124751562500 -3.14022109687500 9.183093750011473E-004
