16

 C -2.26375962812500 -6.66755830624999 -2.39931488125000 
 C -1.16053262812500 -7.14344430624999 -1.65047488125000 
 C -2.59623562812500 -2.61210330624999 -2.31466888125000 
 C -1.56224362812500 -3.47637230624999 -1.81371488125000 
 N -0.158797628125002 -7.41848730624999 -2.43696688125000 
 N -2.08455662812500 -6.59849930624999 -3.72496788125000 
 N -3.04090362812500 -7.04330830624999 8.663311874999891E-002
 N -0.647642628125002 -3.90951130624999 -2.67116388125000 
 N -2.37749562812500 -2.37474630624999 -3.58993388125000 
 N -3.00306862812500 -2.79595930624999 0.187650118749999 
 S -0.550883628125002 -7.14051130624999 -4.04828788125000 
 S -3.71133762812500 -6.50774230624999 -1.34991088125000 
 S -1.44415062812500 -7.49310530624999 3.510118749998847E-003
 S -1.04905262812500 -3.22619830624999 -4.08864688125000 
 S -3.71637762812500 -2.01464930624999 -1.10778188125000 
 S -1.71552562812500 -3.82794130624999 -6.722088125000103E-002
