16

 C -2.19986605000000 -6.49995930000000 -2.52609088125000 
 C -1.04065005000000 -7.01236030000000 -1.84488388125000 
 C -2.62827705000000 -2.35457230000000 -2.41591888125000 
 C -1.56755705000000 -3.01456030000000 -1.77540288125000 
 N -1.068050000002430E-003 -7.30988130000000 -2.64204188125000 
 N -2.03655405000000 -6.34691930000000 -3.85015188125000 
 N -2.72847205000000 -6.53518030000000 -5.797881249999248E-003
 N -0.554228050000003 -3.21819230000000 -2.58098288125000 
 N -2.48574605000000 -2.17829930000000 -3.70302288125000 
 N -3.22854205000000 -2.61096330000000 5.209411875000081E-002
 S -0.501597050000002 -6.84034430000000 -4.15125288125000 
 S -3.45985705000000 -6.11486130000000 -1.42284988125000 
 S -1.28730605000000 -7.34880130000000 -0.123436881249999 
 S -0.996713050000002 -2.86812030000000 -4.11180888125000 
 S -3.86884505000000 -1.85707730000000 -1.31787088125000 
 S -1.70491705000000 -3.18654230000000 -4.247888124999921E-002
