16

 C -2.31766285625000 -6.54370359375000 -2.41226610937500 
 C -1.06007885625000 -7.05087759375000 -1.83270710937500 
 C -2.40474985625000 -2.99296959375000 -2.40532210937500 
 C -1.16712285625000 -3.30069759375000 -1.74860310937500 
 N -5.165485625000166E-002 -7.06178559375000 -2.70307610937500 
 N -2.20570285625000 -6.07417959375000 -3.65809710937500 
 N -2.83564685625000 -6.77223959375000 0.130336890625000 
 N -0.135661856250002 -3.38822159375000 -2.54848910937500 
 N -2.28655585625000 -2.87351459375000 -3.76404210937500 
 N -2.96308385625000 -3.44815159375000 3.832589062500014E-002
 S -0.720279856250002 -6.50824859375000 -4.16717910937500 
 S -3.57765885625000 -6.28279259375000 -1.24445610937500 
 S -1.25399485625000 -7.36126359375000 -6.021210937500010E-002
 S -0.689592856250002 -3.14160759375000 -4.09027210937500 
 S -3.76781385625000 -2.82547859375000 -1.32015210937500 
 S -1.31693085625000 -3.66485159375000 -9.558610937500012E-002
