16

 C -2.57727997812500 -6.18948755312501 -2.28361417500000 
 C -1.39972297812500 -6.87791055312501 -1.73839217500000 
 C -2.24002697812500 -2.33602655312501 -2.47129417500000 
 C -1.09906597812500 -2.92588755312501 -1.85541717500000 
 N -0.414257978125002 -7.21526355312501 -2.58850117500000 
 N -2.41613897812500 -6.00687755312501 -3.60416417500000 
 N -3.15039497812500 -6.67912655312501 0.216520824999999 
 N -5.981997812500239E-002 -3.09164955312501 -2.65808917500000 
 N -2.17971197812500 -2.22687955312501 -3.80706317500000 
 N -2.87731797812500 -2.56246755312501 -1.058175000001160E-003
 S -0.899813978125002 -6.54961455312501 -4.00062617500000 
 S -3.89671997812500 -6.06321355312501 -1.13140717500000 
 S -1.55006897812500 -7.23517355312501 -2.536217500000149E-002
 S -0.695598978125003 -2.70432755312501 -4.26277317500000 
 S -3.56246697812500 -2.01503055312501 -1.42542717500000 
 S -1.35350497812500 -3.23353355312501 -0.153452175000001 
