16

 C -2.34189921875000 -6.61124305000000 -2.36517493750000 
 C -1.18138621875000 -7.28799505000000 -1.78706793750000 
 C -2.66646121875000 -2.82641105000000 -2.57500493750000 
 C -1.46809021875000 -3.18769605000000 -1.83257693750000 
 N -0.201604218750004 -7.50190305000000 -2.67256393750000 
 N -2.29476721875000 -6.39593905000000 -3.64301693750000 
 N -2.78218121875000 -7.09245405000000 9.059906249999883E-002
 N -0.420939218750004 -3.50197505000000 -2.56514193750000 
 N -2.47396621875000 -2.76067005000000 -3.87671993750000 
 N -3.34953821875000 -2.66803005000000 -0.134107937500001 
 S -0.822700218750004 -6.96699105000000 -4.12766293750000 
 S -3.64871721875000 -6.37431105000000 -1.22734793750000 
 S -1.26913021875000 -7.72553105000000 -0.133598937500001 
 S -0.871667218750004 -3.09001205000000 -4.13140993750000 
 S -4.05148321875000 -2.54180705000000 -1.64556293750000 
 S -1.84858521875000 -3.31750105000000 -0.142940937500001 
