16

 C -2.25463775625000 -6.35942157812500 -2.44381576250000 
 C -1.14300175625000 -6.85678557812501 -1.73107776250000 
 C -2.73280575625000 -2.51277957812500 -2.50813676250000 
 C -1.48557075625000 -2.85681457812500 -1.86041276250000 
 N -4.421275625000387E-002 -6.96286057812500 -2.46531676250000 
 N -2.04855775625000 -6.14804557812501 -3.72437376250000 
 N -2.99871875625000 -6.47516857812500 -1.657176249999948E-002
 N -0.470762756250005 -2.85019357812500 -2.72725376250000 
 N -2.68628075625000 -2.30904757812500 -3.80792776250000 
 N -3.29583375625000 -2.90353857812500 7.080237500000530E-003
 S -0.458211756250004 -6.61706857812501 -4.01956776250000 
 S -3.70135475625000 -6.17691857812500 -1.47994676250000 
 S -1.44310675625000 -7.07168657812501 -6.054676249999957E-002
 S -1.03897075625000 -2.52579357812500 -4.17802976250000 
 S -4.10498975625000 -2.46269357812500 -1.39640276250000 
 S -1.66705975625000 -2.93647957812501 -7.562476249999950E-002
