16

 C -2.22294693437499 -6.35510008437501 -2.46691236562500 
 C -1.07122393437499 -6.82694408437501 -1.73995736562500 
 C -2.83196793437499 -2.55939808437501 -2.52638236562500 
 C -1.56532593437499 -2.82790608437501 -1.89886036562500 
 N 2.995806562500647E-002 -7.04756608437501 -2.47713936562500 
 N -2.02317893437499 -6.13241408437501 -3.77578536562500 
 N -2.91493793437499 -6.57033008437501 8.368863437500185E-002
 N -0.503462934374993 -2.91591808437501 -2.67809436562500 
 N -2.69918693437499 -2.31879608437501 -3.79324936562500 
 N -3.35246493437499 -2.87431208437501 -1.185136562499833E-002
 S -0.441232934374994 -6.54257608437501 -4.02019236562500 
 S -3.64277993437499 -6.16510108437501 -1.34282636562500 
 S -1.31173193437499 -7.08183908437501 -3.687736562499833E-002
 S -1.13513693437499 -2.46821608437501 -4.25957836562500 
 S -4.17474193437499 -2.47923508437501 -1.40488436562500 
 S -1.68888193437499 -3.00627808437501 -0.153005365624998 
