16

 C -2.47650714374999 -6.45845461875000 -2.51310109062500 
 C -1.30494414374999 -6.91031161875000 -1.83565409062500 
 C -2.68304414374999 -2.91579961875000 -2.48238109062500 
 C -1.47868914374999 -3.41036861875000 -1.86530909062500 
 N -0.256171143749988 -7.00149361875000 -2.64707709062500 
 N -2.33182114374999 -6.28036161875000 -3.83502809062500 
 N -3.14079914374999 -6.71608261875000 1.041890937500023E-002
 N -0.481292143749989 -3.63548561875000 -2.72657409062500 
 N -2.55544214374999 -2.60782161875000 -3.77132109062500 
 N -3.27638314374999 -3.26424861875000 3.713909375000268E-003
 S -0.730292143749988 -6.65948961875000 -4.22339109062500 
 S -3.89063314374999 -6.13675561875000 -1.35169809062500 
 S -1.53121614374999 -6.97829561875000 -8.433409062499964E-002
 S -1.01483214374999 -3.11260561875000 -4.19042609062500 
 S -4.02894614374999 -2.90295061875000 -1.45403109062500 
 S -1.73010614374999 -3.72673361875000 -0.175186090625000 
