16

 C -2.40640495625000 -6.22094402812500 -2.43209689687500 
 C -1.24580395625000 -6.73047202812500 -1.80205989687500 
 C -2.53908495625000 -2.46089302812500 -2.40568489687500 
 C -1.44268495625000 -3.10123302812500 -1.74734289687500 
 N -0.272127956249998 -6.98339302812500 -2.66865589687500 
 N -2.27443795625000 -5.89747302812500 -3.75464589687500 
 N -2.84708095625000 -6.53608302812500 0.151971103125001 
 N -0.464997956249998 -3.44553002812500 -2.54914089687500 
 N -2.35186395625000 -2.34105302812500 -3.68751089687500 
 N -3.05096395625000 -2.37398302812500 7.008810312500136E-002
 S -0.729362956249997 -6.42785002812500 -4.14740589687500 
 S -3.72714295625000 -6.08667102812500 -1.19557789687500 
 S -1.31496395625000 -7.07244902812500 -0.144763896874999 
 S -0.893722956249998 -3.02396902812500 -4.09113289687500 
 S -3.82501595625000 -2.05558002812500 -1.37427489687500 
 S -1.62688795625000 -3.24479502812500 -5.962989687499864E-002
