16

 C -2.41821690625000 -6.65190132500000 -2.28987633125000 
 C -1.13004590625000 -6.94729632500000 -1.67704233125000 
 C -2.45027790625000 -2.66386632500000 -2.49002333125000 
 C -1.27009890625000 -3.20742332500000 -1.85004133125000 
 N -0.118912906249999 -7.06117632500000 -2.55529233125000 
 N -2.35646190625000 -6.48313532500000 -3.61667433125000 
 N -2.91277390625000 -6.69548432500000 0.203579668750001 
 N -0.307832906249999 -3.54882832500000 -2.71016733125000 
 N -2.40046590625000 -2.43866632500000 -3.78818333125000 
 N -3.05879590625000 -2.93905032500000 -1.789331249999249E-003
 S -0.817955906249999 -6.76054232500000 -4.02365533125000 
 S -3.67803490625000 -6.52133432500000 -1.18684033125000 
 S -1.28826190625000 -6.92715232500000 9.192966875000064E-002
 S -0.898369906249999 -3.05115932500000 -4.19989633125000 
 S -3.75648190625000 -2.37989032500000 -1.38497033125000 
 S -1.49431590625000 -3.44276632500000 -0.132864331249999 
