16

 C -2.51380952812500 -6.53698339375000 -2.42878921562500 
 C -1.34153652812500 -6.93879839375000 -1.78387821562500 
 C -2.37868952812500 -2.67663439375000 -2.23712421562500 
 C -1.15729452812500 -3.24367439375000 -1.68194721562500 
 N -0.332982528125005 -7.12884939375000 -2.62250121562500 
 N -2.47693552812500 -6.32851739375000 -3.76731321562500 
 N -3.14246952812500 -6.82756039375000 0.161446784375000 
 N -0.185177528125005 -3.45721339375000 -2.58216121562500 
 N -2.34151452812500 -2.60801739375000 -3.56236921562500 
 N -2.83883152812500 -3.05297539375000 0.294218784375000 
 S -0.886596528125005 -6.76135639375000 -4.17363021562500 
 S -3.81737752812500 -6.40403239375000 -1.27628921562500 
 S -1.51621252812500 -7.22298839375000 -4.597821562500037E-002
 S -0.808851528125005 -2.92545639375000 -4.01149521562500 
 S -3.63891852812500 -2.43120639375000 -1.01803921562500 
 S -1.24352752812500 -3.51503839375000 1.756778437499973E-002
