16

 C -2.54820388125001 -6.20037919999999 -2.41390246875000 
 C -1.35821988125001 -6.85527719999999 -1.89043646875000 
 C -2.50631588125001 -2.44328419999999 -2.58493746875000 
 C -1.22138788125001 -2.84106619999999 -1.94324646875000 
 N -0.411365881250007 -7.16940619999999 -2.75979746875000 
 N -2.46244588125001 -6.05179319999999 -3.74059546875000 
 N -2.87670588125001 -6.30605819999999 0.113343531249999 
 N -0.315641881250007 -3.19953119999999 -2.82596446875000 
 N -2.45852088125001 -2.40373619999999 -3.90836246875000 
 N -3.05535588125001 -2.55433219999999 -0.118918468750001 
 S -0.956632881250007 -6.60807519999999 -4.22391046875000 
 S -3.72164288125001 -5.81063019999999 -1.23941246875000 
 S -1.45905088125001 -7.09222319999999 -0.176183468750001 
 S -0.932361881250007 -2.92983419999999 -4.27307146875000 
 S -3.81919888125001 -2.03815919999999 -1.52708546875000 
 S -1.44029788125001 -2.99292219999999 -0.178223468750001 
