16

 C -2.29507628437500 -6.48500858437500 -2.41064378125000 
 C -1.12871728437500 -7.05769458437500 -1.86076378125000 
 C -2.44070628437500 -2.96457058437500 -2.42341678125000 
 C -1.19758328437500 -3.38002758437500 -1.73965978125000 
 N -8.421028437499967E-002 -7.11918858437500 -2.69702878125000 
 N -2.20454328437500 -6.17311558437500 -3.70534678125000 
 N -2.76245728437500 -6.76059858437500 0.112746218750001 
 N -0.102739284375000 -3.47222058437500 -2.45372178125000 
 N -2.27718328437500 -2.90477758437500 -3.71238178125000 
 N -3.00762428437500 -3.35087558437500 7.893921875000109E-002
 S -0.634080284374999 -6.55316358437500 -4.15392878125000 
 S -3.57130828437500 -6.25116558437500 -1.25832578125000 
 S -1.27162128437500 -7.39598358437500 -0.133521781249999 
 S -0.670587284374999 -3.17451558437500 -4.09363578125000 
 S -3.74927428437500 -2.80965858437500 -1.27461878125000 
 S -1.31537628437500 -3.65384158437500 -2.201978124999870E-002
