16

 C -2.13496827187499 -6.14569781562501 -2.58031141875000 
 C -1.04716827187499 -6.66156281562501 -1.79908441875000 
 C -2.39527427187499 -2.83190881562501 -2.46807641875000 
 C -1.14031527187499 -3.15230781562501 -1.86810641875000 
 N 1.967972812500651E-002 -6.88488081562501 -2.54411641875000 
 N -1.96425827187499 -6.05536581562501 -3.88084741875000 
 N -3.00416527187499 -6.44843281562501 -0.185015418750004 
 N -0.166245271874993 -3.41197781562501 -2.70363041875000 
 N -2.27911227187499 -2.68279581562501 -3.76084541875000 
 N -2.82460627187499 -2.87776481562501 6.349581249996072E-003
 S -0.435509271874993 -6.61599981562501 -4.11297341875000 
 S -3.55358027187499 -5.88745481562501 -1.66308041875000 
 S -1.36174527187499 -6.78815681562501 -0.135104418750004 
 S -0.708291271874993 -3.06141181562501 -4.25453541875000 
 S -3.70881227187499 -2.79635381562501 -1.37811441875000 
 S -1.23613727187499 -3.28819081562501 -0.151892418750004 
