16

 C -2.34675183437500 -6.40096504374999 -2.17933983125000 
 C -1.06796983437500 -6.83023504375000 -1.72346083125000 
 C -2.46606083437500 -2.78850604375000 -2.49559483125000 
 C -1.33481183437500 -3.30294604375000 -1.79539783125000 
 N -0.100155834374999 -6.93468304375000 -2.63471683125000 
 N -2.36989683437500 -6.18452604375000 -3.49032983125000 
 N -2.61987883437500 -6.64495804375000 0.383590168750001 
 N -0.219718834374999 -3.43611804375000 -2.50785983125000 
 N -2.27146583437500 -2.59588304375000 -3.79246483125000 
 N -3.02635983437500 -2.74815104375000 5.781016875000056E-002
 S -0.831241834374999 -6.42430904374999 -4.06526583125000 
 S -3.47251883437500 -6.08179404375000 -0.963470831250000 
 S -1.05990883437500 -7.14192604375000 9.833416875000056E-002
 S -0.739080834374999 -3.05905104374999 -4.05727983125000 
 S -3.76431983437500 -2.34295704374999 -1.39016583125000 
 S -1.48928983437500 -3.39552104375000 -0.148169831249999 
