16

 C -2.16924301250000 -6.37879412187500 -2.50889345000000 
 C -1.02552901250000 -7.02253112187500 -1.88212245000000 
 C -2.65932201250000 -2.40619212187500 -2.41396345000000 
 C -1.52047101250000 -3.02385912187500 -1.75639045000000 
 N 1.401398750000293E-002 -7.26814612187500 -2.67543845000000 
 N -2.02394701250000 -6.22604112187500 -3.83079845000000 
 N -2.80351101250000 -6.55433912187500 -4.436844999999878E-002
 N -0.552898012499996 -3.45552412187500 -2.54642845000000 
 N -2.47118901250000 -2.18100012187500 -3.69376945000000 
 N -3.24866801250000 -2.44188612187500 0.106326550000001 
 S -0.514996012499997 -6.87568412187500 -4.23495545000000 
 S -3.54384301250000 -6.12128212187500 -1.49382045000000 
 S -1.33505401250000 -7.30532412187500 -0.200125449999999 
 S -0.926923012499997 -2.78159712187500 -4.05096745000000 
 S -3.95878801250000 -1.94498912187500 -1.33035445000000 
 S -1.78580901250000 -3.14126012187500 -5.498044999999863E-002
