16

 C -2.66898789687499 -6.33788460937500 -2.36844995000000 
 C -1.50115289687499 -6.98590960937500 -1.90402195000000 
 C -2.46126889687499 -2.73833060937500 -2.30632995000000 
 C -1.31994289687499 -3.44578160937500 -1.63601495000000 
 N -0.545781896874994 -7.21631460937500 -2.81630995000000 
 N -2.54743089687499 -5.96569360937500 -3.63503495000000 
 N -3.07000389687499 -6.68354460937500 0.103503049999999 
 N -0.327645896874993 -3.73407260937500 -2.48531895000000 
 N -2.27796989687499 -2.48136760937500 -3.62645295000000 
 N -3.13658389687499 -3.07720860937500 0.260646049999999 
 S -1.10335689687499 -6.49182660937500 -4.20769995000000 
 S -3.85685589687499 -5.98763660937500 -1.19999795000000 
 S -1.54967889687499 -7.31963760937500 -0.174051950000001 
 S -0.828651896874994 -3.17436160937500 -3.96559895000000 
 S -3.76212389687499 -2.42744360937500 -1.15423595000000 
 S -1.59027589687499 -3.77419060937500 5.245004999999936E-002
