16

 C -2.32767322187500 -6.28750102812500 -2.31071208750000 
 C -1.10098622187500 -6.71084602812500 -1.77263408750000 
 C -2.61349622187500 -2.55684002812500 -2.55678008750000 
 C -1.51745922187500 -3.17459402812500 -1.84707808750000 
 N -0.136376221874997 -6.97997902812500 -2.67290108750000 
 N -2.27693222187500 -6.13535002812500 -3.63968108750000 
 N -2.88888222187500 -6.72143902812500 2.244591250000094E-002
 N -0.524537221874997 -3.49296302812500 -2.61672308750000 
 N -2.38134722187500 -2.39088702812500 -3.84530708750000 
 N -3.20015422187500 -2.64875302812500 -3.355508749999903E-002
 S -0.782610221874997 -6.50100602812500 -4.13730808750000 
 S -3.54334022187500 -5.93733302812500 -1.25006108750000 
 S -1.19857322187500 -7.09920002812500 -1.139408749999893E-002
 S -0.923971221874996 -3.12534202812500 -4.20884308750000 
 S -3.87514922187500 -2.13918202812500 -1.51587308750000 
 S -1.62614522187500 -3.12046402812500 -0.111570087499999 
