16

 C -2.25644970937500 -6.41704429687500 -2.27135921562500 
 C -1.01647570937500 -6.88488129687500 -1.82460321562500 
 C -2.65892370937500 -2.53334629687500 -2.48573821562500 
 C -1.55778770937500 -3.17481529687500 -1.80194921562500 
 N -2.301470937499950E-002 -6.88356829687500 -2.72349721562500 
 N -2.23278770937500 -6.09810729687500 -3.54893121562500 
 N -2.55547770937500 -6.67878129687500 0.243466784375001 
 N -0.505175709375000 -3.37635029687500 -2.60271121562500 
 N -2.45397870937500 -2.33351129687500 -3.77719921562500 
 N -3.33951770937500 -2.97988629687500 -2.722621562499850E-002
 S -0.723383709375000 -6.43150729687500 -4.14347121562500 
 S -3.49054170937500 -6.27871029687500 -1.09463721562500 
 S -1.01027970937500 -7.19908529687500 -0.113337215624999 
 S -0.915380709374999 -2.84230329687500 -4.14346521562500 
 S -4.05686670937500 -2.36892629687500 -1.42522021562500 
 S -1.71352170937500 -3.35647629687500 -0.101387215624999 
