16

 C -2.16577107812500 -6.37500972812500 -2.33803221875000 
 C -0.933239078125003 -6.89112172812500 -1.72077121875000 
 C -2.87882607812500 -2.59127372812500 -2.56610121875000 
 C -1.62780907812500 -2.89056272812500 -1.87843621875000 
 N 0.103805921874997 -6.99459972812500 -2.58871221875000 
 N -2.07561607812500 -6.04830072812500 -3.63280421875000 
 N -2.73628907812500 -6.69238672812500 0.133961781249997 
 N -0.572659078125003 -2.93094272812500 -2.68752421875000 
 N -2.74088507812500 -2.32674872812500 -3.84121921875000 
 N -3.34444307812500 -2.83815572812500 -3.999921875000290E-002
 S -0.574746078125003 -6.49894572812500 -4.06234521875000 
 S -3.48560607812500 -6.17076672812500 -1.22796921875000 
 S -1.11541707812500 -7.12823572812500 -3.006421875000287E-002
 S -1.17840307812500 -2.53780472812500 -4.26873421875000 
 S -4.18155807812500 -2.39719072812500 -1.40342321875000 
 S -1.75156107812500 -3.25733472812500 -0.203903218750003 
