16

 C -2.43017600000001 -6.69301802500000 -2.40006655312500 
 C -1.08960000000001 -7.03172602500000 -1.96115255312500 
 C -2.45049800000001 -2.90132102500000 -2.45270555312500 
 C -1.39305100000001 -3.52241802500000 -1.78029055312500 
 N -0.185831000000007 -7.04111302500000 -2.93433355312500 
 N -2.49718400000001 -6.46805402500000 -3.69595255312500 
 N -2.69358700000001 -7.19835302500000 3.815944687500017E-002
 N -0.316441000000006 -3.68216202500000 -2.50769555312500 
 N -2.28678100000001 -2.72079902500000 -3.72511255312500 
 N -3.14278300000001 -3.11123902500000 -4.566555312499987E-002
 S -0.999277000000006 -6.70890402500000 -4.31511555312500 
 S -3.63761700000001 -6.73404002500000 -1.23777155312500 
 S -1.07100400000001 -7.34642602500000 -0.262077553125000 
 S -0.765559000000006 -3.19477402500000 -4.06683555312500 
 S -3.82283100000001 -2.64347602500000 -1.48031955312500 
 S -1.62672900000001 -3.72439702500000 -0.109262553125000 
