16

 C -2.37860933125000 -6.35237272500000 -2.52785761875000 
 C -1.24519333125000 -6.84405672500000 -1.76010361875000 
 C -2.61981733125000 -2.46891672500000 -2.43255261875000 
 C -1.34966533125000 -2.79440272500000 -1.76196361875000 
 N -0.164123331249995 -7.05114772500000 -2.49661161875000 
 N -2.13217333125000 -6.26389972500000 -3.81928161875000 
 N -3.21486533125000 -6.54184772500000 -0.106059618750000 
 N -0.292693331249996 -2.90926472500000 -2.60651461875000 
 N -2.48824333125000 -2.40454972500000 -3.76257061875000 
 N -3.16240233125000 -2.67270972500000 5.879238124999997E-002
 S -0.511453331249996 -6.67777472500000 -4.06867761875000 
 S -3.82543133125000 -6.13402272500000 -1.56066961875000 
 S -1.60842233125000 -6.99022072500000 -7.373561875000023E-002
 S -0.846793331249996 -2.67643172500000 -4.08129861875000 
 S -4.00955033125000 -2.35766372500000 -1.36298561875000 
 S -1.55608633125000 -3.03894472500000 -1.866861875000003E-002
