16

 C -2.35541974062501 -6.26102079999999 -2.16338147812500 
 C -1.22794974062501 -6.83668979999999 -1.53304747812500 
 C -2.31358474062501 -2.61079579999999 -2.17690847812500 
 C -1.16973674062501 -3.25304279999999 -1.60205247812500 
 N -0.164154740625007 -6.98676079999999 -2.30966747812500 
 N -2.12040274062501 -5.89441979999999 -3.43015947812500 
 N -2.91740374062501 -6.53347579999999 0.297898521875000 
 N -5.279574062500636E-002 -3.23964879999999 -2.34010347812500 
 N -2.12284374062501 -2.18953979999999 -3.41467747812500 
 N -3.02129774062501 -3.01559379999999 0.242839521875000 
 S -0.568356740625006 -6.29448879999999 -3.70368047812500 
 S -3.74490074062501 -6.12488079999999 -1.11992947812500 
 S -1.35654774062501 -7.17770179999999 0.145604521875000 
 S -0.615104740625006 -2.60450879999999 -3.82989847812500 
 S -3.70482874062501 -2.47817379999999 -1.18735447812500 
 S -1.43692574062501 -3.50338079999999 9.396052187500015E-002
