16

 C -2.56801790624999 -6.45511815312501 -2.47172152187500 
 C -1.31607390624999 -6.71562415312501 -1.74986852187500 
 C -2.55349890624999 -2.53510615312501 -2.40716952187500 
 C -1.40926390624999 -3.11016715312501 -1.81982952187500 
 N -0.254483906249993 -6.76671715312501 -2.56854752187500 
 N -2.37614090624999 -6.26974115312501 -3.75764852187500 
 N -3.28010890624999 -6.67157015312501 -3.700852187499937E-002
 N -0.412937906249993 -3.18788215312501 -2.68736552187500 
 N -2.51927890624999 -2.30487015312501 -3.70714652187500 
 N -3.05333390624999 -2.62098515312501 0.133837478125001 
 S -0.796899906249993 -6.47443715312501 -4.12224952187500 
 S -3.96333690624999 -6.49769115312501 -1.51107752187500 
 S -1.62127690624999 -6.92719215312501 1.041147812500065E-002
 S -0.939889906249992 -2.78524915312501 -4.20627052187500 
 S -3.84195890624999 -2.24360015312501 -1.29906052187500 
 S -1.49911190624999 -3.18544715312501 -0.111211521874999 
