16

 C -2.60326596562500 -6.67833902187500 -2.46070716562500 
 C -1.33799196562500 -6.96469902187500 -1.79247516562500 
 C -2.27312996562500 -3.13899302187500 -2.25494516562500 
 C -1.01706496562500 -3.58734302187500 -1.55698516562500 
 N -0.367572965625005 -7.18477402187500 -2.63893216562500 
 N -2.60610796562500 -6.60230302187500 -3.77194216562500 
 N -3.03669496562500 -6.73085702187500 6.314083437500062E-002
 N 6.004403437499484E-002 -3.66968102187500 -2.34361416562500 
 N -2.10994596562500 -2.90623302187500 -3.56917616562500 
 N -2.90720396562500 -3.35647202187500 0.238005834375000 
 S -1.02661096562500 -6.94291802187500 -4.14556616562500 
 S -3.90316596562500 -6.47325202187500 -1.34744916562500 
 S -1.44793296562500 -7.00726002187500 -0.105695165624999 
 S -0.527851965625005 -3.29069002187500 -3.86234316562500 
 S -3.64930096562501 -2.90817602187500 -1.19355116562500 
 S -1.31217696562500 -3.86950102187500 0.153015834375001 
