16

 C -2.27743980000000 -6.43987260937500 -2.45869630000000 
 C -1.07222080000000 -6.74529460937500 -1.69528230000000 
 C -2.57618180000000 -2.69569960937500 -2.49517930000000 
 C -1.36612680000000 -2.94677860937500 -1.75446630000000 
 N -4.016779999999720E-002 -6.88528560937500 -2.53321530000000 
 N -2.15480980000000 -6.44709260937500 -3.80661830000000 
 N -3.07037980000000 -6.43275460937500 -1.262129999999972E-002
 N -0.284781799999997 -3.03330160937500 -2.54440930000000 
 N -2.44005280000000 -2.62171860937500 -3.81209230000000 
 N -3.24029880000000 -2.91484060937500 -6.175299999999773E-003
 S -0.602948799999997 -6.83978460937500 -4.15640930000000 
 S -3.75126780000000 -6.17035960937500 -1.54845430000000 
 S -1.46237380000000 -6.82593860937500 -3.188299999999700E-003
 S -0.819969799999996 -2.77452760937500 -4.11471930000000 
 S -3.97210280000000 -2.61698960937500 -1.44051930000000 
 S -1.61755380000000 -3.24017360937500 -5.898429999999966E-002
