16

 C -2.30127020937501 -6.45240452812500 -2.31771405625000 
 C -1.08716520937501 -6.99142252812500 -1.77791305625000 
 C -2.40657320937501 -2.98791752812500 -2.44042305625000 
 C -1.15019120937501 -3.26314552812500 -1.82479005625000 
 N -0.113391209375010 -7.04616952812500 -2.68051005625000 
 N -2.27498420937501 -6.10920452812500 -3.59259205625000 
 N -2.80906220937501 -6.81683652812500 0.152635943750003 
 N -9.107220937500937E-002 -3.33544952812500 -2.66424205625000 
 N -2.31891720937501 -2.81534452812500 -3.73985605625000 
 N -2.98048120937501 -3.44480152812500 1.686694375000264E-002
 S -0.732090209375009 -6.47327752812500 -4.14957505625000 
 S -3.62445920937501 -6.33315352812500 -1.25904105625000 
 S -1.23948020937501 -7.30508052812500 -5.556105624999730E-002
 S -0.726709209375009 -3.07758552812500 -4.13872105625000 
 S -3.73756220937501 -2.87765552812500 -1.35491505625000 
 S -1.34923220937501 -3.65686252812500 -0.129320056249997 
