16

 C -2.35874605312500 -6.51840030625000 -2.45579488437500 
 C -1.15496205312500 -6.87833130625000 -1.76433288437500 
 C -2.51640705312500 -3.20964830625000 -2.30429788437500 
 C -1.27145905312500 -3.46956930625000 -1.63489888437500 
 N -5.927205312499595E-002 -6.99571430625000 -2.52139788437500 
 N -2.24272105312500 -6.43115130625000 -3.76282988437500 
 N -3.04857905312500 -6.70566630625000 1.656311562500035E-002
 N -0.238535053124996 -3.65900530625000 -2.46581188437500 
 N -2.40920805312500 -3.11712930625000 -3.63509888437500 
 N -2.97549805312500 -3.32704530625000 0.218750115625000 
 S -0.689210053124996 -6.80308530625000 -4.10189988437500 
 S -3.72655505312500 -6.35001430625000 -1.42549688437500 
 S -1.40059105312500 -6.95434030625000 2.937111562500028E-002
 S -0.831841053124996 -3.39539330625000 -4.05082988437500 
 S -3.86517605312500 -3.35191430625000 -1.19469388437500 
 S -1.29699705312500 -3.57689130625000 5.012011562500018E-002
