16

 C -2.68888611562499 -6.52237564062500 -2.40139124687500 
 C -1.47219411562499 -6.87500964062500 -1.67648324687500 
 C -2.64721111562499 -2.35297464062500 -2.37641124687500 
 C -1.53922011562499 -2.98769564062500 -1.76593024687500 
 N -0.386242115624986 -6.98093864062500 -2.42568624687500 
 N -2.45902111562499 -6.34081364062500 -3.71502424687500 
 N -3.24021211562499 -6.68736064062500 0.133416753125001 
 N -0.527620115624987 -3.19645964062500 -2.57277024687500 
 N -2.54622111562499 -2.13615764062500 -3.68351124687500 
 N -3.32353611562499 -2.89158664062500 3.756575312500066E-002
 S -0.851988115624986 -6.59163064062500 -3.93933224687500 
 S -4.04039311562499 -6.59882864062500 -1.30849824687500 
 S -1.58643211562499 -7.05462364062500 2.868275312500068E-002
 S -1.01003511562499 -2.75137364062500 -4.04355024687500 
 S -3.96279911562499 -2.15142064062500 -1.30367324687500 
 S -1.69981411562499 -3.21777764062500 -6.905324687499936E-002
