16

 C -2.80936710312501 -6.40651282500000 -2.48105794375000 
 C -1.58187810312501 -6.75210082500000 -1.78130594375000 
 C -2.36713910312501 -2.90720382500000 -2.26954094375000 
 C -1.10895010312501 -3.32030282500000 -1.60113094375000 
 N -0.533815103125007 -6.89419482500000 -2.58190394375000 
 N -2.64203810312501 -6.20643582500000 -3.79250394375000 
 N -3.34115610312501 -6.61209282500000 3.250505624999844E-002
 N -9.556010312500707E-002 -3.33058482500000 -2.46632194375000 
 N -2.24904410312501 -2.72322082500000 -3.58220594375000 
 N -2.87789810312501 -3.10797782500000 0.240451056249998 
 S -1.04871310312501 -6.47401982500000 -4.09041394375000 
 S -4.12326610312501 -6.09751682500000 -1.36566594375000 
 S -1.72155910312501 -6.99496882500000 -6.538294375000153E-002
 S -0.701206103125007 -3.16443882500000 -3.99962694375000 
 S -3.66091610312501 -2.83599282500000 -1.18246094375000 
 S -1.29769010312501 -3.48298882500000 0.108042056249998 
