16

 C -2.64817319375000 -6.32852500312500 -2.36733009062500 
 C -1.45716419375000 -6.81648700312500 -1.68951309062500 
 C -2.36461819375000 -2.70442300312500 -2.48760009062500 
 C -1.15757919375000 -3.08658800312500 -1.77234109062500 
 N -0.446004193749999 -7.06323900312500 -2.51904209062500 
 N -2.58570819375000 -6.20668600312500 -3.69411609062500 
 N -3.19156719375000 -6.26972500312500 0.196554909375003 
 N -3.395719374999828E-002 -3.22738200312500 -2.50082009062500 
 N -2.22948719375000 -2.68587200312500 -3.79626109062500 
 N -3.01787419375000 -2.83267500312500 5.714909375002852E-003
 S -1.06954319375000 -6.75462100312500 -4.06909209062500 
 S -3.96122919375000 -5.95788700312500 -1.24194109062500 
 S -1.66671019375000 -6.96781400312500 6.357490937500265E-002
 S -0.633911193749999 -3.03558900312500 -4.11031309062500 
 S -3.74739019375000 -2.35857800312500 -1.43350709062500 
 S -1.39981319375000 -3.21140000312500 -2.834909062499724E-002
