16

 C -2.31760009062499 -6.30488293750000 -2.56633848125000 
 C -1.04844309062499 -6.52419393750000 -1.81172848125000 
 C -2.53728109062499 -2.42505893750000 -2.72966348125000 
 C -1.54516809062499 -3.13722993750000 -1.98904848125000 
 N -2.264909062499321E-002 -6.82529893750000 -2.60677748125000 
 N -2.21284509062499 -6.28580593750000 -3.88551248125000 
 N -2.94218909062499 -6.66770593750000 -2.062448124999983E-002
 N -0.355179090624993 -3.20212693750000 -2.57298948125000 
 N -2.16543309062499 -1.97307893750000 -3.91645948125000 
 N -3.41986109062499 -2.62463193750000 -0.343992481250000 
 S -0.640868090624993 -6.65019293750000 -4.15267348125000 
 S -3.73403209062499 -6.39522293750000 -1.52782048125000 
 S -1.32429409062499 -6.74710093750000 -9.582548124999990E-002
 S -0.578698090624993 -2.56664093750000 -4.13645248125000 
 S -3.95779609062499 -2.01098993750000 -1.77011748125000 
 S -1.97601209062499 -3.42727193750000 -0.345306481250000 
