16

 C -2.66070236875000 -6.59628988125001 -2.13810393125000 
 C -1.43592936875000 -7.18729888125001 -1.64741793125000 
 C -2.32879036875000 -2.73094888125001 -2.33223293125000 
 C -1.16199136875000 -3.36388788125001 -1.76237893125000 
 N -0.551453368750004 -7.52451288125001 -2.60619193125000 
 N -2.56487836875000 -6.31744888125001 -3.44986593125000 
 N -2.94614836875000 -6.95873288125001 0.480809068749999 
 N -0.218063368750004 -3.65818788125001 -2.64129693125000 
 N -2.18253536875000 -2.53929988125001 -3.63135693125000 
 N -2.82358736875000 -2.96569888125001 0.136656068749999 
 S -1.13077936875000 -6.94536588125001 -4.03951793125000 
 S -3.83994336875000 -6.48792088125001 -0.856392931250001 
 S -1.43984636875000 -7.54002488125001 5.445906874999906E-002
 S -0.715158368750004 -3.13696788125001 -4.14319293125000 
 S -3.60861836875000 -2.49066188125001 -1.25808793125000 
 S -1.28673636875000 -3.44934488125001 -6.643193125000102E-002
