16

 C -2.67188065937500 -6.30090942500000 -2.44492038437500 
 C -1.41706665937500 -6.67540342500000 -1.81937638437500 
 C -2.51821465937500 -2.96012242500000 -2.29559338437500 
 C -1.23742065937500 -3.29753642500000 -1.64234038437500 
 N -0.381945659375001 -6.75838942500000 -2.66194938437500 
 N -2.60465865937500 -6.21934242500000 -3.77448938437500 
 N -3.23632965937500 -6.59479142500000 5.397361562500169E-002
 N -0.247289659375000 -3.47880542500000 -2.50792938437500 
 N -2.38429465937500 -2.94017842500000 -3.61039838437500 
 N -2.99088065937500 -3.06664842500000 0.247189615625002 
 S -1.07304265937500 -6.54414842500000 -4.16009438437500 
 S -4.01894965937500 -6.16589942500000 -1.34430638437500 
 S -1.63167965937500 -6.88505842500000 -0.105240384374998 
 S -0.802058659375001 -3.10275242500000 -4.01009938437500 
 S -3.82314265937500 -2.69253442500000 -1.19786738437500 
 S -1.39330565937500 -3.48193042500000 5.076461562500167E-002
