16

 C -2.71231469375000 -6.40859227187500 -2.61989931875000 
 C -1.49167369375000 -6.82000927187500 -1.96384931875000 
 C -2.33577069375000 -2.91779127187500 -2.42368331875000 
 C -1.06016669375000 -3.23408927187500 -1.80732131875000 
 N -0.403867693750000 -6.93970627187500 -2.72898731875000 
 N -2.54326069375000 -6.13898027187500 -3.90997331875000 
 N -3.32170969375000 -6.64385927187500 -0.136755318750002 
 N -4.899469374999921E-002 -3.28690627187500 -2.66330431875000 
 N -2.33774669375000 -2.72594427187500 -3.74479131875000 
 N -2.69125869375000 -3.01641327187500 0.142103681249998 
 S -0.943989693750000 -6.39849427187500 -4.24913731875000 
 S -4.09751769375000 -6.36104527187500 -1.61756731875000 
 S -1.76986669375000 -7.24331527187500 -0.318574318750002 
 S -0.755746693749999 -3.05457727187500 -4.18272831875000 
 S -3.60292969375000 -2.68031727187500 -1.19582931875000 
 S -1.13101169375000 -3.49887227187500 -5.697131875000183E-002
