16

 C -2.54909890937500 -6.47764711250000 -2.30581003125000 
 C -1.37409390937500 -6.90604811250000 -1.62657303125000 
 C -2.45459490937500 -2.85278611250000 -2.16001403125000 
 C -1.18960890937500 -3.24922411250000 -1.56795103125000 
 N -0.374669909375004 -7.09057211250000 -2.48159003125000 
 N -2.48684190937500 -6.25398611250000 -3.62664403125000 
 N -3.12100690937500 -6.70072911250000 0.319686968749998 
 N -0.211108909375003 -3.50711811250000 -2.40715603125000 
 N -2.40902990937500 -2.79613011250000 -3.48316003125000 
 N -2.84462890937500 -2.92906911250000 0.317897968749998 
 S -0.907873909375003 -6.60967711250000 -3.97826003125000 
 S -3.86051590937500 -6.33633311250000 -1.12555203125000 
 S -1.56264890937500 -7.10033811250000 0.118727968749998 
 S -0.804783909375003 -3.17393511250000 -3.90554203125000 
 S -3.74852990937500 -2.69151211250000 -1.08022103125000 
 S -1.24748690937500 -3.39566711250000 0.128073968749998 
