16

 C -2.54591408749999 -6.72506133437501 -2.35508849062500 
 C -1.30951708749999 -7.08439033437501 -1.75034049062500 
 C -2.51177608749999 -2.79423033437501 -2.33515649062500 
 C -1.32413908749999 -3.33910533437501 -1.74612249062500 
 N -0.237389087499994 -7.10055133437501 -2.52804949062500 
 N -2.41696008749999 -6.44900333437501 -3.62455749062500 
 N -3.09976808749999 -6.93756333437501 0.156324509375001 
 N -0.296451087499994 -3.51768733437501 -2.58272949062500 
 N -2.44858408749999 -2.71624333437501 -3.63610149062500 
 N -2.99636408749999 -3.05970533437501 0.179852509375001 
 S -0.845794087499995 -6.73853033437501 -4.06175849062500 
 S -3.88957508749999 -6.49921733437501 -1.23128049062500 
 S -1.44824108749999 -7.23261933437501 -1.273449062499932E-002
 S -0.945460087499995 -3.11223733437501 -4.13622749062500 
 S -3.77194808749999 -2.60162333437501 -1.23537649062500 
 S -1.37348908749999 -3.52314433437501 -4.720049062499942E-002
