16

 C -2.31810722812500 -6.75756568750000 -2.33445211562500 
 C -1.13416022812500 -7.39983368750000 -1.84251711562500 
 C -2.65440722812500 -2.83290168750000 -2.63195911562500 
 C -1.52949122812500 -3.23777768750000 -1.82811311562500 
 N -0.161318228125003 -7.56743468750000 -2.71881211562500 
 N -2.24008522812500 -6.42876468750000 -3.63405011562500 
 N -2.87176722812500 -7.09309368750000 0.131022884375002 
 N -0.386681228125004 -3.35792968750000 -2.52061711562500 
 N -2.45384122812500 -2.78650868750000 -3.94482111562500 
 N -3.34625122812500 -2.67144168750000 -0.145004115624998 
 S -0.774297228125003 -7.01401868750000 -4.17724211562500 
 S -3.53006822812500 -6.38900368750000 -1.17259711562500 
 S -1.31598422812500 -7.65007368750000 -0.113040115624998 
 S -0.877165228125003 -3.10700768750000 -4.10296811562500 
 S -4.02585522812500 -2.47639368750000 -1.65162511562500 
 S -1.76332722812500 -3.25617868750000 -0.139801115624998 
