16

 C -2.50278789375000 -6.36259188750001 -2.53836568125000 
 C -1.33011589375000 -6.98201988750001 -1.98409568125000 
 C -2.37286189375000 -2.60219488750001 -2.44695968125000 
 C -1.22413789375000 -3.14855288750001 -1.77525568125000 
 N -0.258097893750003 -7.08532488750001 -2.77007568125000 
 N -2.28929289375000 -6.02962388750000 -3.82001868125000 
 N -3.22030289375000 -6.76366988750001 -6.873568125000018E-002
 N -0.271673893750003 -3.55432688750001 -2.61120768125000 
 N -2.25613789375000 -2.47395888750001 -3.75717368125000 
 N -3.00551689375000 -2.65504788750001 3.128931874999985E-002
 S -0.779206893750003 -6.46678088750001 -4.19709468125000 
 S -3.80506789375000 -6.11220988750001 -1.45704468125000 
 S -1.60088689375000 -7.28665888750001 -0.200280681250000 
 S -0.734885893750003 -3.00167488750001 -4.18300568125000 
 S -3.73509189375000 -2.15893888750001 -1.35320168125000 
 S -1.50350089375000 -3.46085688750001 -0.113162681250000 
