16

 C -2.67974421875000 -6.50056108437500 -2.36357005000000 
 C -1.48559021875000 -6.89947408437500 -1.66522105000000 
 C -2.52584221875000 -2.61841308437500 -2.46962605000000 
 C -1.28048021875000 -3.11939308437500 -1.83383905000000 
 N -0.472508218749999 -7.23757608437500 -2.46839505000000 
 N -2.47589021875000 -6.37407908437500 -3.67046305000000 
 N -3.19736421875000 -6.48677908437500 0.183945950000001 
 N -0.386127218750000 -3.40038208437500 -2.75852505000000 
 N -2.51634921875000 -2.63689408437500 -3.80376305000000 
 N -2.93778121875000 -2.90362508437500 7.113295000000064E-002
 S -0.956759218749999 -6.90770008437500 -4.01170605000000 
 S -3.99094321875000 -6.18477908437500 -1.27074105000000 
 S -1.57102021875000 -6.89309008437500 9.781895000000063E-002
 S -1.01695521875000 -3.13841508437500 -4.26485905000000 
 S -3.81453321875000 -2.62283008437500 -1.26913405000000 
 S -1.34526621875000 -3.36798608437500 -0.100110049999999 
