16

 C -2.58385771875000 -6.65149893750000 -2.27174424687500 
 C -1.32878871875000 -6.84209293750000 -1.56017924687500 
 C -2.33423571875000 -2.67068193750000 -2.46000924687500 
 C -1.23701371875000 -3.28829693750000 -1.81309724687500 
 N -0.304333718749997 -6.88747693750000 -2.39858224687500 
 N -2.48426471875000 -6.47596093750000 -3.59112624687500 
 N -3.21483671875000 -6.89531293750000 0.233159753124999 
 N -9.728271874999717E-002 -3.35893493750000 -2.52121824687500 
 N -2.10619971875000 -2.42584993750000 -3.76105924687500 
 N -3.08747771875000 -3.02771593750000 -2.505924687500105E-002
 S -0.896069718749997 -6.63554693750000 -3.93207324687500 
 S -4.00448771875000 -6.68401793750000 -1.20703924687500 
 S -1.55630371875000 -7.18966493750000 0.131369753124999 
 S -0.562420718749997 -2.90461693750000 -4.05578924687500 
 S -3.64744371875000 -2.26077693750000 -1.37114224687500 
 S -1.51526071875000 -3.63702793750000 -6.072424687500089E-002
