16

 C -2.14008403125000 -6.77568259062500 -2.49419853750000 
 C -1.03725403125000 -7.38089059062500 -1.79111853750000 
 C -2.56977703125000 -2.63972759062500 -2.58872253750000 
 C -1.34267203125000 -3.03788159062500 -1.86950553750000 
 N -6.710403124999598E-002 -7.74172559062500 -2.62843253750000 
 N -2.07386803125000 -6.71655059062500 -3.81836153750000 
 N -2.74705903125000 -6.66473159062500 5.054346250000363E-002
 N -0.320998031249997 -3.35867959062500 -2.64753853750000 
 N -2.37539503125000 -2.54082959062500 -3.90566453750000 
 N -3.20559503125000 -2.82950759062500 -0.143998537499996 
 S -0.572584031249996 -7.44376959062500 -4.22789653750000 
 S -3.47369803125000 -6.41700759062500 -1.34829953750000 
 S -1.28875603125000 -7.46348659062500 -6.309253749999644E-002
 S -0.943641031249997 -3.19121459062500 -4.21498553750000 
 S -3.93966103125000 -2.41301959062500 -1.57095153750000 
 S -1.50418203125000 -3.09088459062500 -9.480253749999634E-002
