16

 C -2.44012723125000 -6.20836664687500 -2.44505196250000 
 C -1.28894423125000 -6.70686664687500 -1.79255696250000 
 C -2.39450123125000 -2.25938964687500 -2.35317896250000 
 C -1.18835923125000 -2.87139164687500 -1.83289296250000 
 N -0.184056231250000 -6.93196764687500 -2.47029396250000 
 N -2.24688223125000 -6.17769164687500 -3.73336896250000 
 N -3.12179423125000 -6.42531464687500 1.068037499998509E-003
 N -0.223849231249999 -3.18280164687500 -2.72918596250000 
 N -2.30907923125000 -1.98106764687500 -3.67564296250000 
 N -2.96659023125000 -2.88305964687500 9.168103749999856E-002
 S -0.701559231249999 -6.73342764687500 -4.05155196250000 
 S -3.78199523125000 -5.92443764687500 -1.38870296250000 
 S -1.49125623125000 -6.87446864687500 -6.812096250000144E-002
 S -0.825490231249999 -2.52608064687500 -4.15318896250000 
 S -3.77577723125000 -2.23690964687500 -1.22899196250000 
 S -1.39826823125000 -3.22869264687500 -0.143542962500002 
