16

 C -2.40445743750000 -6.65027761875000 -2.28301491875000 
 C -1.15766143750000 -6.93643361875000 -1.68400991875000 
 C -2.41461843750000 -2.68827861875000 -2.49327391875000 
 C -1.23519043750000 -3.20177061875000 -1.87675291875000 
 N -0.126134437499998 -7.06386461875000 -2.52754391875000 
 N -2.37015043750000 -6.46932461875000 -3.59882991875000 
 N -2.88952243750000 -6.71158461875000 0.233587081249999 
 N -0.274419437499999 -3.59625361875000 -2.72731191875000 
 N -2.33478843750000 -2.47844361875000 -3.83021191875000 
 N -3.04096543750000 -2.97517661875000 4.454708124999929E-002
 S -0.792064437499999 -6.74317961875000 -4.02298291875000 
 S -3.70279243750000 -6.57246161875000 -1.17093891875000 
 S -1.30542943750000 -6.91388261875000 0.124202081249999 
 S -0.883088437499999 -3.04542861875000 -4.24092091875000 
 S -3.73654443750000 -2.39040461875000 -1.38245091875000 
 S -1.47181843750000 -3.42105261875000 -0.143294918750001 
