16

 C -2.33151178750000 -6.30817196562499 -2.15032034687500 
 C -1.13619978750000 -6.90922796562499 -1.59655834687500 
 C -2.23817878750000 -2.76486796562499 -2.64829934687500 
 C -1.05529178750000 -3.10532096562499 -1.90336134687500 
 N -0.147329787500005 -7.01268996562499 -2.45691234687500 
 N -2.35407078750000 -6.09507396562499 -3.48822234687500 
 N -2.88328878750000 -6.92924996562499 0.349287653125000 
 N 7.072221249999622E-002 -3.21554796562499 -2.63993434687500 
 N -2.04505278750000 -2.63748296562499 -3.96096734687500 
 N -2.90105178750000 -2.65582996562499 -0.159946346875000 
 S -0.757064787500004 -6.46114696562499 -3.90293334687500 
 S -3.73430078750000 -6.44616096562499 -0.982776346875000 
 S -1.31574678750000 -7.45694796562499 5.917665312500042E-002
 S -0.454755787500004 -3.03344496562499 -4.21253334687500 
 S -3.58736878750000 -2.29240596562499 -1.62990134687500 
 S -1.30560278750000 -3.19467996562499 -0.170541346874999 
