16

 C -2.27399655312500 -6.30323400625000 -2.17329815625000 
 C -1.01642555312500 -6.78177000625000 -1.62901815625000 
 C -2.50706455312500 -2.77089400625001 -2.46614015625000 
 C -1.28573455312500 -3.18928900625001 -1.77991115625000 
 N -0.123983553125002 -6.87484200625001 -2.62834315625000 
 N -2.32539155312500 -6.13164800625001 -3.49596915625000 
 N -2.63994955312500 -6.66888500625001 0.452953843750000 
 N -0.189037553125002 -3.43477200625001 -2.49039515625000 
 N -2.28567555312500 -2.68223300625001 -3.78157915625000 
 N -3.00895355312500 -2.73232900625000 5.482084374999974E-002
 S -0.818775553125001 -6.37834100625001 -4.05127715625000 
 S -3.49458455312500 -6.10479900625000 -0.893538156250000 
 S -1.12283355312500 -7.18506000625000 0.121376843750000 
 S -0.690027553125002 -3.06563700625001 -4.01496815625000 
 S -3.75133255312500 -2.33237800625001 -1.39301715625000 
 S -1.52211355312500 -3.40969700625001 -9.891815625000033E-002
