16

 C -2.25708989687500 -6.39002981249999 -2.41814541250000 
 C -1.00630689687500 -6.80283881249999 -1.82907541250000 
 C -2.55523489687500 -2.79627581249999 -2.54539641250000 
 C -1.40167489687500 -3.33591081249999 -1.81758041250000 
 N 1.866910312499570E-002 -6.97045681249999 -2.64945541250000 
 N -2.18031189687500 -6.25073881249999 -3.73126341250000 
 N -2.80333589687500 -6.78231281249999 8.505958750000109E-002
 N -0.316801896875004 -3.57063881249999 -2.54784241250000 
 N -2.34827789687500 -2.63888781249999 -3.85527341250000 
 N -3.29837389687500 -2.91485981249999 -0.136587412499999 
 S -0.569480896875004 -6.57612481249999 -4.15294941250000 
 S -3.57103789687500 -6.33063081249999 -1.29985241250000 
 S -1.16476589687500 -6.88310881249999 -7.084141249999898E-002
 S -0.790072896875005 -3.23374581249999 -4.12366341250000 
 S -3.96154489687500 -2.43552081249999 -1.55233441250000 
 S -1.70340589687500 -3.32514081249999 -0.126847412499999 
