16

 C -2.53686090000000 -6.27324467187500 -2.41525163125000 
 C -1.39649490000000 -6.94611767187500 -1.87689763125000 
 C -2.66011490000000 -2.90964667187500 -2.34593263125000 
 C -1.44049090000000 -3.29872967187500 -1.63417963125000 
 N -0.453661899999999 -7.16132667187500 -2.77315463125000 
 N -2.53319390000000 -6.12575167187500 -3.71981063125000 
 N -2.94591290000000 -6.70256067187500 3.555736874999771E-002
 N -0.426712899999999 -3.58792067187500 -2.40493463125000 
 N -2.47886090000000 -2.94795267187500 -3.64236063125000 
 N -3.26958590000000 -2.71721667187500 6.305936874999762E-002
 S -1.06387090000000 -6.73097067187500 -4.24616163125000 
 S -3.78047790000000 -6.04227267187500 -1.24124663125000 
 S -1.46658890000000 -7.24781667187500 -0.260155631250002 
 S -0.913018899999999 -3.37011867187500 -3.97149563125000 
 S -4.01830990000000 -2.48041867187500 -1.39255363125000 
 S -1.75629790000000 -3.44096367187500 5.482036874999774E-002
