16

 C -2.35998807187500 -6.59082194687501 -2.35650477500000 
 C -1.09797507187500 -6.95404594687501 -1.77598877500000 
 C -2.21170307187500 -3.36696894687501 -2.24214177500000 
 C -0.997822071874996 -3.63724294687501 -1.54566377500000 
 N -0.157230071874996 -7.20045394687501 -2.65909177500000 
 N -2.33171607187500 -6.59803994687501 -3.66964477500000 
 N -2.81245207187500 -6.54769694687501 0.130016224999999 
 N 4.914192812500406E-002 -3.72167194687501 -2.36840877500000 
 N -2.11830207187500 -3.36646894687501 -3.61540477500000 
 N -2.81619407187500 -3.21644294687501 0.291455224999999 
 S -0.784636071874997 -6.91567194687501 -4.16473277500000 
 S -3.67011407187500 -6.36908894687501 -1.30700477500000 
 S -1.22410607187500 -6.90938894687501 -2.518277500000154E-002
 S -0.464675071874996 -3.63802194687501 -3.87347177500000 
 S -3.57395007187500 -3.16959694687501 -1.17321377500000 
 S -1.18164807187500 -3.59334994687501 0.180773224999999 
