16

 C -2.48337933125001 -6.55231357500000 -2.22958135312500 
 C -1.19525533125001 -6.99320857500000 -1.66268935312500 
 C -2.50500233125001 -2.84925657500000 -2.45844435312500 
 C -1.38767733125001 -3.39714657500000 -1.78387035312500 
 N -0.305994331250008 -7.12486957500000 -2.61693635312500 
 N -2.47558233125001 -6.25250757500000 -3.53736135312500 
 N -2.82058533125001 -7.09542857500000 0.352725646875000 
 N -0.313127331250008 -3.52232157500000 -2.56627735312500 
 N -2.30982133125001 -2.65108757500000 -3.73691135312500 
 N -3.24081633125001 -3.12791157500000 -3.535135312500026E-002
 S -0.906014331250008 -6.54491557500000 -4.04162535312500 
 S -3.64865933125001 -6.36776057500000 -0.891737353125000 
 S -1.26609133125001 -7.41623657500000 1.235064687499965E-002
 S -0.763949331250008 -3.17875357500000 -4.14653935312500 
 S -3.78726533125001 -2.31615457500000 -1.39414035312500 
 S -1.65553733125001 -3.60073557500000 -6.566235312500024E-002
