16

 C -2.26880650937500 -6.31508302187501 -2.40891069062500 
 C -1.14145250937500 -6.94088802187501 -1.83038969062500 
 C -2.27312750937500 -2.67765902187501 -2.42349469062500 
 C -1.12954850937500 -3.15350602187501 -1.68923469062500 
 N -0.156485509375000 -7.23699902187501 -2.64984569062500 
 N -2.08847050937500 -6.09321702187501 -3.71961069062500 
 N -2.81793250937500 -6.71573802187500 0.147281309374999 
 N -9.336350937500004E-002 -3.39934602187501 -2.48629669062500 
 N -2.03785850937500 -2.42471102187501 -3.71006269062500 
 N -2.99245150937500 -2.94174702187501 1.991730937499958E-002
 S -0.646912509375000 -6.73454602187500 -4.16927169062500 
 S -3.62637850937500 -6.21200702187501 -1.28218969062500 
 S -1.22795250937500 -7.17432502187501 -9.302369062500060E-002
 S -0.447441509375000 -2.97726002187501 -4.05063969062500 
 S -3.66717750937500 -2.41450402187501 -1.42460869062500 
 S -1.41882450937500 -3.20949302187501 -1.059869062500063E-002
