16

 C -2.40751440625001 -6.33443819687500 -2.53970837187500 
 C -1.11358640625000 -6.59045319687500 -1.94885737187500 
 C -2.81223340625001 -2.77116219687500 -2.36492237187500 
 C -1.58041040625000 -3.32361219687500 -1.69435637187500 
 N -0.135581406250004 -6.84943519687500 -2.82420837187500 
 N -2.40899040625000 -6.35245619687500 -3.86659937187500 
 N -2.79292040625000 -6.34029619687500 -1.219237187499966E-002
 N -0.565934406250005 -3.47520819687500 -2.52226637187500 
 N -2.69784240625000 -2.54490019687500 -3.67657337187500 
 N -3.27995540625000 -2.86571019687500 0.211748628125000 
 S -0.809160406250005 -6.68575219687500 -4.34763437187500 
 S -3.62202740625001 -6.09426119687500 -1.41334637187500 
 S -1.16568640625001 -6.68048719687500 -0.170625371874999 
 S -1.15035740625000 -3.12755519687500 -4.04938437187500 
 S -4.05556140625001 -2.57718119687500 -1.22221037187500 
 S -1.68331340625001 -3.26277319687500 1.403162812500036E-002
