16

 C -2.60571415312500 -6.66946171562500 -2.36146751562500 
 C -1.37884615312500 -7.07765671562500 -1.68282151562500 
 C -2.51810115312500 -2.88200771562500 -2.34365951562500 
 C -1.27328215312500 -3.43332871562500 -1.85517751562500 
 N -0.391017153125004 -7.30373971562500 -2.53133651562500 
 N -2.44893715312500 -6.52278371562500 -3.68951951562500 
 N -3.12262615312500 -6.81020171562500 0.142859484374999 
 N -0.336839153125004 -3.65616171562500 -2.72869551562500 
 N -2.41536315312500 -2.63779071562500 -3.65502851562500 
 N -2.90084315312500 -3.30546971562500 0.167797484374999 
 S -0.843279153125004 -6.83792171562500 -4.04463151562500 
 S -3.91729815312500 -6.57762871562500 -1.26623351562500 
 S -1.52032215312500 -7.30387771562500 -1.346851562500051E-002
 S -0.933120153125004 -3.15743071562500 -4.22537751562500 
 S -3.75056115312500 -2.68480371562500 -1.13990251562500 
 S -1.25425715312500 -3.56198471562500 -7.721551562500073E-002
