16

 C -2.37820269062500 -6.61767630312500 -2.36315159687500 
 C -1.09114369062500 -6.98087830312500 -1.76497859687500 
 C -2.23874069062500 -3.42264130312500 -2.24388459687500 
 C -1.03034569062500 -3.59672130312500 -1.53587259687500 
 N -8.791369062500287E-002 -7.17152530312500 -2.64884559687500 
 N -2.30258669062500 -6.58319530312500 -3.68200259687500 
 N -2.84123169062500 -6.53260330312500 9.713040312500043E-002
 N 5.110830937499689E-002 -3.69848030312500 -2.31765059687500 
 N -2.11982569062500 -3.40490330312500 -3.57297959687500 
 N -2.81573669062500 -3.24188030312500 0.287081403125000 
 S -0.770820690625003 -6.90950030312500 -4.16456359687500 
 S -3.67169669062500 -6.35268030312500 -1.31777859687500 
 S -1.22650269062500 -6.90174930312500 -2.506659687499946E-002
 S -0.484222690625002 -3.63533830312500 -3.89625559687500 
 S -3.57469869062500 -3.17805730312500 -1.17017459687500 
 S -1.20613569062500 -3.58151130312500 0.175770403125000 
