16

 C -2.29338669687500 -6.38146535000000 -2.42034123125000 
 C -1.10231869687500 -6.83036435000000 -1.74714023125000 
 C -2.54951869687500 -2.59047635000000 -2.23417323125000 
 C -1.33791969687500 -3.09548835000000 -1.71045023125000 
 N -0.125586696875003 -7.02899735000000 -2.61435123125000 
 N -2.16179069687500 -6.09749235000000 -3.72675323125000 
 N -2.83256169687500 -6.53717535000000 0.101409768750002 
 N -0.282244696875003 -3.22873435000000 -2.54504723125000 
 N -2.51683969687500 -2.37102635000000 -3.56381923125000 
 N -2.94181769687500 -2.90413835000000 0.302780768750002 
 S -0.641637696875003 -6.57078335000000 -4.09501123125000 
 S -3.62560669687500 -6.29623035000000 -1.34110623125000 
 S -1.23489969687500 -7.00798135000000 -6.410923124999823E-002
 S -0.956299696875003 -2.70445735000000 -3.95719223125000 
 S -3.83091869687500 -2.53150835000000 -1.03601023125000 
 S -1.35219969687500 -3.27702035000000 8.706676875000152E-002
