16

 C -2.44920002187500 -6.22423894062501 -2.37970188125000 
 C -1.28078902187500 -6.90582294062501 -1.85409388125000 
 C -2.60911202187500 -2.42069994062501 -2.64170288125000 
 C -1.39364802187500 -2.89518794062501 -2.02401488125000 
 N -0.383501021874999 -7.13387694062501 -2.80531988125000 
 N -2.40391702187500 -5.93376794062501 -3.68874388125000 
 N -2.85077602187500 -6.30957394062501 0.171792118750002 
 N -0.376437021874999 -3.08166494062501 -2.79813088125000 
 N -2.53705402187500 -2.42551494062501 -3.94942288125000 
 N -3.09257602187500 -2.47872494062501 -9.885388124999817E-002
 S -0.990227021874999 -6.57320794062501 -4.25064288125000 
 S -3.61459302187500 -5.77614794062501 -1.17899588125000 
 S -1.37370402187500 -7.08940394062501 -0.123485881249998 
 S -0.994366021874999 -2.87842994062501 -4.39882088125000 
 S -3.81560102187500 -2.06621194062501 -1.51634688125000 
 S -1.51632502187500 -2.94538294062501 -0.291630881249998 
