16

 C -2.33534549375000 -6.27030734375000 -2.56314778125000 
 C -1.04406449375000 -6.63403834375000 -1.99420678125000 
 C -2.81730749375000 -2.79778234375000 -2.29418278125000 
 C -1.54841249375000 -3.13559434375000 -1.63711478125000 
 N -2.215149374999648E-002 -6.85040634375000 -2.83021978125000 
 N -2.26963249375000 -6.36469734375000 -3.88964678125000 
 N -2.78711749375000 -6.38548534375000 -4.941078124999976E-002
 N -0.604638493749996 -3.43278834375000 -2.54851378125000 
 N -2.69291849375000 -2.74587234375000 -3.61692578125000 
 N -3.35908249375000 -2.80080434375000 0.182753218750000 
 S -0.757247493749996 -6.81292634375000 -4.32332378125000 
 S -3.63425249375000 -6.04985734375000 -1.44030178125000 
 S -1.14792449375000 -6.77646534375000 -0.253887781250000 
 S -1.10121049375000 -2.99799634375000 -4.04123278125000 
 S -4.15280249375000 -2.42343034375000 -1.24913678125000 
 S -1.71934549375000 -3.18349634375000 5.528921875000026E-002
