16

 C -2.36901442812500 -6.57879713750000 -2.39450868437500 
 C -1.12929242812500 -6.90122413750000 -1.74975468437500 
 C -2.20675842812500 -3.29463913750000 -2.29503468437500 
 C -0.982126428125004 -3.63647513750000 -1.57069468437500 
 N -0.190814428125004 -7.24548313750000 -2.66098668437500 
 N -2.39488642812500 -6.58457613750000 -3.74092968437500 
 N -2.82601742812500 -6.58691113750000 0.172326315625001 
 N 9.626657187499621E-002 -3.80698213750000 -2.34170368437500 
 N -2.08123342812500 -3.28829413750000 -3.59118668437500 
 N -2.77409642812500 -3.20420713750000 0.263878315625000 
 S -0.827403428125004 -6.94069913750000 -4.14740768437500 
 S -3.66919742812500 -6.38885013750000 -1.25016168437500 
 S -1.20113742812500 -6.93183013750000 -2.975968437499965E-002
 S -0.480955428125005 -3.62374113750000 -3.90003368437500 
 S -3.58075042812500 -3.14650413750000 -1.19479968437500 
 S -1.14220542812500 -3.62117613750000 0.195474315625001 
