16

 C -2.32013116875000 -6.60674052812501 -2.50572931250000 
 C -1.11652416875000 -7.09437952812501 -1.82932331250000 
 C -2.35362716875000 -2.95373252812501 -2.54286731250000 
 C -1.16239916875000 -3.42407252812501 -1.87402231250000 
 N -2.386516874999955E-002 -7.17022452812501 -2.59297331250000 
 N -2.13271916875000 -6.34356852812501 -3.79703831250000 
 N -3.01212516875000 -6.87598352812501 -8.457312500001368E-003
 N -9.590116874999932E-002 -3.55721752812501 -2.61961531250000 
 N -2.24610316875000 -2.83052552812501 -3.87329131250000 
 N -3.05534416875000 -3.21303252812501 -1.910231250000138E-002
 S -0.561335168749999 -6.64486952812501 -4.12756531250000 
 S -3.73307316875000 -6.46645952812501 -1.48429231250000 
 S -1.43357816875000 -7.39180152812501 -3.485231250000154E-002
 S -0.637379168749999 -3.17559252812501 -4.22251231250000 
 S -3.73894316875000 -2.61173252812501 -1.44062431250000 
 S -1.46258916875000 -3.74866252812501 -9.438931250000127E-002
