16

 C -2.45114264375000 -6.68028044062500 -2.24833573125000 
 C -1.13481064375000 -6.82285644062500 -1.58548573125000 
 C -2.33384564375000 -2.72773544062500 -2.50786373125000 
 C -1.05636064375000 -3.13391944062500 -1.97655773125000 
 N -8.749764375000435E-002 -6.78746744062500 -2.41361273125000 
 N -2.34757364375000 -6.57029944062500 -3.56610473125000 
 N -2.97061164375000 -6.91546644062500 0.209372268749999 
 N -0.154639643750004 -3.31940244062500 -2.94471773125000 
 N -2.33559964375000 -2.54407744062500 -3.83860573125000 
 N -2.68499164375000 -2.86296944062500 4.664726874999903E-002
 S -0.702568643750004 -6.56541244062500 -3.96980273125000 
 S -3.79059964375000 -6.63851944062500 -1.16667273125000 
 S -1.33501564375000 -7.07171644062500 0.147407268749999 
 S -0.868579643750004 -3.01808544062500 -4.45817273125000 
 S -3.55224264375000 -2.41363444062500 -1.29072173125000 
 S -1.11928864375000 -3.49273844062500 -0.256453731250001 
