16

 C -2.30883435312500 -6.19415200312500 -2.03011693125000 
 C -1.09728935312500 -6.81493100312500 -1.52938793125000 
 C -2.31581635312500 -2.54973800312500 -2.30854193125000 
 C -1.23543735312500 -3.20574900312500 -1.55267693125000 
 N -7.756935312500346E-002 -6.93914400312500 -2.42703993125000 
 N -2.10316435312500 -5.75620000312500 -3.28749193125000 
 N -2.94716535312500 -6.84334200312500 0.416836068750001 
 N -0.209767353125003 -3.53620700312500 -2.33303893125000 
 N -2.07490535312500 -2.36172700312500 -3.61606693125000 
 N -3.08586635312500 -2.99989500312500 0.187857068750001 
 S -0.614232353125003 -6.15897500312500 -3.78381993125000 
 S -3.62811435312500 -6.15669100312500 -0.946012931249999 
 S -1.35381235312500 -7.19342100312500 0.243808068750001 
 S -0.503865353125003 -2.87755400312500 -3.84341893125000 
 S -3.78779635312500 -2.45568500312500 -1.29619793125000 
 S -1.41531035312500 -3.28379300312500 0.142312068750001 
