16

 C -2.54109477812500 -6.54084245625000 -2.45049849687500 
 C -1.31792777812500 -7.03521345625000 -1.85151949687500 
 C -2.39884077812500 -2.62367945625000 -2.28023949687500 
 C -1.19584177812500 -3.17079145625000 -1.70773249687500 
 N -0.292541778125000 -7.19200645625000 -2.71106049687500 
 N -2.46662677812500 -6.43367945625000 -3.77814849687500 
 N -3.06532077812500 -6.81755645625000 7.991650312499954E-002
 N -0.201945778124999 -3.38628745625000 -2.56443549687500 
 N -2.35282477812500 -2.36701745625000 -3.58293349687500 
 N -2.79133877812500 -3.15190745625000 0.208316503125000 
 S -0.872480778124999 -6.73286045625000 -4.21272749687500 
 S -3.81542977812500 -6.37627045625000 -1.32350149687500 
 S -1.50506077812500 -7.24637745625000 -0.110859496875001 
 S -0.822465778124999 -2.91814145625000 -4.03370849687500 
 S -3.55876177812500 -2.41864745625000 -1.06594549687500 
 S -1.22152377812500 -3.54523345625000 -7.433649687500044E-002
