16

 C -2.39786045000000 -6.28290641875000 -2.35393466250000 
 C -1.27583045000000 -6.84847341875000 -1.66950066250000 
 C -2.41691245000000 -2.32302141875000 -2.47178866250000 
 C -1.23685345000000 -2.86834741875000 -1.84500466250000 
 N -0.207719449999997 -7.14406641875000 -2.41335766250000 
 N -2.21566645000000 -6.13122741875000 -3.66975266250000 
 N -3.14296645000000 -6.59114841875000 9.274633749999861E-002
 N -0.237337449999997 -3.18789341875000 -2.67348066250000 
 N -2.23284445000000 -2.13815641875000 -3.76645666250000 
 N -2.96218445000000 -2.38194941875000 -5.780662500001643E-003
 S -0.637541449999998 -6.57323641875000 -3.95673566250000 
 S -3.77574945000000 -5.95089841875000 -1.26167066250000 
 S -1.59964445000000 -7.22717541875000 -1.718966250000165E-002
 S -0.762574449999997 -2.73522341875000 -4.22663166250000 
 S -3.69271345000000 -1.86695641875000 -1.42656566250000 
 S -1.43157545000000 -2.98640641875000 -0.101864662500001 
