16

 C -2.51315324999999 -6.77384619062500 -2.43407600625000 
 C -1.18207424999999 -7.08584519062500 -1.96527200625000 
 C -2.55209724999999 -2.93215919062500 -2.47778700625000 
 C -1.39216624999999 -3.35799519062500 -1.78936600625000 
 N -0.239523249999992 -7.15451319062500 -2.91483600625000 
 N -2.56144324999999 -6.61087519062500 -3.77145600625000 
 N -2.65036624999999 -7.02334019062500 0.212660993750001 
 N -0.294748249999992 -3.56354419062500 -2.53303000625000 
 N -2.38706424999999 -2.73704619062500 -3.79861600625000 
 N -3.25136024999999 -3.15415319062500 4.979799375000082E-002
 S -1.02102024999999 -6.81535819062500 -4.31958000625000 
 S -3.63352424999999 -6.77619119062500 -1.07769000625000 
 S -1.02221624999999 -7.37369719062500 -0.215951006249999 
 S -0.796139249999992 -3.11297819062500 -4.13449100625000 
 S -3.92511024999999 -2.56679719062500 -1.35859300625000 
 S -1.64566424999999 -3.74254919062500 -8.634600624999900E-002
