16

 C -2.44211711562500 -6.58703175625001 -2.45962195937500 
 C -1.19391111562500 -6.82222175625001 -1.70094395937500 
 C -2.21601511562500 -2.92750275625001 -2.19277495937500 
 C -0.924077115625000 -3.33846375625001 -1.64867895937500 
 N -0.134805115625000 -6.80183575625001 -2.50454195937500 
 N -2.27813411562500 -6.31583575625000 -3.74911095937500 
 N -3.05629511562500 -6.64750775625001 0.131054040625001 
 N 7.973088437499953E-002 -3.37056075625001 -2.50615395937500 
 N -2.22270011562500 -2.71440475625001 -3.50014595937500 
 N -2.65438111562500 -3.23745875625001 0.328059040625001 
 S -0.617169115625000 -6.50145775625001 -4.07889095937500 
 S -3.80290611562500 -6.41419275625000 -1.35702995937500 
 S -1.39358311562500 -6.86803775625001 5.560004062500146E-002
 S -0.690572115625000 -3.03674575625001 -4.02581995937500 
 S -3.50288711562500 -2.87664175625001 -1.07269995937500 
 S -0.994532115625000 -3.56992075625001 0.137223040625001 
