16

 C -2.52274718437500 -6.20008293750000 -2.41729010000000 
 C -1.35432418437500 -6.87562893750000 -1.90534110000000 
 C -2.51227718437500 -2.43471793750000 -2.60679810000000 
 C -1.26013918437500 -2.85500093750000 -1.93157910000000 
 N -0.364634184375004 -7.18352493750000 -2.76562610000000 
 N -2.45981918437500 -6.02587893750000 -3.73577510000000 
 N -2.84983018437500 -6.31815993750000 0.133730900000002 
 N -0.310594184375004 -3.17271293750000 -2.82236510000000 
 N -2.48089118437500 -2.41726593750000 -3.94608910000000 
 N -3.04842818437500 -2.53979093750000 -0.134973099999998 
 S -0.976025184375004 -6.59316593750000 -4.23105910000000 
 S -3.69966318437500 -5.79977193750000 -1.22004210000000 
 S -1.45344918437500 -7.08372593750000 -0.159918099999998 
 S -0.964556184375004 -2.91432593750000 -4.29527410000000 
 S -3.81879118437500 -2.04117293750000 -1.52405610000000 
 S -1.45749718437500 -2.98504693750000 -0.198943099999997 
