16

 C -2.53645525312499 -6.57883136562500 -2.26600026250000 
 C -1.26450825312499 -6.80602536562500 -1.65880426250000 
 C -2.34547925312499 -2.71752136562500 -2.41691126250000 
 C -1.25137525312500 -3.20769936562500 -1.74776626250000 
 N -0.238647253124995 -6.82652736562500 -2.49099826250000 
 N -2.50560025312500 -6.56903936562500 -3.58039026250000 
 N -3.09130625312500 -6.86339636562500 0.210064737499997 
 N -0.157394253124995 -3.45212036562500 -2.46905426250000 
 N -2.16102025312500 -2.46611836562500 -3.71674826250000 
 N -3.15553425312500 -3.09757736562500 5.824737499997346E-003
 S -0.918608253124995 -6.73730136562500 -4.04606126250000 
 S -3.91473925312500 -6.75820736562500 -1.23560526250000 
 S -1.49518525312499 -7.14827136562500 4.703773749999729E-002
 S -0.565148253124995 -2.95326236562500 -4.01008626250000 
 S -3.70529125312499 -2.31905836562500 -1.39225426250000 
 S -1.59488025312499 -3.57630336562500 -0.108125262500003 
