16

 C -2.29853694062499 -6.51442078125000 -2.22816204062500 
 C -1.15132594062499 -7.04284678125000 -1.51314104062500 
 C -2.43901294062499 -2.70918278125000 -2.35944104062500 
 C -1.18830294062499 -3.15738978125000 -1.69685704062500 
 N -7.359094062499416E-002 -7.21589378125000 -2.26245804062500 
 N -2.13871194062499 -6.32032878125000 -3.51311804062500 
 N -3.06364194062499 -6.74610878125000 0.225770959375002 
 N -0.187102940624994 -3.20093778125000 -2.56520604062500 
 N -2.29709294062499 -2.42610178125000 -3.65148204062500 
 N -2.98900994062499 -3.19782678125000 0.127777959375002 
 S -0.529254940624995 -6.76199278125000 -3.84548904062500 
 S -3.71789494062499 -6.22991278125000 -1.21554004062500 
 S -1.44011794062499 -7.22828578125000 0.267817959375002 
 S -0.639632940624995 -2.67324178125000 -4.05182704062500 
 S -3.77598394062499 -2.68330878125000 -1.27209404062500 
 S -1.38358294062499 -3.67883178125000 -7.292004062499791E-002
