16

 C -2.19680780000000 -6.49849670312500 -2.48952973437500 
 C -1.06562280000000 -7.07206270312500 -1.83203773437500 
 C -2.45418180000000 -2.87407970312500 -2.36855773437500 
 C -1.26650080000000 -3.34951770312500 -1.66316973437500 
 N -0.108881799999998 -7.48716170312500 -2.66824273437500 
 N -2.07155180000000 -6.35500470312500 -3.80309073437500 
 N -3.00807680000000 -6.88846570312500 -9.473773437499799E-002
 N -0.216898799999997 -3.63726470312500 -2.41802773437500 
 N -2.30404980000000 -2.72343770312500 -3.69938873437500 
 N -2.96832980000000 -2.93303670312500 0.192609265625002 
 S -0.575411799999998 -6.88641770312500 -4.18391273437500 
 S -3.58183780000000 -6.18172870312500 -1.51322673437500 
 S -1.40677580000000 -7.30243870312500 -0.100291734374998 
 S -0.740312799999998 -3.20454270312500 -4.05220973437500 
 S -3.76827880000000 -2.68892570312500 -1.20086273437500 
 S -1.36017180000000 -3.41751770312500 6.259265625002230E-003
