16

 C -2.36569856875000 -6.29620887187501 -2.54719517812500 
 C -1.25081556875000 -6.91272087187501 -1.90646617812500 
 C -2.23161956875000 -2.83956487187501 -2.33508717812500 
 C -0.944766568749997 -3.44234987187501 -1.82252017812500 
 N -0.169721568749996 -7.03120187187501 -2.67137917812500 
 N -2.17712056875000 -6.07986387187501 -3.84006717812500 
 N -3.04169656875000 -6.54568787187501 -8.000417812499805E-002
 N 9.243431250003376E-003 -3.59050387187501 -2.73482817812500 
 N -2.20537156875000 -2.50365487187501 -3.62435017812500 
 N -2.57772756875000 -3.36021887187501 0.220679821875002 
 S -0.596412568749996 -6.53820787187501 -4.21279517812500 
 S -3.69357156875000 -5.95940587187501 -1.47338617812500 
 S -1.50440556875000 -7.04860687187501 -0.223377178124998 
 S -0.649763568749997 -2.86265987187501 -4.12318717812500 
 S -3.50860956875000 -2.92027087187501 -1.10558717812500 
 S -1.04818856875000 -3.89724087187501 -0.186808178124998 
