16

 C -2.38669713750001 -6.37101613125001 -2.55435972812500 
 C -1.18651513750001 -6.67906913125001 -1.82337772812500 
 C -2.42981613750001 -2.85141113125001 -2.50196172812500 
 C -1.14379813750001 -3.21926713125001 -1.90813072812500 
 N -0.136776137500006 -6.87583913125001 -2.64388372812500 
 N -2.21485713750001 -6.24260513125001 -3.86773672812500 
 N -3.11261013750001 -6.33568413125001 -6.398472812500056E-002
 N -0.102865137500006 -3.22983013125001 -2.75250272812500 
 N -2.32292213750001 -2.67779413125001 -3.81468672812500 
 N -2.93183413750001 -2.88861813125001 -6.299872812500062E-002
 S -0.631714137500007 -6.57928313125001 -4.23071672812500 
 S -3.85191513750001 -6.22589213125001 -1.55892372812500 
 S -1.49755713750001 -6.81304213125001 -0.126289728125001 
 S -0.733051137500007 -2.92570813125001 -4.28694972812500 
 S -3.74547313750001 -2.52748513125001 -1.48881672812500 
 S -1.24463113750001 -3.19037213125001 -0.169171728125001 
