16

 C -2.41562633750000 -6.27952161875000 -2.38117430312500 
 C -1.33819533750000 -6.91813661875000 -1.73148930312500 
 C -2.38098433750000 -2.29142861875000 -2.45592930312500 
 C -1.27423433750000 -2.98797261875000 -1.79741730312500 
 N -0.232281337499996 -7.07687661875000 -2.43643530312500 
 N -2.12688133750000 -5.99952461875000 -3.63596130312500 
 N -3.10212933750000 -6.57831361875000 0.118442696875000 
 N -0.272191337499996 -3.30450461875000 -2.65065630312500 
 N -2.26707633750000 -2.09471561875000 -3.78227730312500 
 N -3.05461133750000 -2.32574461875000 3.047769687500024E-002
 S -0.592518337499996 -6.60682361875000 -3.96814430312500 
 S -3.76915333750000 -5.96064361875000 -1.33958430312500 
 S -1.59613233750000 -7.22992061875000 -2.698830312500000E-002
 S -0.804785337499997 -2.76718061875000 -4.18618030312500 
 S -3.76533433750000 -1.97125261875000 -1.43494630312500 
 S -1.50553933750000 -2.98441861875000 -6.081930312499972E-002
