16

 C -2.42121719062500 -6.62980055312500 -2.49370816250000 
 C -1.12122519062500 -6.99501155312500 -1.94608016250000 
 C -2.39272519062500 -2.96387155312500 -2.48943016250000 
 C -1.27444719062500 -3.51245255312500 -1.81752516250000 
 N -0.156722190625000 -7.04382055312500 -2.85001616250000 
 N -2.45210819062500 -6.33336555312500 -3.80182816250000 
 N -2.75073019062500 -7.23680755312500 6.949083749999962E-002
 N -0.252398190625000 -3.84175255312500 -2.62744816250000 
 N -2.21118619062500 -2.63304755312500 -3.75532416250000 
 N -3.18263419062500 -3.11723555312500 2.380583749999943E-002
 S -0.873151190624999 -6.63570355312500 -4.32636916250000 
 S -3.63057819062500 -6.72700955312500 -1.27462816250000 
 S -1.13125719062500 -7.34760155312500 -0.234399162500000 
 S -0.679764190625000 -3.26820855312500 -4.11171216250000 
 S -3.83602319062500 -2.68488555312500 -1.47054016250000 
 S -1.61613819062500 -3.69960955312500 -4.657816250000035E-002
