16

 C -2.34580148125000 -6.42098710000000 -2.42260087812500 
 C -1.09981248125000 -6.73536110000000 -1.77761387812500 
 C -2.52743148125000 -2.65357910000000 -2.59518387812500 
 C -1.37967948125000 -3.10773110000000 -1.81823487812500 
 N -7.283248124999808E-002 -6.89051110000000 -2.58424287812500 
 N -2.20084748125000 -6.35124910000000 -3.74633187812500 
 N -2.87361848125000 -6.66310510000000 4.859212187500139E-002
 N -0.421528481249998 -3.56272810000000 -2.60579987812500 
 N -2.37829048125000 -2.64338210000000 -3.93505887812500 
 N -3.29645548125000 -2.93452410000000 -4.020587812499876E-002
 S -0.649244481249998 -6.69771910000000 -4.12208887812500 
 S -3.67556248125000 -6.27176610000000 -1.37977087812500 
 S -1.21825048125000 -6.89651510000000 -7.385878124998690E-003
 S -0.859782481249998 -3.24074210000000 -4.16801387812500 
 S -3.94968848125000 -2.46082210000000 -1.53701087812500 
 S -1.67886848125000 -3.40370010000000 -9.788087812499846E-002
