16

 C -2.55240564999999 -6.56599465000001 -2.45595280000000 
 C -1.32576064999999 -7.00399165000001 -1.90079980000000 
 C -2.58108264999999 -2.76817065000001 -2.53679980000000 
 C -1.41753164999999 -3.14489265000001 -1.83549480000000 
 N -0.336913649999994 -7.05056465000001 -2.79286780000000 
 N -2.48105765000000 -6.32579065000001 -3.77174380000000 
 N -2.98321865000000 -6.97727165000001 7.066820000000185E-002
 N -0.364831649999995 -3.44886765000001 -2.58250080000000 
 N -2.39515364999999 -2.70533365000001 -3.82744480000000 
 N -3.23916364999999 -2.75551165000001 -2.767279999999817E-002
 S -0.953132649999994 -6.61697265000001 -4.26379080000000 
 S -3.84101264999999 -6.46850065000001 -1.25949680000000 
 S -1.36463564999999 -7.24472065000000 -0.192788799999998 
 S -0.777319649999995 -3.11235965000001 -4.14594280000000 
 S -3.90033564999999 -2.39850365000001 -1.52089880000000 
 S -1.69131265000000 -3.25701765000001 -9.203479999999797E-002
