16

 C -2.33423073124999 -6.55093978124999 -2.27113935937500 
 C -1.06448473124999 -7.00742278124999 -1.70850535937500 
 C -2.51356873124999 -2.73020278124999 -2.49800535937500 
 C -1.33216573124999 -3.35181878124999 -1.85879835937500 
 N -0.140654731249990 -6.99829478124999 -2.65177835937500 
 N -2.38700273124999 -6.24918478124999 -3.55042735937500 
 N -2.59878273124999 -6.59214878124999 0.232229640625001 
 N -0.290290731249989 -3.52581278124999 -2.69534335937500 
 N -2.30609173124999 -2.45068578124999 -3.76632835937500 
 N -3.02405173124999 -2.83727278124999 2.586464062500093E-002
 S -0.855420731249989 -6.57402978124999 -4.06646035937500 
 S -3.48373873124999 -6.06850378124999 -1.04160135937500 
 S -0.976792731249989 -7.02937478124999 -4.185935937499896E-002
 S -0.754417731249990 -3.03783878124999 -4.19191635937500 
 S -3.77430573124999 -2.36752278124999 -1.38612935937500 
 S -1.45742273124999 -3.37746578124999 -7.827335937499913E-002
