16

 C -2.32246760937501 -6.15145824375000 -2.20614902500000 
 C -1.14621860937501 -6.79142624375000 -1.65622602500000 
 C -2.45399260937501 -2.86579524375000 -2.73017102500000 
 C -1.19063460937501 -3.04745224375000 -2.14375502500000 
 N -0.171126609375006 -6.90041624375000 -2.53807202500000 
 N -2.20643360937501 -5.83818124375000 -3.47893002500000 
 N -2.86491360937501 -6.59739624375000 0.285621974999997 
 N -0.164471609375005 -2.82531624375000 -2.95882302500000 
 N -2.42614960937501 -2.49980624375000 -4.01817302500000 
 N -2.92042860937501 -3.02204624375000 -0.197305025000003 
 S -0.689789609375006 -6.28715324375000 -4.03710202500000 
 S -3.67011060937501 -6.21774024375000 -1.13918202500000 
 S -1.31198860937501 -7.16106124375000 4.515897499999721E-002
 S -0.847793609375006 -2.60222724375000 -4.42869502500000 
 S -3.73108760937501 -3.00133024375000 -1.64340902500000 
 S -1.27359160937501 -3.29020824375000 -0.377486025000003 
