16

 C -2.30796235937500 -6.64409314062500 -2.38511903437500 
 C -1.14716335937500 -7.18104814062500 -1.71606203437500 
 C -2.48653235937500 -2.54411414062500 -2.33024303437500 
 C -1.50462435937500 -3.47211414062500 -1.77743203437500 
 N -9.995835937500086E-002 -7.44887214062500 -2.48184603437500 
 N -2.18036035937500 -6.44720214062500 -3.69371603437500 
 N -3.07645035937500 -7.15144614062500 2.540965624997726E-003
 N -0.524142359375000 -3.81249114062500 -2.59263303437500 
 N -2.30797235937500 -2.23765714062500 -3.60294203437500 
 N -2.96236435937500 -2.71767314062500 0.263897965624998 
 S -0.627515359375001 -7.01666814062500 -3.97817303437500 
 S -3.68511335937500 -6.48645914062500 -1.36350003437500 
 S -1.37238635937500 -7.38241714062500 1.625996562499754E-002
 S -0.958200359375001 -3.12383014062500 -4.10377003437500 
 S -3.60314335937500 -2.00443314062500 -1.13391003437500 
 S -1.69085435937500 -3.78757714062500 -4.803303437500239E-002
