16

 C -2.32198362812500 -6.95781102187500 -2.41385654375000 
 C -1.15816762812500 -7.33216902187500 -1.64743454375000 
 C -2.70838462812500 -2.72866002187500 -2.32087654375000 
 C -1.63730762812500 -3.55804902187500 -1.78129454375000 
 N -7.615562812499821E-002 -7.49677202187500 -2.41761354375000 
 N -2.13035962812500 -6.78288602187500 -3.70791754375000 
 N -2.94819562812500 -6.82604202187500 6.666345624999748E-002
 N -0.752923628124998 -3.96506402187500 -2.72215654375000 
 N -2.56482462812500 -2.54367402187500 -3.64687254375000 
 N -3.20297362812500 -2.95522802187500 0.175006456249998 
 S -0.554799628124998 -7.09180502187500 -3.98049754375000 
 S -3.67247862812500 -6.49550602187500 -1.42520054375000 
 S -1.46444262812500 -7.49406602187500 8.524456249997536E-003
 S -1.21941862812500 -3.34374202187500 -4.15187254375000 
 S -3.87129662812500 -2.30239202187500 -1.17307654375000 
 S -1.79842262812500 -3.79672702187500 -2.944754375000258E-002
