16

 C -2.53306633437500 -6.24719105000000 -2.46316521875000 
 C -1.44335433437500 -6.81729705000000 -1.70798421875000 
 C -2.49434233437500 -3.09773805000000 -2.34205021875000 
 C -1.19733533437500 -3.25258405000000 -1.73393421875000 
 N -0.496767334374996 -7.26846005000000 -2.52414021875000 
 N -2.46332333437500 -6.23775205000000 -3.78572721875000 
 N -3.20616933437500 -6.34858005000000 7.228678124999810E-002
 N -0.163425334374996 -3.40516005000000 -2.55588821875000 
 N -2.39304333437500 -2.94002005000000 -3.64062421875000 
 N -2.98217233437500 -3.10138205000000 0.170359781249998 
 S -1.06305933437500 -7.06852705000000 -4.05527521875000 
 S -3.93128433437500 -5.88023805000000 -1.36744821875000 
 S -1.64621833437500 -6.77749305000000 2.221781249998278E-003
 S -0.851509334374996 -3.19982805000000 -4.10188921875000 
 S -3.84753333437500 -3.17332705000000 -1.25571921875000 
 S -1.28238533437500 -3.26690805000000 3.848878124999811E-002
