16

 C -2.59890919375000 -6.62108530312499 -2.38579758750000 
 C -1.34671619375000 -7.06321830312499 -1.74438258750000 
 C -2.40370119375000 -2.97231130312499 -2.34703358750000 
 C -1.17737619375000 -3.55495630312499 -1.84819758750000 
 N -0.356959193749995 -7.39542230312499 -2.57467958750000 
 N -2.53903119375000 -6.57359830312499 -3.70807258750000 
 N -3.02846319375000 -6.82552630312499 0.201507412500001 
 N -0.163988193749995 -3.66930630312499 -2.74204458750000 
 N -2.39807119375000 -2.82161530312499 -3.64816158750000 
 N -2.77922919375000 -3.29879030312499 0.198091412500001 
 S -0.981125193749995 -7.00163430312499 -4.08708958750000 
 S -3.87652919375000 -6.54706230312499 -1.20956858750000 
 S -1.44484519375000 -7.24066130312499 1.414941250000146E-002
 S -0.905899193749995 -3.19921430312499 -4.25341958750000 
 S -3.63314219375000 -2.74881730312499 -1.14958558750000 
 S -1.21205919375000 -3.86886530312499 -0.115769587499999 
