16

 C -2.28962524062500 -6.47126148750000 -2.49075277187500 
 C -1.11012424062500 -6.99560048750000 -1.87565677187500 
 C -2.38510624062500 -3.05549148750000 -2.30283077187500 
 C -1.12248824062500 -3.47461648750000 -1.68362077187500 
 N -5.728324062499990E-002 -7.26242248750000 -2.64882077187500 
 N -2.10308624062500 -6.25066148750000 -3.79962877187500 
 N -2.80491624062500 -6.73059048750000 3.755522812499912E-002
 N -0.118615240624999 -3.63914448750000 -2.50511077187500 
 N -2.26329224062500 -2.82276648750000 -3.61833877187500 
 N -2.97887824062500 -3.07494448750000 0.179657228124999 
 S -0.553654240625000 -6.70724948750000 -4.13321777187500 
 S -3.60030424062500 -6.21495748750000 -1.31276977187500 
 S -1.27556624062500 -7.43850448750000 -0.198690771875001 
 S -0.718652240625000 -3.17547348750000 -4.04813977187500 
 S -3.69557224062500 -2.79117148750000 -1.26995477187500 
 S -1.38482324062500 -3.57370948750000 6.305822812499895E-002
