16

 C -2.47118180625000 -6.40308044687501 -2.20551792500000 
 C -1.17838580625000 -6.95280844687501 -1.73345592500000 
 C -2.52736780625000 -2.75175944687501 -2.52358192500000 
 C -1.40949980625000 -3.37436944687501 -1.76032292500000 
 N -0.186447806250005 -6.97608844687501 -2.59127392500000 
 N -2.40228680625000 -6.16163444687501 -3.51229492500000 
 N -2.84356080625000 -7.00924744687501 0.256539075000001 
 N -0.354621806250004 -3.68425244687501 -2.52849892500000 
 N -2.33532580625000 -2.59096144687501 -3.83407792500000 
 N -3.27100880625000 -3.06043944687501 -1.676092499999893E-002
 S -0.866395806250004 -6.55626544687501 -4.04274792500000 
 S -3.75458780625000 -6.37887144687501 -1.01434892500000 
 S -1.18026580625000 -7.34955544687501 -6.267792499999891E-002
 S -0.787542806250005 -3.14001544687501 -4.03040392500000 
 S -3.86121680625000 -2.42485644687501 -1.43924892500000 
 S -1.70142280625000 -3.60911744687501 -4.280692499999894E-002
