16

 C -2.38707410625000 -6.98808417500000 -2.39917579687500 
 C -1.20602010625000 -7.39241717500000 -1.70202579687500 
 C -2.71980210625000 -2.84379817500000 -2.38105779687500 
 C -1.64826010625000 -3.59779117500000 -1.77477279687500 
 N -0.116274106250000 -7.49103417500000 -2.42386179687500 
 N -2.12345110625000 -6.82177417500000 -3.67376979687500 
 N -2.98851310625000 -6.77080517500000 1.733220312500094E-002
 N -0.754108106250000 -3.92059917500000 -2.67229779687500 
 N -2.60424210625000 -2.54137717500000 -3.66327379687500 
 N -3.23609410625000 -3.02805517500000 0.163707203125001 
 S -0.537121106250000 -7.07815817500000 -3.97702079687500 
 S -3.63161910625000 -6.49959317500000 -1.44020479687500 
 S -1.41985710625000 -7.47744317500000 5.225720312500104E-002
 S -1.25926110625000 -3.39212117500000 -4.18388179687500 
 S -3.98739610625000 -2.35092317500000 -1.18509179687500 
 S -1.79014510625000 -3.80985417500000 7.117203125000859E-003
