16

 C -2.33290318437500 -6.28751218125000 -2.40186705937500 
 C -1.12167518437500 -6.81249318125000 -1.77850005937500 
 C -2.62208218437500 -2.70951218125000 -2.66342105937500 
 C -1.39059618437500 -3.02235018125000 -1.94983905937500 
 N -0.118549184375000 -7.16352718125000 -2.55088805937500 
 N -2.21054118437500 -6.23471018125000 -3.70946905937500 
 N -2.69705518437500 -6.20387718125000 0.160436940624997 
 N -0.301481184375000 -3.11690418125000 -2.75755005937500 
 N -2.54988218437500 -2.66089418125000 -4.01671805937500 
 N -3.20611118437500 -2.80689418125000 -6.519605937500250E-002
 S -0.655438184375001 -6.76360618125000 -4.07363805937500 
 S -3.63807118437500 -6.03570118125000 -1.26488505937500 
 S -1.24507918437500 -7.00649218125000 2.707194062499751E-002
 S -0.942219184375000 -3.03571818125000 -4.27444405937500 
 S -3.89846618437500 -2.33674018125000 -1.49879205937500 
 S -1.55493618437500 -3.20492118125000 -0.175041059375003 
