16

 C -2.45533426250000 -6.83240920312500 -2.37308827500000 
 C -1.11328326250000 -7.00359620312500 -1.88741727500000 
 C -2.40731226250000 -2.69039520312500 -2.43885727500000 
 C -1.33575626250000 -3.30326920312500 -1.74471227500000 
 N -0.139067262499999 -6.98133720312500 -2.82542927500000 
 N -2.45152826250000 -6.65967320312500 -3.69770227500000 
 N -2.72288426250000 -7.02715420312500 0.179467725000002 
 N -0.260811262500000 -3.56554320312500 -2.48712127500000 
 N -2.22278826250000 -2.44650220312500 -3.73674027500000 
 N -3.26697626250000 -2.99833920312500 3.097172500000189E-002
 S -0.914730262499999 -6.69162220312500 -4.25411127500000 
 S -3.67053326250000 -6.78052820312500 -1.12633127500000 
 S -1.07641226250000 -7.00947820312500 -0.139419274999998 
 S -0.760507262499999 -3.07510120312500 -4.01610327500000 
 S -3.86694126250000 -2.52046520312500 -1.41704527500000 
 S -1.65200426250000 -3.43551620312500 -1.809127499999819E-002
