16

 C -2.36052735000001 -6.55275654375000 -2.17273903125000 
 C -1.11225435000001 -7.11770654375000 -1.58780803125000 
 C -2.25861235000001 -2.73152954375000 -2.66562103125000 
 C -1.02278935000001 -3.16953254375000 -1.97094603125000 
 N -5.449135000000638E-002 -6.95747454375000 -2.43013103125000 
 N -2.25681335000001 -5.99803654375000 -3.40231803125000 
 N -2.93480035000001 -7.10838354375000 0.285448968749999 
 N 2.142064999999249E-002 -3.42221654375000 -2.75013703125000 
 N -2.14925235000001 -2.70791354375000 -4.00362903125000 
 N -2.86425235000001 -2.53855554375000 -0.171679031250000 
 S -0.665760350000007 -6.24851954375000 -3.80907103125000 
 S -3.65539535000001 -6.31827754375000 -1.02882803125000 
 S -1.25862035000001 -7.35491254375000 0.126264968749999 
 S -0.573974350000007 -3.07350754375000 -4.28288703125000 
 S -3.62768535000001 -2.37063654375000 -1.61013503125000 
 S -1.35288135000001 -3.22904854375000 -0.245542031250001 
