16

 C -2.38682446562501 -6.53172139375000 -2.34884925312500 
 C -1.10402646562501 -6.98420539375000 -1.82989025312500 
 C -2.40473946562501 -2.61818939375000 -2.50040525312500 
 C -1.25480846562501 -3.23320939375000 -1.87272325312500 
 N -0.131712465625011 -7.17137139375000 -2.74238125312500 
 N -2.35139346562501 -6.38671439375000 -3.64542825312500 
 N -2.55883446562501 -6.53568139375000 0.252496746874999 
 N -0.364283465625011 -3.67444839375000 -2.77204225312500 
 N -2.32134446562501 -2.40411939375000 -3.81939225312500 
 N -3.06000646562501 -2.95861339375000 2.545874687499938E-002
 S -0.828503465625011 -6.76787439375000 -4.19307025312500 
 S -3.51010946562501 -6.12936239375000 -1.11347925312500 
 S -1.00474246562501 -6.93042839375000 -0.111350253125001 
 S -0.863121465625011 -2.98354039375000 -4.27191425312500 
 S -3.74995446562501 -2.37865639375000 -1.37187325312500 
 S -1.44996546562501 -3.37264839375000 -9.765225312500059E-002
