16

 C -2.54725754687500 -6.21694642187500 -2.52311265625000 
 C -1.41681654687500 -6.83288042187500 -1.86470665625000 
 C -2.18622954687500 -2.93139242187500 -2.32419365625000 
 C -0.965845546875005 -3.35156742187500 -1.77068065625000 
 N -0.354535546875005 -7.00725942187500 -2.62453565625000 
 N -2.36282854687501 -6.10093942187500 -3.81460965625000 
 N -3.21500654687501 -6.50008742187500 -0.103597656250001 
 N 6.320745312499465E-002 -3.36612642187500 -2.61340665625000 
 N -2.22243654687500 -2.52244342187500 -3.61149765625000 
 N -2.59402254687501 -3.46157342187500 0.242317343749999 
 S -0.777074546875006 -6.57034342187500 -4.16883365625000 
 S -3.86086854687500 -5.87124142187500 -1.51645465625000 
 S -1.63065354687501 -7.01649742187500 -0.108173656250001 
 S -0.630779546875005 -2.86105842187500 -4.06691965625000 
 S -3.44014954687500 -3.00616042187500 -1.12154365625000 
 S -1.02411654687501 -3.92227942187500 -0.113940656250001 
