16

 C -2.18448514062500 -6.36310867187500 -2.32634463125000 
 C -0.915858140624998 -6.86474867187500 -1.75836163125000 
 C -2.84666514062500 -2.56720567187500 -2.56226763125000 
 C -1.59421114062500 -2.91583267187500 -1.91920463125000 
 N 0.122167859375002 -6.99274067187500 -2.60952663125000 
 N -2.09297014062500 -6.04282667187500 -3.61467463125000 
 N -2.72237714062500 -6.68810767187500 0.158002368750000 
 N -0.561348140624998 -2.95121567187500 -2.72232663125000 
 N -2.75417114062500 -2.33979467187500 -3.86099863125000 
 N -3.36630714062500 -2.85805267187500 -1.010663125000022E-002
 S -0.588571140624998 -6.49845967187500 -4.07343763125000 
 S -3.47598314062500 -6.17807367187500 -1.20294063125000 
 S -1.09359114062500 -7.14552767187500 -3.633463125000036E-002
 S -1.16246714062500 -2.55632367187500 -4.25693063125000 
 S -4.19019514062500 -2.37602767187500 -1.40118063125000 
 S -1.76091214062500 -3.29168367187500 -0.182599631250000 
