16

 C -2.32209023437500 -6.55454046250000 -2.40661332812500 
 C -1.10236323437500 -6.85966746250000 -1.69127132812500 
 C -2.47213223437500 -3.21442446250000 -2.30483932812500 
 C -1.21047923437500 -3.49985746250000 -1.66852532812500 
 N -8.004823437499820E-002 -6.95834646250000 -2.55793532812500 
 N -2.20732523437500 -6.46494846250000 -3.73131532812500 
 N -3.04189423437500 -6.66989646250000 1.625167187499921E-002
 N -0.191558234374998 -3.62284346250000 -2.50634332812500 
 N -2.40192123437500 -3.21461446250000 -3.62435632812500 
 N -2.96232523437500 -3.35523046250000 0.276377671874999 
 S -0.642341234374998 -6.85691246250000 -4.11544932812500 
 S -3.72383223437500 -6.33437046250000 -1.44559632812500 
 S -1.37949123437500 -6.94546846250000 -2.275632812500072E-002
 S -0.761833234374998 -3.48126946250000 -3.98007832812500 
 S -3.84217023437500 -3.35511246250000 -1.16992832812500 
 S -1.30814923437500 -3.54708446250000 8.711567187499925E-002
