16

 C -2.21596915625000 -6.42622693437500 -2.12860262187500 
 C -1.04229715625000 -6.94436293437500 -1.48781862187500 
 C -2.40594515625000 -2.66828393437500 -2.27744162187500 
 C -1.18230015625000 -3.32372693437500 -1.72439462187500 
 N -4.868915625000092E-002 -7.24042993437500 -2.33048262187500 
 N -2.06445715625000 -6.21315593437500 -3.43653962187500 
 N -2.92842815625000 -6.74146493437500 0.290637378124999 
 N -0.194956156250001 -3.30816593437500 -2.59448162187500 
 N -2.26700315625000 -2.31581393437500 -3.54326062187500 
 N -2.95226615625000 -3.12367193437500 0.168960378124999 
 S -0.587599156250000 -6.78964393437500 -3.84527862187500 
 S -3.60067615625000 -6.37862393437500 -1.14437662187500 
 S -1.34042015625000 -7.24314893437500 0.168170378124999 
 S -0.724545156250000 -2.75559993437500 -4.03015162187500 
 S -3.71775315625000 -2.63955693437500 -1.19373262187500 
 S -1.38039715625000 -3.63968793437500 -7.032562187500058E-002
