16

 C -2.44781293750000 -6.39914712812500 -2.58583200312500 
 C -1.30052493750000 -6.85900712812500 -1.82234900312500 
 C -2.51875693750000 -2.47580312812500 -2.43264300312500 
 C -1.34541493750000 -2.87148012812500 -1.73141800312500 
 N -0.138951937500003 -7.07873012812500 -2.46061700312500 
 N -2.15139093750000 -6.22879512812500 -3.89741300312500 
 N -3.23709393750000 -6.60350112812500 -8.219600312499908E-002
 N -0.249279937500003 -2.96721112812500 -2.47660300312500 
 N -2.39535093750000 -2.41956312812500 -3.78369400312500 
 N -3.16909093750000 -2.57668312812500 0.109132996875001 
 S -0.576024937500003 -6.70940812812500 -4.05563700312500 
 S -3.87530193750000 -6.08389812812500 -1.54893900312500 
 S -1.62482793750000 -6.95458512812500 -0.113121003124999 
 S -0.806470937500003 -2.71287412812500 -4.11537100312500 
 S -3.91531693750000 -2.31072812812500 -1.34765900312500 
 S -1.53891993750000 -3.05781712812500 -5.287003124998968E-003
