16

 C -2.48611728125001 -6.40336087812500 -2.28392342500000 
 C -1.22925328125001 -6.70224787812500 -1.66461242500000 
 C -2.43171628125001 -2.68447687812500 -2.89093542500000 
 C -1.16871828125001 -2.82530187812500 -2.23838642500000 
 N -0.224065281250010 -6.72153887812500 -2.51210642500000 
 N -2.36363928125001 -6.12838687812500 -3.57383242500000 
 N -2.97257428125001 -6.86378287812500 0.181885574999995 
 N -0.136094281250011 -2.74521087812500 -3.06510542500000 
 N -2.37679328125001 -2.51925087812500 -4.19013042500000 
 N -2.97571028125001 -3.06456887812500 -0.407879425000005 
 S -0.771802281250011 -6.27606087812500 -4.03354642500000 
 S -3.77660628125001 -6.20530787812500 -1.15983742500000 
 S -1.35696628125001 -7.03849187812500 1.273957499999523E-002
 S -0.800199281250011 -2.63303787812500 -4.55139242500000 
 S -3.81976028125001 -2.73997787812500 -1.78692842500000 
 S -1.37319528125001 -3.03254787812500 -0.547830425000005 
