16

 C -2.28351721875000 -6.57296336562499 -2.36006808750000 
 C -1.11530021875000 -7.11299936562499 -1.73580508750000 
 C -2.46525821875000 -2.82157736562499 -2.31457208750000 
 C -1.21342321875000 -3.08433236562499 -1.70165708750000 
 N -0.168799218750002 -7.37322236562499 -2.66587808750000 
 N -2.17791821875000 -6.21462436562499 -3.66908308750000 
 N -2.90667321875000 -6.73095536562499 0.180948912499999 
 N -0.255394218750002 -3.37225936562499 -2.59653308750000 
 N -2.44730021875000 -2.85483736562499 -3.66391008750000 
 N -2.88855721875000 -2.76911936562499 0.249008912499999 
 S -0.633482218750002 -6.70576436562499 -4.11111208750000 
 S -3.60358521875000 -6.27805236562499 -1.22434308750000 
 S -1.27957521875000 -7.26917936562499 -3.555308750000075E-002
 S -0.903705218750003 -3.30794736562499 -4.09217808750000 
 S -3.77040921875000 -2.80177536562499 -1.14414408750000 
 S -1.22758521875000 -3.13670836562499 9.185891249999911E-002
