16

 C -2.48683361562500 -6.43952407187500 -2.41968749375000 
 C -1.31659061562500 -6.88758607187500 -1.74961149375000 
 C -2.66697861562500 -2.92668307187500 -2.46374549375000 
 C -1.43320961562500 -3.38089607187500 -1.83504749375000 
 N -0.348207615625000 -7.13216607187500 -2.59774849375000 
 N -2.44652661562500 -6.24268407187500 -3.73592849375000 
 N -3.11174861562500 -6.67606207187500 7.865750624999790E-002
 N -0.401360615625000 -3.48867707187500 -2.65672549375000 
 N -2.55830461562500 -2.76361907187500 -3.76574349375000 
 N -3.15287561562500 -3.07220607187500 1.830550624999794E-002
 S -0.872789615625001 -6.62813907187500 -4.04799149375000 
 S -3.80048261562500 -6.13441107187500 -1.30324349375000 
 S -1.45048561562500 -6.99275007187500 -5.331849375000219E-002
 S -0.932348615625001 -3.14998807187500 -4.17433149375000 
 S -4.02275561562500 -3.01728707187500 -1.41242749375000 
 S -1.57080561562500 -3.65567107187500 -0.136226493750002 
