16

 C -2.46499598437500 -6.53672135937500 -2.37395967187500 
 C -1.23204398437500 -7.00080835937500 -1.76397367187500 
 C -2.19328498437500 -2.57697535937500 -2.15605667187500 
 C -1.08719598437500 -3.33770535937500 -1.66244967187500 
 N -0.141155984374998 -7.11492835937500 -2.53562167187500 
 N -2.22965998437500 -6.29966535937500 -3.68553167187500 
 N -3.00243398437500 -6.60747435937500 0.117173328125001 
 N -9.015698437499786E-002 -3.48288335937500 -2.54514967187500 
 N -1.95039498437500 -1.90399135937500 -3.28176967187500 
 N -2.84084798437500 -3.26393035937500 0.235798328125001 
 S -0.661123984374997 -6.70632835937500 -4.04506467187500 
 S -3.77615698437500 -6.34328435937500 -1.29051467187500 
 S -1.36121998437500 -7.05308235937500 5.592328125000989E-003
 S -0.572984984374997 -2.52289935937500 -3.90654867187500 
 S -3.56550198437500 -2.57589835937500 -1.05159767187500 
 S -1.27673398437500 -3.72046335937500 -1.097467187499901E-002
