16

 C -2.51064282187499 -6.36433669062500 -2.28077315000000 
 C -1.31644882187499 -6.90546969062500 -1.71833815000000 
 C -2.64691382187499 -3.12332169062500 -2.53924415000000 
 C -1.41786682187499 -3.36847669062500 -1.82039915000000 
 N -0.302407821874992 -7.09697469062500 -2.53859915000000 
 N -2.44796582187499 -6.18614469062500 -3.57048015000000 
 N -3.03555682187499 -6.60876969062500 0.136404850000001 
 N -0.336004821874992 -3.38526069062500 -2.60036015000000 
 N -2.48515982187499 -2.83211269062500 -3.84901815000000 
 N -3.12010782187499 -3.05788469062500 0.122685850000001 
 S -0.938416821874992 -6.65404269062500 -4.04721815000000 
 S -3.83246182187499 -6.13525269062500 -1.25494515000000 
 S -1.48026382187499 -7.03477069062500 -1.074514999999931E-002
 S -0.904857821874992 -3.17051169062500 -4.15426115000000 
 S -3.91228482187499 -3.01410269062500 -1.29757915000000 
 S -1.56119782187499 -3.55633469062500 -9.017014999999939E-002
