16

 C -2.24474073125000 -6.49479216875000 -2.26342244687500 
 C -1.04428673125000 -7.14694616875000 -1.76696344687500 
 C -2.26466273125000 -2.68952616875000 -2.39454144687500 
 C -1.07384373125000 -3.13618216875000 -1.72056644687500 
 N -0.106647731250001 -7.36344016875000 -2.67164144687500 
 N -2.15360473125000 -6.28263416875000 -3.56381344687500 
 N -2.57565573125000 -6.55978016875000 0.225753553125000 
 N -7.328773125000065E-002 -3.36719216875000 -2.54773744687500 
 N -2.09110373125000 -2.45733716875000 -3.67296644687500 
 N -2.90229573125000 -2.91550416875000 -2.962144687500023E-002
 S -0.718539731250001 -6.75286116875000 -4.12401644687500 
 S -3.46502073125000 -6.04911216875000 -1.13813644687500 
 S -1.12875373125000 -7.37779016875000 -2.124444687500016E-002
 S -0.478952731250001 -2.82586716875000 -4.06180844687500 
 S -3.67010073125000 -2.37391316875000 -1.46194044687500 
 S -1.37089773125000 -3.50134416875000 -5.443444687500021E-002
