16

 C -2.61457231562500 -6.22895427812500 -2.38189573125000 
 C -1.46058431562500 -6.80397727812500 -1.72575673125000 
 C -2.48009231562500 -3.09047027812500 -2.34545273125000 
 C -1.18182131562500 -3.20883627812500 -1.73617173125000 
 N -0.493344315624998 -7.28609227812500 -2.50931373125000 
 N -2.49835531562500 -6.19343127812500 -3.71694373125000 
 N -3.23852631562500 -6.35637427812500 6.018426874999738E-002
 N -0.200589315624997 -3.44804327812500 -2.62591873125000 
 N -2.45103531562500 -2.99819427812500 -3.68094273125000 
 N -2.96609731562500 -3.07337827812500 0.161742268749997 
 S -1.10422331562500 -7.07715827812500 -4.06165473125000 
 S -3.91904331562500 -5.95467127812500 -1.36808873125000 
 S -1.60273431562500 -6.81136627812500 1.370126874999733E-002
 S -0.829257315624997 -3.18469727812500 -4.08855873125000 
 S -3.84804431562500 -3.22553227812500 -1.20172173125000 
 S -1.24953131562500 -3.24709127812500 -2.179573125000278E-002
