16

 C -2.30803859687500 -6.88344785000000 -2.61840599062500 
 C -1.06244559687500 -7.20509985000000 -1.93628299062500 
 C -2.57638359687500 -2.77505285000000 -2.52614699062500 
 C -1.36940259687500 -3.27773885000000 -1.97316599062500 
 N -9.401659687500263E-002 -7.54851285000000 -2.72160899062500 
 N -2.23835059687500 -6.98186485000000 -3.96591199062500 
 N -2.77586359687500 -6.57704785000000 -1.949999062500063E-002
 N -0.367552596875003 -3.33530285000000 -2.84274199062500 
 N -2.53125859687500 -2.50485185000000 -3.80523499062500 
 N -2.91351459687500 -2.68583885000000 -6.117990625000624E-003
 S -0.607976596875003 -7.40223485000000 -4.33807899062500 
 S -3.51462859687500 -6.19107185000000 -1.45277499062500 
 S -1.13838159687500 -6.99801685000000 -0.190037990625001 
 S -1.00247159687500 -2.92439885000000 -4.31553599062500 
 S -3.75490159687500 -2.21667485000000 -1.40816599062500 
 S -1.38508559687500 -3.36248485000000 -0.212246990625000 
