16

 C -2.29774172812500 -6.25662781562500 -2.37112212500000 
 C -1.07343372812500 -6.80150581562500 -1.75134512500000 
 C -2.58752972812499 -2.59661981562500 -2.58867212500000 
 C -1.40158872812500 -3.10838181562500 -1.90493812500000 
 N -8.770472812499541E-002 -6.95406581562500 -2.61529312500000 
 N -2.29280772812500 -6.16676481562500 -3.72380412500000 
 N -2.79638472812500 -6.59994281562500 0.200610875000001 
 N -0.368242728124995 -3.47215381562500 -2.69269412500000 
 N -2.48576372812500 -2.54054881562500 -3.92049112500000 
 N -3.23998972812500 -2.70553281562500 -0.105414124999999 
 S -0.714943728124996 -6.61987881562500 -4.12398712500000 
 S -3.56908472812500 -5.94767981562500 -1.19927512500000 
 S -1.24419572812500 -7.07332681562500 -7.279312499999868E-002
 S -0.948543728124995 -3.09834881562500 -4.18161412500000 
 S -3.93035072812500 -2.16181681562500 -1.50067112500000 
 S -1.61956972812500 -3.14703481562500 -0.187687124999999 
