16

 C -2.38459618124999 -6.41120617812500 -2.40036215000000 
 C -1.17386518124999 -6.64254817812500 -1.70093215000000 
 C -2.26826118124999 -2.83154517812500 -2.37124715000000 
 C -0.971876181249991 -3.22492017812500 -1.78882515000000 
 N -8.858918124999082E-002 -6.76069117812500 -2.47010715000000 
 N -2.26559518124999 -6.41543817812500 -3.73976415000000 
 N -3.08261018124999 -6.45093317812500 -3.914150000000616E-003
 N 5.623781875000944E-002 -3.35728617812500 -2.64416915000000 
 N -2.22133618124999 -2.74030017812500 -3.71274115000000 
 N -2.59974218124999 -3.25129317812500 0.203246849999999 
 S -0.629312181249991 -6.53628317812500 -4.02782715000000 
 S -3.85540218124999 -6.22105517812500 -1.46506215000000 
 S -1.41139918124999 -6.85308117812500 -4.946515000000051E-002
 S -0.614411181249991 -2.93158917812500 -4.15343815000000 
 S -3.53375218124999 -2.83184717812500 -1.16563615000000 
 S -0.956869181249990 -3.54896017812500 -5.633015000000063E-002
