16

 C -2.39090759375000 -6.32130243437500 -2.48102172812500 
 C -1.23920259375000 -6.61781143437500 -1.73586372812500 
 C -2.27922459375000 -2.91953143437500 -2.40516772812500 
 C -1.00327759375000 -3.19486943437500 -1.84594872812500 
 N -0.154303593750002 -6.70449943437500 -2.51367572812500 
 N -2.23651259375000 -6.24418043437500 -3.83358272812500 
 N -3.04492159375000 -6.47422443437500 5.773227187499974E-002
 N 1.469040624999884E-002 -3.27844143437500 -2.71187572812500 
 N -2.20372459375000 -2.71428843437500 -3.72354172812500 
 N -2.69075559375000 -3.25065143437500 5.787627187499966E-002
 S -0.648441593750001 -6.62487943437500 -4.11265872812500 
 S -3.79929759375000 -6.11463843437500 -1.41152872812500 
 S -1.47615659375000 -6.78462043437500 9.302718749997219E-004
 S -0.623288593750002 -3.00916143437500 -4.17096872812500 
 S -3.53439859375000 -2.85608843437500 -1.27350172812500 
 S -1.05502659375000 -3.52359443437500 -0.132800728125000 
