16

 C -2.21470549687500 -6.18613057187500 -2.45921852187500 
 C -1.11061649687500 -6.85996957187500 -1.86237052187500 
 C -2.27596749687500 -2.91198557187500 -2.36418652187500 
 C -1.03540449687500 -3.48385357187500 -1.87071052187500 
 N -0.122572496875002 -7.11904857187500 -2.70314352187500 
 N -2.07223149687500 -5.98872457187500 -3.76353552187500 
 N -2.96610549687500 -6.78527957187500 -0.136626521875000 
 N -3.532249687500233E-002 -3.61466557187500 -2.72869752187500 
 N -2.16953849687500 -2.51961457187500 -3.61909252187500 
 N -2.63637249687500 -3.15773257187500 0.195924478125000 
 S -0.597894496875002 -6.58930657187500 -4.19286652187500 
 S -3.61448249687500 -6.10149957187500 -1.48582852187500 
 S -1.36258149687500 -7.14760457187500 -0.194334521875000 
 S -0.684279496875002 -3.02231257187500 -4.17921652187500 
 S -3.56195149687500 -2.70227957187500 -1.16394752187500 
 S -1.06875749687500 -3.71593057187500 -9.343252187499984E-002
