16

 C -2.51474134375001 -6.52635499062500 -2.41946290625000 
 C -1.24204534375001 -6.93116099062500 -1.94681090625000 
 C -2.63869834375001 -2.74443199062500 -2.49935390625000 
 C -1.48332034375001 -3.22673199062500 -1.69984490625000 
 N -0.283422343750007 -6.90904999062500 -2.88716490625000 
 N -2.50890534375001 -6.36108199062500 -3.74311390625000 
 N -2.76665134375001 -6.86240599062500 7.054009375000114E-002
 N -0.504400343750008 -3.60924599062500 -2.50411390625000 
 N -2.41558334375001 -2.70934599062500 -3.80075390625000 
 N -3.29461934375001 -2.66986999062500 -5.221590624999894E-002
 S -1.01055934375001 -6.55771099062500 -4.33608490625000 
 S -3.75133434375001 -6.46068999062500 -1.24694590625000 
 S -1.22403634375001 -7.49247999062500 -0.247537906249999 
 S -0.877458343750007 -3.32908699062500 -4.07393290625000 
 S -3.89460234375001 -2.05596899062500 -1.51881790625000 
 S -1.75860134375001 -3.23224199062500 -3.454690624999879E-002
