16

 C -2.42737393124999 -6.30402747500001 -2.28727778437500 
 C -1.17913893124999 -6.72677947500000 -1.69632178437500 
 C -2.48701493124999 -2.54141647500000 -2.83927478437500 
 C -1.16290993124999 -2.75018247500001 -2.21042478437500 
 N -0.155317931249993 -6.72369947500000 -2.53644178437500 
 N -2.44799493124999 -6.08369447500001 -3.61504278437500 
 N -3.05557393124999 -6.90326147500000 0.109306215625001 
 N -0.112493931249992 -2.84724547500000 -3.02663778437500 
 N -2.37724293124999 -2.53044647500001 -4.15581778437500 
 N -3.09084993124999 -2.93967947500000 -0.409779784374998 
 S -0.868212931249992 -6.34949647500000 -3.99899078437500 
 S -3.82864793124999 -6.31794247500000 -1.21564278437500 
 S -1.35578693124999 -6.96833347500000 3.372321562500136E-002
 S -0.754365931249993 -2.58117347500001 -4.60068678437500 
 S -3.89153493124999 -2.61893147500000 -1.87730478437500 
 S -1.37214993124999 -3.07518747500001 -0.473598784374998 
