16

 C -2.48620066562499 -6.56099810312500 -2.21440056250000 
 C -1.20228966562499 -7.02356710312500 -1.66088156250000 
 C -2.50634666562499 -2.85145010312500 -2.45443056250000 
 C -1.36217666562499 -3.39328510312500 -1.77254656250000 
 N -0.321148665624990 -7.13802610312500 -2.61605856250000 
 N -2.48098466562499 -6.27004610312500 -3.52770356250000 
 N -2.81854366562499 -7.09106310312500 0.355603437500001 
 N -0.308710665624989 -3.51371310312500 -2.56933156250000 
 N -2.30277066562499 -2.66355910312500 -3.72955056250000 
 N -3.22749666562499 -3.13160010312500 -2.547956249999905E-002
 S -0.922160665624990 -6.54707810312500 -4.04070256250000 
 S -3.63279166562499 -6.37160210312500 -0.883486562499999 
 S -1.28110666562499 -7.42604310312500 2.370543750000076E-002
 S -0.768367665624989 -3.17878610312500 -4.15475556250000 
 S -3.78077666562499 -2.30548610312500 -1.39046656250000 
 S -1.64759966562499 -3.59882910312500 -7.925556249999910E-002
