16

 C -2.60835137500000 -6.44681436562500 -2.51972976250000 
 C -1.46770237500000 -7.00750336562500 -1.83291976250000 
 C -2.26175037500000 -2.83930336562500 -2.40435976250000 
 C -0.996441375000000 -3.29672836562500 -1.75954576250000 
 N -0.400297375000000 -7.10864836562500 -2.61590276250000 
 N -2.45589837500000 -6.14629336562500 -3.82933476250000 
 N -3.34611437500000 -6.76354036562500 -5.138476249999968E-002
 N 3.149162500000013E-002 -3.54049036562500 -2.60421376250000 
 N -2.14557837500000 -2.64559836562500 -3.72801076250000 
 N -2.78563137500000 -3.22315836562500 8.245023750000047E-002
 S -0.909301375000000 -6.65633036562500 -4.18936876250000 
 S -4.04056037500000 -6.29780236562500 -1.51109176250000 
 S -1.78786137500000 -7.29407836562500 -0.147206762500000 
 S -0.569685375000000 -3.01797536562500 -4.08512176250000 
 S -3.58827137500000 -2.74241336562500 -1.27454076250000 
 S -1.19461637500000 -3.61535336562500 -5.895376249999984E-002
