16

 C -2.67048068750000 -6.19388592500000 -2.46974682500000 
 C -1.54017568750000 -6.76766892500000 -1.79427682500000 
 C -2.25679568750000 -3.05233292500000 -2.28683882500000 
 C -0.916347687499997 -3.41571192500000 -1.70482182500000 
 N -0.488024687499998 -7.01966992500000 -2.57380582500000 
 N -2.46086568750000 -6.03897792500000 -3.77721782500000 
 N -3.36701468750000 -6.48764592500000 -3.149082500000189E-002
 N 0.110414312500003 -3.37940492500000 -2.55921482500000 
 N -2.14869468750000 -2.65691192500000 -3.55391682500000 
 N -2.65286468750000 -3.40683192500000 0.249960174999998 
 S -0.923413687499997 -6.61029492500000 -4.12380582500000 
 S -4.07635368750000 -5.96591592500000 -1.45315782500000 
 S -1.80188368750000 -7.01687592500000 -0.126603825000002 
 S -0.554794687499998 -2.85858992500000 -4.03570982500000 
 S -3.54987868750000 -2.96887792500000 -1.11123982500000 
 S -0.997211687499997 -3.69745292500000 2.303417499999805E-002
