16

 C -2.65184103437500 -6.49703414375000 -2.42043440000000 
 C -1.48054903437500 -6.80186314375000 -1.68017940000000 
 C -2.65748503437500 -2.33777114375000 -2.35847040000000 
 C -1.54360103437500 -2.98943814375000 -1.77458840000000 
 N -0.404224034375000 -6.93656914375000 -2.42238940000000 
 N -2.43967503437500 -6.28788514375000 -3.71242540000000 
 N -3.24652703437500 -6.66169614375000 7.431360000000042E-002
 N -0.543477034375000 -3.22090314375000 -2.60787940000000 
 N -2.54922603437500 -2.16076814375000 -3.65034340000000 
 N -3.29065003437500 -2.85691714375000 5.544060000000028E-002
 S -0.838033034375000 -6.58121714375000 -3.94115340000000 
 S -4.01348603437500 -6.61494714375000 -1.31119440000000 
 S -1.62085303437500 -7.01691814375000 -3.103139999999960E-002
 S -0.993847034374999 -2.73953614375000 -4.07990640000000 
 S -3.91784803437500 -2.18756914375000 -1.31316640000000 
 S -1.65330803437500 -3.19075514375000 -9.633739999999968E-002
