16

 C -2.75647819062501 -6.67930361562500 -2.37275530937500 
 C -1.52633419062501 -7.05541761562500 -1.68253230937500 
 C -2.47922219062501 -3.18998461562500 -2.36070530937500 
 C -1.09550319062501 -3.22516961562500 -1.88089830937500 
 N -0.509577190625008 -7.14609861562500 -2.54998630937500 
 N -2.64412819062501 -6.46175361562500 -3.68073730937500 
 N -3.19203519062501 -6.62150361562500 0.230854690625001 
 N -0.129881190625008 -3.17334261562500 -2.79964930937500 
 N -2.51774919062501 -3.17299361562500 -3.68458330937500 
 N -2.76137419062501 -3.10609661562500 0.137358690625001 
 S -1.07424119062501 -6.81891061562500 -4.08160130937500 
 S -3.99757619062501 -6.21667661562500 -1.16454930937500 
 S -1.56380119062501 -6.92913561562500 1.576669062500113E-002
 S -0.969787190625008 -3.21610661562500 -4.26940730937500 
 S -3.75731919062501 -3.06087761562500 -1.24996930937500 
 S -1.13273919062501 -3.28632961562500 -9.480030937499873E-002
