16

 C -2.57864597812500 -6.31239627500000 -2.52087672187500 
 C -1.32378297812500 -6.68250427500000 -1.91447172187500 
 C -2.64850697812500 -2.92611127500000 -2.32032072187500 
 C -1.42974597812500 -3.31989627500000 -1.68064372187500 
 N -0.303357978125000 -6.83911327500000 -2.74306672187500 
 N -2.50760397812500 -6.25974127500000 -3.85346972187500 
 N -2.96649197812500 -6.42828027500000 5.796027812499727E-002
 N -0.451556978125000 -3.45967227500000 -2.56563372187500 
 N -2.55068297812500 -2.72527027500000 -3.62414572187500 
 N -3.15607797812500 -3.03316827500000 0.230310278124997 
 S -0.949470978124999 -6.53061227500000 -4.22235672187500 
 S -3.83015897812500 -6.17405927500000 -1.34470672187500 
 S -1.33898097812500 -6.68354827500000 -0.144029721875003 
 S -1.02896797812500 -3.18288327500000 -4.06403272187500 
 S -3.89885797812500 -2.64211627500000 -1.21696872187500 
 S -1.56399297812500 -3.43576627500000 2.970727812499718E-002
