16

 C -2.32409875937501 -6.37416472812500 -2.64872611875000 
 C -1.08561475937501 -6.75310272812500 -1.99762711875000 
 C -2.78715675937501 -2.72147372812500 -2.34725411875000 
 C -1.61191475937501 -3.04282872812500 -1.63450111875000 
 N -8.109575937500768E-002 -7.06868272812500 -2.80581511875000 
 N -2.19379875937501 -6.35349072812500 -3.96256111875000 
 N -2.78808375937501 -6.43250372812500 -7.791511874999801E-002
 N -0.541924759375008 -3.13998072812500 -2.42090211875000 
 N -2.65851975937501 -2.63937372812500 -3.67657811875000 
 N -3.43078475937501 -2.86603172812500 0.143513881250002 
 S -0.663580759375008 -6.80397272812500 -4.33408911875000 
 S -3.56243375937501 -6.07403972812500 -1.48864511875000 
 S -1.17994275937501 -6.87038172812500 -0.207317118749998 
 S -1.08816275937501 -3.02892372812500 -3.95475511875000 
 S -4.06397175937501 -2.29818372812500 -1.25557411875000 
 S -1.80592975937501 -3.11062672812500 7.230988125000182E-002
