16

 C -2.48153423437500 -6.59328408437500 -2.44728959375000 
 C -1.17768523437500 -6.95232708437500 -1.93074359375000 
 C -2.62336223437500 -2.77587408437500 -2.50555559375000 
 C -1.47377023437500 -3.25422708437500 -1.81349559375000 
 N -0.242322234374998 -6.94710608437500 -2.86716459375000 
 N -2.59715823437500 -6.34995908437500 -3.73330459375000 
 N -2.86818723437500 -6.88451108437500 7.593540624999862E-002
 N -0.380375234374998 -3.52590208437500 -2.51907959375000 
 N -2.42158723437500 -2.73999408437500 -3.80515659375000 
 N -3.28943923437500 -2.67803708437500 -7.900559375000138E-002
 S -1.04793423437500 -6.55653908437500 -4.32391559375000 
 S -3.73956323437500 -6.46552108437500 -1.27421159375000 
 S -1.30498523437500 -7.40266308437500 -0.258980593750002 
 S -0.852609234374999 -3.27125908437500 -4.08278859375000 
 S -3.91433323437500 -2.13997208437500 -1.51565759375000 
 S -1.71382923437500 -3.24080008437500 -6.547759375000139E-002
