16

 C -2.55125769062499 -6.41666440000000 -2.43172591250000 
 C -1.34067769062499 -6.74951840000000 -1.72692791250000 
 C -2.62203469062499 -2.48052440000000 -2.42420991250000 
 C -1.38250169062499 -3.01550840000000 -1.85250491250000 
 N -0.261334690624986 -6.81162140000000 -2.51636391250000 
 N -2.41919869062499 -6.22685340000000 -3.75246891250000 
 N -3.32042169062499 -6.65692740000000 6.565808749999924E-002
 N -0.393513690624986 -3.28944040000000 -2.73401591250000 
 N -2.48735269062499 -2.21985240000000 -3.71805591250000 
 N -3.12897569062499 -2.69569740000000 9.030808749999930E-002
 S -0.808213690624986 -6.52718140000000 -4.08334391250000 
 S -4.05287369062499 -6.56655740000000 -1.44558491250000 
 S -1.61675469062499 -6.94809440000000 5.184087499999324E-003
 S -0.973068690624986 -2.73220040000000 -4.19429491250000 
 S -3.96326269062499 -2.21798740000000 -1.25889091250000 
 S -1.54639469062499 -3.18772640000000 -5.892491250000065E-002
