16

 C -2.27076594375000 -6.20714024375000 -2.07666407187500 
 C -1.02259994375000 -6.70902124375000 -1.60485807187500 
 C -2.39572294374999 -2.73371424375000 -2.43681007187500 
 C -1.24210594375000 -3.11117024375000 -1.68820707187500 
 N -7.120894374999498E-002 -6.81307524375000 -2.54499307187500 
 N -2.31453994375000 -6.00135024375000 -3.40472307187500 
 N -2.71044494375000 -6.68271324375000 0.449854928125003 
 N -0.206807943749995 -3.39019724375000 -2.47336607187500 
 N -2.28913994375000 -2.75371124375000 -3.75828007187500 
 N -3.04121894375000 -2.72306824375000 5.317892812500302E-002
 S -0.778504943749995 -6.36423524375000 -3.99916607187500 
 S -3.51981394374999 -6.13804024375000 -0.835176071874997 
 S -1.15902994374999 -7.23437724375000 0.102300928125003 
 S -0.623282943749995 -3.07906924375000 -4.02834707187500 
 S -3.75608794375000 -2.32337524375000 -1.37847407187500 
 S -1.54382194374999 -3.42460124375000 4.064928125002920E-003
