16

 C -2.58269277500000 -6.23704021250001 -2.53569893437500 
 C -1.44798977500000 -6.76835421250001 -1.82120993437500 
 C -2.18653677500000 -2.91060021250001 -2.25241693437500 
 C -0.935284774999995 -3.38473021250001 -1.73677593437500 
 N -0.389787774999995 -7.01894921250001 -2.59138493437500 
 N -2.39292377500000 -6.03825221250001 -3.84789493437500 
 N -3.31974477500000 -6.50435121250001 -4.821993437499894E-002
 N 4.966022500000467E-002 -3.39064921250001 -2.62822793437500 
 N -2.16692577500000 -2.70002621250001 -3.56350693437500 
 N -2.61800177500000 -3.46746721250001 0.189561065625001 
 S -0.850869774999995 -6.60818921250001 -4.13896193437500 
 S -3.95433177500000 -5.90457721250001 -1.43527493437500 
 S -1.74749177499999 -6.99087821250001 -0.150749934374999 
 S -0.600976774999995 -2.81673221250001 -4.02381893437500 
 S -3.46354277500000 -2.99750521250001 -1.11764593437500 
 S -1.01647577500000 -3.82009221250001 -6.827793437499907E-002
