16

 C -2.26762885937499 -6.36211955625000 -2.46567368750000 
 C -1.13981785937499 -6.85290455625000 -1.71097868750000 
 C -2.72149685937499 -2.49118355624999 -2.50164968750000 
 C -1.47865585937499 -2.86159455624999 -1.87279768750000 
 N -3.423085937499337E-002 -6.97451855625000 -2.45445568750000 
 N -2.06821885937499 -6.14782855625000 -3.76751868750000 
 N -3.04095585937499 -6.45799455624999 -4.174668750000254E-002
 N -0.423349859374993 -2.84091855624999 -2.68941168750000 
 N -2.67130685937499 -2.31433855624999 -3.80157368750000 
 N -3.29154485937499 -2.89394555624999 2.558331249999757E-002
 S -0.484894859374993 -6.62432555625000 -4.01484768750000 
 S -3.71328785937499 -6.17722655624999 -1.51022268750000 
 S -1.45950585937499 -7.07459455624999 -4.806368750000223E-002
 S -1.03342085937499 -2.54683455624999 -4.15048168750000 
 S -4.07653585937499 -2.45508355624999 -1.40157568750000 
 S -1.65433285937499 -2.93449555624999 -8.040268750000257E-002
