16

 C -2.44768615625000 -6.59218812812500 -2.50709993437500 
 C -1.16321015625000 -6.63487812812500 -1.81622193437500 
 C -2.44248515625000 -2.10617712812500 -2.69234793437500 
 C -1.44362015625000 -2.89986512812500 -2.03179893437500 
 N -7.722115624999670E-002 -6.62186012812500 -2.57428493437500 
 N -2.32558515625000 -6.49185812812500 -3.81418893437500 
 N -3.03139315625000 -6.55598112812500 2.382806562500006E-002
 N -0.338840156249996 -3.19611212812500 -2.72897593437500 
 N -2.09232315625000 -1.80264512812500 -3.92181593437500 
 N -3.47615415625000 -2.64013412812500 -0.477206934375000 
 S -0.702589156249997 -6.48976412812500 -4.12917293437500 
 S -3.78024915625000 -6.37277612812500 -1.43073293437500 
 S -1.36441615625000 -6.78165712812500 -9.138493437499995E-002
 S -0.573227156249997 -2.51872212812500 -4.26841493437500 
 S -3.98931715625000 -1.83692012812500 -1.82047493437500 
 S -1.97458915625000 -3.39128412812500 -0.441882934375000 
