16

 C -2.66093034062500 -6.58256675937500 -2.35267413437500 
 C -1.44695634062500 -6.95098675937500 -1.67987413437500 
 C -2.69346234062500 -2.38998975937500 -2.41258113437500 
 C -1.49310134062500 -2.96131775937500 -1.70770813437500 
 N -0.344503340625002 -7.02541575937500 -2.43564213437500 
 N -2.52048534062500 -6.39141475937500 -3.66536613437500 
 N -3.23203434062500 -6.72944475937500 0.198109865624995 
 N -0.456275340625002 -3.22271075937500 -2.52924913437500 
 N -2.49808734062500 -2.14089175937500 -3.72233613437500 
 N -3.35261434062500 -2.90255275937500 2.675186562499543E-002
 S -0.858838340625002 -6.60877775937500 -3.97344313437500 
 S -4.07010834062500 -6.56895475937500 -1.30505613437500 
 S -1.57234934062500 -7.09796775937500 9.721986562499541E-002
 S -1.03259134062500 -2.74726075937500 -4.04557613437500 
 S -4.04127134062500 -2.09924075937500 -1.27731313437500 
 S -1.75859434062500 -3.26013075937500 -2.362813437500466E-002
