16

 C -2.50453619375000 -6.70173364375000 -2.36583162187500 
 C -1.40592019375000 -7.29469664375000 -1.65227762187500 
 C -2.50482319375000 -2.47295064375000 -2.45988562187500 
 C -1.33166019375000 -3.04784964375000 -1.79968362187500 
 N -0.403845193749996 -7.58058064375000 -2.45207362187500 
 N -2.34142919375000 -6.64394164375000 -3.68849662187500 
 N -3.07451719375000 -6.55037264375000 7.445337812499897E-002
 N -0.325743193749997 -3.32132564375000 -2.61664662187500 
 N -2.36839519375000 -2.26485764375000 -3.76068962187500 
 N -3.18068919375000 -3.03520364375000 -1.072662187500106E-002
 S -0.779205193749997 -7.11090764375000 -4.00955462187500 
 S -3.81456819375000 -6.13175164375000 -1.30312162187500 
 S -1.52615819375000 -7.22910464375000 7.008837812499902E-002
 S -0.865070193749997 -2.93609664375000 -4.14736562187500 
 S -3.82650219375000 -2.23050464375000 -1.33254162187500 
 S -1.57502719375000 -3.36566564375000 -4.122162187500100E-002
