16

 C -2.41435342500000 -6.58296997187500 -2.28611448750000 
 C -1.26557242500000 -7.11701397187500 -1.58984948750000 
 C -2.46993842500000 -2.53436497187500 -2.42190848750000 
 C -1.25249642500000 -3.04373097187500 -1.79860448750000 
 N -0.300120424999996 -7.45145497187500 -2.45687848750000 
 N -2.32042942500000 -6.60374397187500 -3.59670848750000 
 N -3.07334442500000 -6.45432997187500 0.168543512499997 
 N -0.202369424999996 -3.14029697187500 -2.60778548750000 
 N -2.32405742500000 -2.37643197187500 -3.73604748750000 
 N -3.11061842500000 -2.96823697187500 -3.913848750000315E-002
 S -0.857081424999996 -7.25485897187500 -4.02974948750000 
 S -3.73694042500000 -6.25137497187500 -1.28774548750000 
 S -1.57960842500000 -7.27747597187500 8.908451249999705E-002
 S -0.748700424999996 -2.68484397187500 -4.11519048750000 
 S -3.75915442500000 -2.19992197187500 -1.37110948750000 
 S -1.53382142500000 -3.35374597187500 -0.177858487500003 
