16

 C -2.56462144375000 -6.25147384687500 -2.52305757812500 
 C -1.43840044375000 -6.98994984687500 -2.01868357812500 
 C -2.49131844375000 -2.67932484687500 -2.43987357812500 
 C -1.32886044375000 -3.22206684687500 -1.78914257812500 
 N -0.432132443750004 -7.20295484687500 -2.89277057812500 
 N -2.39828644375000 -5.90845184687500 -3.79993157812500 
 N -3.08605644375000 -6.82306184687500 -5.154557812500027E-002
 N -0.286565443750003 -3.29012684687500 -2.58677857812500 
 N -2.37352344375000 -2.46467084687500 -3.74962257812500 
 N -3.08837844375000 -2.75619984687500 4.620642187499979E-002
 S -0.935542443750004 -6.45910684687500 -4.24061557812500 
 S -3.82804044375000 -6.04907184687500 -1.31343857812500 
 S -1.57200144375000 -7.58993384687500 -0.379869578125000 
 S -0.835097443750004 -2.97380184687500 -4.12091657812500 
 S -3.70125744375000 -2.21231084687500 -1.34686457812500 
 S -1.60152444375000 -3.48786184687500 -6.957657812500018E-002
