16

 C -2.26178827812501 -6.40985800000000 -2.23533276562500 
 C -1.07776827812501 -6.98399000000000 -1.72569676562500 
 C -2.29262027812501 -2.51781500000000 -2.46644476562500 
 C -1.11732827812501 -3.18720900000000 -1.89782376562500 
 N -0.103384278125006 -7.31444500000000 -2.59423776562500 
 N -2.23781227812501 -6.28731700000000 -3.55243076562500 
 N -2.72785227812501 -6.74624600000000 0.314407234375001 
 N -0.112800278125006 -3.37728100000000 -2.76773276562500 
 N -2.18255527812501 -2.30127600000000 -3.77649276562500 
 N -2.85698527812501 -3.14230200000000 -9.868765624998943E-003
 S -0.703255278125005 -6.87991800000000 -4.08117176562500 
 S -3.53122327812501 -6.10177800000000 -1.01580976562500 
 S -1.09880027812501 -7.28219400000000 6.934234375001180E-003
 S -0.696610278125005 -2.76309000000000 -4.22607176562500 
 S -3.64832827812501 -2.39177400000000 -1.26570776562500 
 S -1.21081627812501 -3.59386900000000 -0.211557765624999 
