16

 C -2.33725239375001 -6.55938993750000 -2.44688557187500 
 C -1.08913039375000 -6.79795893750000 -1.78111457187500 
 C -2.44502139375001 -3.34597393750000 -2.28159557187500 
 C -1.16587639375000 -3.46883193750000 -1.61276857187500 
 N -2.613639375000520E-002 -7.01945993750000 -2.54020557187500 
 N -2.20344939375001 -6.55168593750000 -3.75943457187500 
 N -2.97274639375000 -6.65100893750000 3.746042812500239E-002
 N -9.884339375000550E-002 -3.61740293750000 -2.38990157187500 
 N -2.35067639375001 -3.30184593750000 -3.63862057187500 
 N -2.97027439375000 -3.39071893750000 0.247260428125002 
 S -0.614275393750005 -6.86958993750000 -4.09059057187500 
 S -3.73526839375001 -6.30776793750000 -1.43323457187500 
 S -1.35254739375001 -6.93957893750000 -3.571457187499760E-002
 S -0.747482393750005 -3.53921593750000 -3.97673857187500 
 S -3.75955339375001 -3.32021393750000 -1.15329757187500 
 S -1.31439839375000 -3.52809393750000 0.124400428125002 
