16

 C -2.58569852812500 -6.42687709687499 -2.50081773750000 
 C -1.43607052812500 -6.88136209687499 -1.73656673750000 
 C -2.44627552812500 -2.97684709687499 -2.37117273750000 
 C -1.18552652812500 -3.14317109687499 -1.67515273750000 
 N -0.366626528125002 -7.20711309687499 -2.49089273750000 
 N -2.42248052812500 -6.44876609687499 -3.84434973750000 
 N -3.21514752812500 -6.23310009687499 -7.957737499998618E-003
 N -0.151925528125002 -3.37197409687499 -2.50834173750000 
 N -2.34582252812500 -2.99636009687499 -3.69569073750000 
 N -3.03606952812500 -3.08798909687499 0.173122262500002 
 S -0.850585528125002 -6.93437309687499 -4.04937873750000 
 S -3.89733152812500 -5.81350309687499 -1.53105173750000 
 S -1.66258252812500 -6.70444209687499 -2.518573749999864E-002
 S -0.754610528125002 -3.17077409687499 -4.03868173750000 
 S -3.80468452812500 -2.78677709687499 -1.28870273750000 
 S -1.41946152812500 -3.44157509687499 3.884526250000153E-002
