16

 C -2.39610907500000 -6.50653484687500 -2.57574031562500 
 C -1.17358507500000 -6.97301584687500 -1.91006931562500 
 C -2.64307407500000 -2.51748684687500 -2.29701031562500 
 C -1.53479707500000 -3.21352784687500 -1.66441931562500 
 N -0.189893074999998 -7.10342184687500 -2.77801031562500 
 N -2.30014507500000 -6.27569784687500 -3.88665331562500 
 N -2.96550807500000 -6.83950284687500 -4.018031562499980E-002
 N -0.496360074999998 -3.48993584687500 -2.47374531562500 
 N -2.44831307500000 -2.42079784687500 -3.62095331562500 
 N -3.31767307500000 -2.88844584687500 0.125625684375000 
 S -0.689409074999998 -6.61867684687500 -4.28198931562500 
 S -3.72050107500000 -6.36587884687500 -1.49332031562500 
 S -1.33165407500000 -7.13893684687500 -0.225945315625000 
 S -0.976058074999998 -2.94888084687500 -3.99151331562500 
 S -3.97570907500000 -2.21674684687500 -1.22783131562500 
 S -1.77952007500000 -3.31256484687500 4.123068437500010E-002
