16

 C -2.51371785625000 -6.49825488437500 -2.39101820625000 
 C -1.33819585625000 -6.97271388437500 -1.75546920625000 
 C -2.58269385625000 -2.70121088437500 -2.52059720625000 
 C -1.33434785625000 -3.18431288437500 -1.83582520625000 
 N -0.343235856249998 -7.18281188437500 -2.58977520625000 
 N -2.37442885625000 -6.26499788437500 -3.69653920625000 
 N -3.09424885625000 -6.83394088437500 0.101467793750001 
 N -0.232721856249998 -3.28510688437500 -2.57908320625000 
 N -2.31057685625000 -2.51138688437500 -3.82739020625000 
 N -3.19014185625000 -2.96610488437500 -4.106420624999907E-002
 S -0.846948856249998 -6.71894988437500 -4.06888420625000 
 S -3.88304185625000 -6.44793288437500 -1.30650920625000 
 S -1.49921185625000 -7.17645988437500 -8.705420624999904E-002
 S -0.754247856249998 -2.93013988437500 -4.12995720625000 
 S -3.95359485625000 -2.64591288437500 -1.51669220625000 
 S -1.56521985625000 -3.31330488437500 -0.124820206249999 
