16

 C -2.35353030937500 -6.45451729062500 -2.16470533750000 
 C -1.15383730937500 -7.05569529062500 -1.67236633750000 
 C -2.28705730937500 -2.76252329062500 -2.62326733750000 
 C -1.11132230937500 -3.16669629062500 -1.96569733750000 
 N -5.410430937499733E-002 -6.97632929062500 -2.40935233750000 
 N -2.21403830937500 -6.04527229062500 -3.40623433750000 
 N -2.93177430937500 -7.04721629062500 0.274544662499998 
 N -7.338930937499732E-002 -3.41499429062500 -2.77029033750000 
 N -2.14405630937500 -2.64189029062500 -3.91703333750000 
 N -2.85913930937500 -2.62063129062500 -0.175577337500002 
 S -0.576980309374997 -6.23812129062500 -3.80157833750000 
 S -3.64309230937500 -6.32222829062500 -0.991412337500001 
 S -1.27239330937500 -7.33748829062500 0.125566662499998 
 S -0.605861309374998 -3.10322629062500 -4.33296533750000 
 S -3.65814830937500 -2.39814729062500 -1.63326733750000 
 S -1.33807630937500 -3.21744629062500 -0.288715337500002 
