16

 C -2.31866086562500 -6.60073557812500 -2.50569932187500 
 C -1.11602786562500 -7.08723057812500 -1.81679132187500 
 C -2.34782086562500 -2.96311957812500 -2.54369232187500 
 C -1.16142686562500 -3.40352257812500 -1.88086332187500 
 N -2.322286562500420E-002 -7.17707957812500 -2.58095732187500 
 N -2.13217286562500 -6.35292857812500 -3.79440132187500 
 N -3.01712486562500 -6.87261657812500 -2.294321875000671E-003
 N -9.284286562500466E-002 -3.55132857812500 -2.63548232187500 
 N -2.25090286562500 -2.82871557812500 -3.88076632187500 
 N -3.04882686562500 -3.21361057812500 -7.216321875000764E-003
 S -0.551791865625004 -6.65397257812500 -4.12605232187500 
 S -3.74067186562500 -6.45577557812500 -1.48731132187500 
 S -1.44587486562500 -7.39041757812500 -3.454932187500059E-002
 S -0.634963865625005 -3.17017857812500 -4.21875332187500 
 S -3.73449186562500 -2.61125757812500 -1.44404732187500 
 S -1.46468186562500 -3.74763457812500 -9.518632187500087E-002
