16

 C -2.07296995000000 -6.45163225625000 -2.33596988750000 
 C -0.866530950000000 -6.94446825625000 -1.72644888750000 
 C -2.61445695000000 -2.53653925625000 -2.40896088750000 
 C -1.44076595000000 -2.99166325625000 -1.82744088750000 
 N 9.225104999999978E-002 -7.24345025625000 -2.58098388750000 
 N -2.00369495000000 -6.35655525625000 -3.65868588750000 
 N -2.66823195000000 -6.76744725625000 0.165526112500000 
 N -0.410687950000000 -3.14380325625000 -2.66489688750000 
 N -2.52358695000000 -2.39064125625000 -3.74032588750000 
 N -3.07453295000000 -2.69981025625000 8.469811249999992E-002
 S -0.532619950000000 -6.88151425625000 -4.09186088750000 
 S -3.43703295000000 -6.29966125625000 -1.24777288750000 
 S -1.05830695000000 -7.18395425625000 2.350311250000003E-002
 S -0.946868950000000 -2.78340725625000 -4.16994388750000 
 S -3.96528495000000 -2.30212625625000 -1.32556088750000 
 S -1.47315595000000 -3.02135825625000 -8.594388749999982E-002
