16

 C -2.32465316562500 -6.41965603750000 -2.17271225937500 
 C -1.15965516562500 -6.98870503750000 -1.60565925937500 
 C -2.33828816562499 -2.75691303750000 -2.63193625937500 
 C -1.12860516562499 -3.17946203750000 -1.98146025937500 
 N -8.880816562499572E-002 -6.99339303750000 -2.40054125937500 
 N -2.15849516562499 -6.05135003750000 -3.43430325937500 
 N -2.88243516562500 -7.01097903750000 0.300639740625000 
 N -0.126772165624995 -3.39743403750000 -2.77497325937500 
 N -2.14851716562500 -2.59964403750000 -3.91888925937500 
 N -2.88461316562500 -2.67204103750000 -0.173445259375000 
 S -0.543628165624995 -6.24661303750000 -3.80319025937500 
 S -3.64339116562499 -6.31832703750000 -0.988786259374999 
 S -1.28966816562500 -7.33269103750000 0.105538740625000 
 S -0.623998165624995 -3.11490503750000 -4.34890625937500 
 S -3.66776316562500 -2.41536003750000 -1.63967225937500 
 S -1.31195616562499 -3.21717903750000 -0.283138259375000 
