16

 C -2.63502172187500 -6.36764708437500 -2.29480610937500 
 C -1.46234772187500 -6.91468408437500 -1.66646910937500 
 C -2.46921572187500 -2.78645608437500 -2.40786810937500 
 C -1.18876072187500 -3.19623408437500 -1.82176110937500 
 N -0.426026721875001 -7.21083008437500 -2.47013810937500 
 N -2.55755172187500 -6.30803108437500 -3.62405010937500 
 N -3.16752972187500 -6.45440108437500 0.195177890625001 
 N -0.290318721875001 -3.45836808437500 -2.74196110937500 
 N -2.40992472187500 -2.64514508437500 -3.70941010937500 
 N -2.89062772187500 -2.93450408437500 0.131248890625001 
 S -1.03242172187500 -6.87006208437500 -3.98719110937500 
 S -3.99512372187500 -6.16956908437500 -1.23459510937500 
 S -1.61479772187500 -6.99399108437500 3.437889062500088E-002
 S -0.921504721875001 -3.15398608437500 -4.22181410937500 
 S -3.75377072187500 -2.61242108437500 -1.27527610937500 
 S -1.29635272187500 -3.32384308437500 -0.141615109374999 
