16

 C -2.17765134062501 -6.78526687500000 -2.53329113750000 
 C -1.00050534062501 -7.29085187500000 -1.83443113750000 
 C -2.50744734062501 -2.58176987500000 -2.54353713750000 
 C -1.35305234062501 -3.11018487500000 -1.89411313750000 
 N -4.611434062500930E-002 -7.76191987500000 -2.69280213750000 
 N -2.05838034062501 -6.86402487500000 -3.83891713750000 
 N -2.72297834062501 -6.62321487500000 3.482686249999922E-002
 N -0.365317340625009 -3.41305187500000 -2.71758113750000 
 N -2.44290834062501 -2.52344087500000 -3.88272813750000 
 N -3.14984834062501 -2.77184087500000 -2.769913750000086E-002
 S -0.587672340625010 -7.45189687500000 -4.24743813750000 
 S -3.49865034062501 -6.37019987500000 -1.46301113750000 
 S -1.26277634062501 -7.39117987500000 -1.869137500000839E-003
 S -0.882766340625009 -3.13962887500000 -4.26650613750000 
 S -3.91514834062501 -2.41196387500000 -1.48582413750000 
 S -1.50226734062501 -3.11121687500000 -0.167316137500001 
