16

 C -2.64314330000000 -6.37429094375000 -2.28488392187500 
 C -1.44292430000000 -6.89167094375000 -1.69200792187500 
 C -2.44284130000000 -2.83262794375000 -2.38815792187500 
 C -1.20139530000000 -3.28564694375000 -1.81609992187500 
 N -0.428410299999998 -7.20052694375000 -2.49606792187500 
 N -2.53844530000000 -6.31648294375000 -3.61126292187500 
 N -3.17123630000000 -6.44742694375000 0.201121078125002 
 N -0.247396299999998 -3.44714394375000 -2.73365092187500 
 N -2.36739830000000 -2.66330894375000 -3.70531592187500 
 N -2.87659330000000 -2.93953994375000 8.856407812500233E-002
 S -1.04464930000000 -6.83437994375000 -4.00091392187500 
 S -3.96065330000000 -6.16254994375000 -1.22882892187500 
 S -1.63715030000000 -7.02445894375000 3.927307812500236E-002
 S -0.894417299999998 -3.15141594375000 -4.20980892187500 
 S -3.75999230000000 -2.59384094375000 -1.26287892187500 
 S -1.26864630000000 -3.31754294375000 -0.131111921874998 
