16

 C -2.38139171562500 -6.59534088749999 -2.50774886562500 
 C -1.12971971562500 -7.05525088749999 -1.92318186562500 
 C -2.39943271562500 -2.92360788749999 -2.50799186562500 
 C -1.25335271562500 -3.50746988749999 -1.80619086562500 
 N -6.719871562499691E-002 -7.12842088749999 -2.73799186562500 
 N -2.25814771562500 -6.28066788749999 -3.79826686562500 
 N -2.84459671562500 -7.06417488749999 2.074913437499637E-002
 N -0.208874715624996 -3.82731388749999 -2.55543286562500 
 N -2.20257271562500 -2.68600488749999 -3.82192286562500 
 N -3.10358871562500 -3.18728188749999 -3.571186562500372E-002
 S -0.689287715624997 -6.57844988749999 -4.18747486562500 
 S -3.73136871562500 -6.65354088749999 -1.34856986562500 
 S -1.21101471562500 -7.35667888749999 -0.240107865625003 
 S -0.675811715624997 -3.28075188749999 -4.08302786562500 
 S -3.75023271562500 -2.68889488749999 -1.48984086562500 
 S -1.50388171562500 -3.70833488749999 -0.125528865625003 
