16

 C -2.30947972187499 -6.24058668125000 -2.22380045625000 
 C -1.15207872187499 -6.78595468125000 -1.53134245625000 
 C -2.36525072187499 -2.47757868125000 -2.13271345625000 
 C -1.14259072187499 -3.06252668125000 -1.56139845625000 
 N -8.734972187499146E-002 -6.91591368125000 -2.32316345625000 
 N -2.12578772187499 -6.01957868125000 -3.52882245625000 
 N -3.00090372187499 -6.46597868125000 0.310424543750002 
 N -0.107611721874991 -3.14182268125000 -2.41077345625000 
 N -2.18270172187499 -2.16966468125000 -3.40627345625000 
 N -2.91261972187499 -3.21709568125000 0.238129543750002 
 S -0.556315721874991 -6.50582668125000 -3.90454845625000 
 S -3.72446872187499 -6.11474168125000 -1.15851545625000 
 S -1.53179672187499 -7.11326068125000 0.142504543750002 
 S -0.651996721874991 -2.44543968125000 -3.87231545625000 
 S -3.68253672187499 -2.45540168125000 -1.05078345625000 
 S -1.36212872187499 -3.74974968125000 4.732554375000175E-002
