16

 C -2.29614545937500 -6.66696855624999 -2.36125954687500 
 C -0.974542459374999 -6.93875055624999 -1.87684654687500 
 C -2.60986645937500 -2.81098355624999 -2.47167054687500 
 C -1.39697445937500 -3.32177855624999 -1.75305354687500 
 N -0.111937459374999 -6.93361255624999 -2.87190654687500 
 N -2.42152645937500 -6.51083955624999 -3.67447354687500 
 N -2.48140545937500 -6.97221355624999 0.175820453125002 
 N -0.329993459374998 -3.56400655624999 -2.52781754687500 
 N -2.35599745937500 -2.61953955624999 -3.78699454687500 
 N -3.18655845937500 -2.92070455624999 8.022245312500220E-002
 S -0.915828459374999 -6.72432655624999 -4.27653154687500 
 S -3.51175845937500 -6.79456555624999 -1.09449354687500 
 S -0.812145459374999 -7.13717255624999 -0.140785546874998 
 S -0.823150459374999 -3.08651555624999 -4.04182554687500 
 S -3.92594945937500 -2.49344755624999 -1.35508154687500 
 S -1.54773445937500 -3.43347155624999 6.353453125002240E-003
