16

 C -2.36297690000001 -6.59169514375000 -2.46702495000000 
 C -1.16645890000001 -6.87903814375000 -1.78036295000000 
 C -2.33383990000001 -3.40680614375000 -2.21562195000000 
 C -1.04696590000001 -3.57089114375000 -1.56596395000000 
 N -0.121015900000009 -7.05033614375000 -2.54705295000000 
 N -2.22574890000001 -6.63026314375000 -3.78950795000000 
 N -2.90097990000001 -6.59660814375000 6.620405000000029E-002
 N -3.762490000000884E-002 -3.60424614375000 -2.41691095000000 
 N -2.26874290000001 -3.51464914375000 -3.55081395000000 
 N -2.93135390000001 -3.39506214375000 0.265896050000000 
 S -0.594854900000009 -6.88119714375000 -4.10704395000000 
 S -3.66416990000001 -6.29492314375000 -1.37433395000000 
 S -1.27664390000001 -6.90864714375000 -5.456694999999945E-002
 S -0.634205900000008 -3.58188314375000 -3.90519995000000 
 S -3.70480890000001 -3.22865714375000 -1.22633895000000 
 S -1.23996790000001 -3.52798114375000 0.213722050000000 
