16

 C -2.58615173125000 -6.20398703437500 -2.69875456250000 
 C -1.34836673125000 -6.52979803437500 -2.02218156250000 
 C -2.47765973125000 -2.69746203437500 -2.53704656250000 
 C -1.16413473125000 -2.99323503437500 -1.85751856250000 
 N -0.316990731249999 -6.67022003437500 -2.82467156250000 
 N -2.49445373125000 -5.98516803437500 -4.00092956250000 
 N -3.23910473125000 -6.76199403437500 -0.274847562499998 
 N -0.144143731249999 -3.23994503437500 -2.68890056250000 
 N -2.38892473125000 -2.65851803437500 -3.87219856250000 
 N -2.96890773125000 -2.85099303437500 2.266543750000172E-002
 S -0.912129731249999 -6.40040503437500 -4.35666156250000 
 S -3.98624473125000 -6.19691503437500 -1.68449756250000 
 S -1.53469873125000 -6.94669103437500 -0.353753562499998 
 S -0.792566731249998 -2.97378003437500 -4.18211356250000 
 S -3.82388573125000 -2.71509703437500 -1.39139656250000 
 S -1.34670173125000 -3.15840603437500 -0.141614562499998 
