16

 C -2.26664770000000 -6.46103363437500 -2.49428732500000 
 C -1.17033970000000 -7.12904063437500 -1.82430932500000 
 C -2.44945170000000 -2.81730163437500 -2.35886532500000 
 C -1.24790870000000 -3.30326863437500 -1.76845032500000 
 N -0.173586700000002 -7.47119263437500 -2.63814732500000 
 N -2.09753970000000 -6.36582163437500 -3.80062032500000 
 N -3.01854270000000 -6.87790163437500 -0.126429324999999 
 N -0.217265700000002 -3.53698063437500 -2.52320432500000 
 N -2.32013170000000 -2.75141963437500 -3.68132332500000 
 N -2.96905570000000 -2.98900163437500 0.207767675000001 
 S -0.552107700000002 -6.95632463437500 -4.16228132500000 
 S -3.63172570000000 -6.16248963437500 -1.49635932500000 
 S -1.40165370000000 -7.27956363437500 -0.145738324999999 
 S -0.750292700000003 -3.20082363437500 -4.05809232500000 
 S -3.78108770000000 -2.63713063437500 -1.22799032500000 
 S -1.41467170000000 -3.37548963437500 1.761367500000088E-002
