16

 C -2.67904490625000 -6.33929556250001 -2.34871291562500 
 C -1.48750190625000 -6.82286656250001 -1.71899091562500 
 C -2.36324290624999 -2.75776356250001 -2.48677291562500 
 C -1.16104390625000 -3.04334156250001 -1.75917291562500 
 N -0.464261906249995 -7.16029456250001 -2.52638991562500 
 N -2.52207090625000 -6.27327756250001 -3.67885391562500 
 N -3.16044190624999 -6.24719856250001 0.201477084374999 
 N -9.207990624999507E-002 -3.25200956250001 -2.48501691562500 
 N -2.18375490624999 -2.68919656250001 -3.81413191562500 
 N -3.03055990625000 -2.85461856250001 6.394308437499929E-002
 S -1.02370390625000 -6.80053956250001 -4.05733791562500 
 S -3.96486690624999 -5.99035356250001 -1.26891091562500 
 S -1.72702190624999 -6.96773056250001 2.066208437499917E-002
 S -0.599205906249995 -3.03207456250001 -4.14263391562500 
 S -3.68164190624999 -2.41515256250001 -1.41705491562500 
 S -1.43575990625000 -3.23678456250001 -8.199791562500081E-002
