16

 C -2.42593276250001 -6.40063554687500 -2.43161780937500 
 C -1.16417376250001 -6.61481854687500 -1.71925180937500 
 C -2.26404676250001 -2.82051354687500 -2.40383280937500 
 C -0.958646762500011 -3.22329954687500 -1.78067780937500 
 N -7.168376250000996E-002 -6.75563854687500 -2.48258980937500 
 N -2.27357476250001 -6.38645154687500 -3.74596280937500 
 N -3.10079076250001 -6.44768754687500 -6.329809374999495E-003
 N 2.287323749999004E-002 -3.34720154687500 -2.64910380937500 
 N -2.21643676250001 -2.74972654687500 -3.74684780937500 
 N -2.59473776250001 -3.25774154687500 0.180778190625001 
 S -0.624856762500010 -6.55390554687500 -4.03517180937500 
 S -3.85297376250001 -6.19853754687500 -1.45848780937500 
 S -1.40997176250001 -6.84901254687500 -3.263180937499954E-002
 S -0.614899762500010 -2.93460754687500 -4.15678380937500 
 S -3.55069876250001 -2.83069754687500 -1.18595580937500 
 S -0.956477762500010 -3.55092754687500 -6.335480937499960E-002
