16

 C -2.45144861562500 -6.53999130000000 -2.31551012500000 
 C -1.29709361562500 -6.99814830000000 -1.60361812500000 
 C -2.46774461562500 -2.76991930000000 -2.43425812500000 
 C -1.23283161562500 -3.19305730000000 -1.75246512500000 
 N -0.207824615625004 -7.16968730000000 -2.33381512500000 
 N -2.20592361562500 -6.39011530000000 -3.60175812500000 
 N -3.10231261562500 -6.60325830000000 0.170235874999999 
 N -0.210141615625004 -3.16470330000000 -2.61192712500000 
 N -2.30533661562500 -2.48915730000000 -3.72994012500000 
 N -3.12577861562500 -3.29603930000000 -1.757712500000053E-002
 S -0.635607615625004 -6.76742330000000 -3.89175412500000 
 S -3.83547661562500 -6.27646430000000 -1.29693512500000 
 S -1.56564061562500 -7.25276530000000 0.154199875000000 
 S -0.672201615625004 -2.69653130000000 -4.10270812500000 
 S -3.86013561562500 -2.73500830000000 -1.41869412500000 
 S -1.44767361562500 -3.48033930000000 -8.202612500000028E-002
