16

 C -2.40847062187500 -6.62340260312500 -2.27587132187500 
 C -1.15212162187500 -6.91162360312500 -1.61152432187500 
 C -2.41571862187500 -2.66764360312500 -2.49178532187500 
 C -1.22251162187500 -3.25606860312500 -1.89807132187500 
 N -0.164146621874998 -7.04755760312500 -2.48026832187500 
 N -2.37304962187500 -6.46287860312500 -3.59102132187500 
 N -2.91697562187500 -6.72361360312500 0.277318678125000 
 N -0.272571621874998 -3.58984260312500 -2.77427532187500 
 N -2.28722262187500 -2.54272860312500 -3.79070732187500 
 N -3.01957662187500 -2.99482760312500 4.639867812499987E-002
 S -0.750291621874998 -6.72654560312500 -4.03504532187500 
 S -3.76702862187500 -6.63186560312500 -1.15854332187500 
 S -1.28040362187500 -6.92093560312500 0.131720678125000 
 S -0.817834621874998 -3.05989560312500 -4.30339232187500 
 S -3.71785762187500 -2.40126660312500 -1.37680832187500 
 S -1.41639562187500 -3.40102160312500 -0.153904321875000 
