16

 C -2.26066924375000 -6.49412424687501 -2.50809856875000 
 C -1.08603024375000 -7.05419524687500 -1.83854956875000 
 C -2.38770724375000 -3.02543324687500 -2.28894656875000 
 C -1.17175024375000 -3.50029524687500 -1.65661056875000 
 N -6.637124375000081E-002 -7.24001924687500 -2.64987256875000 
 N -2.07837524375000 -6.22750724687501 -3.80317356875000 
 N -2.81726624375000 -6.75307824687500 3.027843125000107E-002
 N -9.322324375000068E-002 -3.67282124687500 -2.46739856875000 
 N -2.27232524375000 -2.81013724687500 -3.59424556875000 
 N -2.98174724375000 -3.01355524687501 0.153768431250001 
 S -0.551576243750000 -6.75553824687500 -4.15772956875000 
 S -3.59920824375000 -6.20879024687500 -1.34133756875000 
 S -1.30251924375000 -7.42310124687500 -0.184226568749999 
 S -0.740927243750001 -3.16803124687500 -4.05262356875000 
 S -3.69940924375000 -2.78497824687500 -1.27472256875000 
 S -1.36497024375000 -3.55760024687500 7.338443125000116E-002
