16

 C -2.77204234062500 -6.30732856250000 -2.48450048750000 
 C -1.60048634062500 -6.80742556250000 -1.79416948750000 
 C -2.25024434062500 -2.93080456250000 -2.25461848750000 
 C -1.00993134062500 -3.38252356250000 -1.63063048750000 
 N -0.543913340624999 -7.04252656250000 -2.58228748750000 
 N -2.55436134062500 -6.06059456250000 -3.77903748750000 
 N -3.41957634062500 -6.46996156250000 -1.995948749999754E-002
 N -1.636334062499945E-002 -3.37015956250000 -2.50986448750000 
 N -2.12082234062500 -2.67832656250000 -3.56161648750000 
 N -2.69227434062500 -3.26955956250000 0.260198512500003 
 S -1.03582734062500 -6.52264756250000 -4.07053648750000 
 S -4.10764534062500 -6.04050156250000 -1.46274248750000 
 S -1.84322934062500 -7.03857056250000 -5.136648749999750E-002
 S -0.565789340624999 -2.96773356250000 -3.97964548750000 
 S -3.50673134062500 -2.97870156250000 -1.13507448750000 
 S -1.10616134062500 -3.56640656250000 6.148151250000256E-002
