16

 C -2.65810582812500 -6.33311312812500 -2.36547980625000 
 C -1.46483582812500 -6.81597912812500 -1.69512480625000 
 C -2.35460282812500 -2.72327012812500 -2.49494080625000 
 C -1.16615282812500 -3.07125012812500 -1.78130280625000 
 N -0.441014828124999 -7.09238012812500 -2.52151180625000 
 N -2.56559782812500 -6.22350712812500 -3.69951480625000 
 N -3.18161682812500 -6.26131712812500 0.204418193750001 
 N -4.222282812499856E-002 -3.23363012812500 -2.47956780625000 
 N -2.21925582812500 -2.68846712812500 -3.79565980625000 
 N -3.01597182812500 -2.84063812812500 2.783919375000088E-002
 S -1.06339082812500 -6.76665312812500 -4.06666980625000 
 S -3.96287582812500 -5.96810712812500 -1.24866780625000 
 S -1.68737582812500 -6.96768312812500 5.307719375000097E-002
 S -0.625991828124999 -3.03462512812500 -4.12380780625000 
 S -3.73164482812500 -2.37189912812500 -1.42927880625000 
 S -1.41141282812500 -3.21889512812500 -4.220680624999895E-002
