16

 C -2.24138268749999 -6.39889298437500 -2.29214077500000 
 C -0.994401687499991 -6.86498398437500 -1.80283077500000 
 C -2.66542068749999 -2.53507598437500 -2.47877877500000 
 C -1.55823868749999 -3.15458098437500 -1.82425677500000 
 N -3.985468749999121E-002 -6.88227698437500 -2.71111677500000 
 N -2.22639368749999 -6.07838798437500 -3.56772077500000 
 N -2.53071468749999 -6.67434698437500 0.256451225000000 
 N -0.509207687499991 -3.31354498437500 -2.66878777500000 
 N -2.51259968749999 -2.30021598437500 -3.80520577500000 
 N -3.36172768749999 -2.97157798437500 -3.740577499999986E-002
 S -0.697655687499991 -6.44387898437500 -4.13422277500000 
 S -3.48531968749999 -6.26681298437500 -1.09317577500000 
 S -1.01015768749999 -7.20523898437500 -0.123571775000000 
 S -0.946356687499991 -2.82692598437500 -4.11986777500000 
 S -4.07332568749999 -2.35381498437500 -1.43739677500000 
 S -1.71083268749999 -3.36111898437500 -0.112711775000000 
