16

 C -2.36040945937501 -6.53644915937499 -2.48726578750000 
 C -1.10641045937501 -6.80356915937499 -1.75752678750000 
 C -2.38306045937501 -3.41383715937499 -2.28422178750000 
 C -1.13960445937501 -3.47588515937499 -1.55652478750000 
 N -1.260245937500581E-002 -7.05960515937499 -2.52138778750000 
 N -2.20912645937501 -6.61802115937499 -3.82559178750000 
 N -2.95589145937501 -6.62930815937499 2.323921249999850E-002
 N -9.237845937500566E-002 -3.60950115937499 -2.33361478750000 
 N -2.30524645937501 -3.37797415937499 -3.58927778750000 
 N -2.94379145937501 -3.40767915937499 0.248636212499999 
 S -0.606998459375006 -6.86480315937499 -4.08500978750000 
 S -3.71783845937501 -6.29829215937499 -1.39572778750000 
 S -1.31656245937501 -6.93200715937499 -4.354978750000171E-002
 S -0.728011459375006 -3.56060815937499 -3.97703378750000 
 S -3.72142445937501 -3.28523315937499 -1.17857878750000 
 S -1.30034345937501 -3.52293215937499 0.151689212499998 
