16

 C -2.37044011250000 -6.62647215312500 -2.24368546250000 
 C -1.12590811250000 -7.05793315312500 -1.61261446250000 
 C -2.36870611250000 -2.76703015312500 -2.46125946250000 
 C -1.16456611250000 -3.16778815312500 -1.78567046250000 
 N -0.116641112499999 -7.18636815312500 -2.46679146250000 
 N -2.26536611250000 -6.37793915312500 -3.57232346250000 
 N -2.83514111250000 -6.92883615312500 0.295393537500001 
 N -8.106311249999898E-002 -3.35013315312500 -2.52261846250000 
 N -2.28222511250000 -2.66945515312500 -3.78690246250000 
 N -3.00096411250000 -3.06419615312500 4.019253750000140E-002
 S -0.732136112499999 -6.74766015312500 -3.93874046250000 
 S -3.70472311250000 -6.72437615312500 -1.10734246250000 
 S -1.26549611250000 -7.33540915312500 0.112706537500001 
 S -0.707323112499999 -3.07239915312500 -4.11077646250000 
 S -3.75985211250000 -2.63930315312500 -1.37613246250000 
 S -1.37270511250000 -3.12926115312500 -2.247946249999844E-002
