16

 C -2.29314870937500 -6.46992113437501 -2.47816855937500 
 C -1.06715770937500 -6.72123413437501 -1.73413255937500 
 C -2.59126270937500 -2.71447713437501 -2.50904155937500 
 C -1.36570570937500 -2.97902113437501 -1.75725155937500 
 N -3.868170937500004E-002 -6.89567213437501 -2.53815255937500 
 N -2.16857470937500 -6.44231813437501 -3.80587855937500 
 N -3.07132470937500 -6.44070913437501 -1.341855937499892E-002
 N -0.268884709375000 -3.02289813437501 -2.53244355937500 
 N -2.44440470937500 -2.61823713437501 -3.85342155937500 
 N -3.24891370937500 -2.95069213437501 1.144644062500122E-002
 S -0.591304709374999 -6.81085613437501 -4.16349855937500 
 S -3.75727170937500 -6.17882613437501 -1.54343355937500 
 S -1.46329470937500 -6.82457313437501 9.460440625001176E-003
 S -0.821641709374999 -2.78738913437501 -4.09175855937500 
 S -3.96635270937500 -2.59326513437501 -1.43042055937500 
 S -1.63755870937500 -3.25359213437501 -3.947655937499883E-002
