16

 C -2.14543498437500 -6.78047831250000 -2.51089240937500 
 C -1.00022198437500 -7.31495931250000 -1.81502340937500 
 C -2.53732398437500 -2.58283731250000 -2.56557840937500 
 C -1.35764598437500 -3.10006831250000 -1.88900640937500 
 N -7.142698437499728E-002 -7.75135831250000 -2.68065140937500 
 N -2.05547998437500 -6.82997931250000 -3.85372140937500 
 N -2.73062198437500 -6.62767131250000 3.695459062500195E-002
 N -0.334617984374997 -3.39548331250000 -2.70128740937500 
 N -2.42097998437500 -2.51903131250000 -3.88625940937500 
 N -3.17674998437500 -2.78750931250000 -6.336240937499804E-002
 S -0.577091984374997 -7.45458331250000 -4.25451740937500 
 S -3.49295598437500 -6.38655131250000 -1.42343640937500 
 S -1.27741598437500 -7.41200531250000 -8.020409374998039E-003
 S -0.900422984374997 -3.16019331250000 -4.25341040937500 
 S -3.92546598437500 -2.41506631250000 -1.50897940937500 
 S -1.49292498437500 -3.10481231250000 -0.140990409374998 
