16

 C -2.60976065312500 -6.48338190312500 -2.21907433750000 
 C -1.39712665312500 -6.97754390312500 -1.63951133750000 
 C -2.43475365312500 -2.87444390312500 -2.22689033750000 
 C -1.16943265312500 -3.18921990312500 -1.58523633750000 
 N -0.325793653124998 -7.03669590312500 -2.46884233750000 
 N -2.49344065312500 -6.22985490312500 -3.51999333750000 
 N -3.13300965312500 -6.63737090312500 0.283143662500000 
 N -0.170893653124998 -3.52455690312500 -2.42545933750000 
 N -2.33271065312500 -2.87194890312500 -3.55803233750000 
 N -2.92862365312500 -3.00649990312500 0.316694662500000 
 S -0.886279653124998 -6.57517490312500 -3.99882533750000 
 S -3.92434865312500 -6.25517790312500 -1.10385433750000 
 S -1.51226565312500 -7.09972790312500 0.164316662500001 
 S -0.812976653124998 -3.23151190312500 -3.97036633750000 
 S -3.83683265312500 -2.75323090312500 -1.04028933750000 
 S -1.27278565312500 -3.36462090312500 0.138611662500000 
