16

 C -2.15599224062500 -6.33273753437500 -2.29946403750000 
 C -0.937644240625003 -6.82652653437500 -1.77869103750000 
 C -2.82619924062500 -2.51871253437500 -2.49932303750000 
 C -1.58545824062500 -2.97228553437500 -1.92995003750000 
 N 5.358675937499680E-002 -6.96660153437500 -2.64217403750000 
 N -2.11711124062500 -6.06232353437500 -3.59433503750000 
 N -2.65493724062500 -6.69179353437500 0.208393962500000 
 N -0.527431240625003 -2.98032553437500 -2.80518703750000 
 N -2.75396224062500 -2.35986153437500 -3.85962803750000 
 N -3.40718924062500 -2.88381853437500 3.262962500000244E-003
 S -0.586116240625003 -6.49319853437500 -4.10441803750000 
 S -3.47280524062500 -6.18973153437500 -1.17538503750000 
 S -1.07200124062500 -7.16892653437500 -5.040803749999956E-002
 S -1.12754124062500 -2.59439553437500 -4.22913803750000 
 S -4.16973024062500 -2.35554053437500 -1.40029803750000 
 S -1.77987224062500 -3.32377653437500 -0.175531037500000 
