16

 C -2.46840697500000 -6.35200001562500 -2.45885809375000 
 C -1.25742997500000 -6.83411301562500 -1.83030009375000 
 C -2.48045197500000 -2.61277901562500 -2.17720309375000 
 C -1.27866797500000 -3.10562701562500 -1.61698409375000 
 N -0.225773974999999 -7.06884901562500 -2.66046309375000 
 N -2.34354097500000 -6.25780601562500 -3.77659809375000 
 N -3.08573997500000 -6.74148701562500 -6.050409375000010E-002
 N -0.288802974999999 -3.31485601562500 -2.48258709375000 
 N -2.47004797500000 -2.37481101562500 -3.49610309375000 
 N -2.95368197500000 -2.93355201562500 0.381502906250000 
 S -0.795489974999999 -6.66909401562500 -4.13491609375000 
 S -3.71266697500000 -5.94890301562500 -1.38738509375000 
 S -1.47867497500000 -7.13618901562500 -0.134806093750000 
 S -0.926338974999999 -2.84632301562500 -3.92799609375000 
 S -3.75212097500000 -2.26368601562500 -0.964617093750000 
 S -1.35284197500000 -3.39030201562500 8.718490624999964E-002
