16

 C -2.55174853125000 -6.13965032187500 -2.25595248125000 
 C -1.32466553125000 -6.67090732187500 -1.67448448125000 
 C -2.50045753125000 -2.54464932187500 -2.46372348125000 
 C -1.33315253125000 -2.97380432187500 -1.79262448125000 
 N -0.347532531250001 -6.89436832187500 -2.53530548125000 
 N -2.44551353125000 -5.92158532187500 -3.55964948125000 
 N -2.98483153125000 -6.39612132187500 0.317254518750000 
 N -0.303763531250000 -3.32418232187500 -2.56281548125000 
 N -2.32044453125000 -2.31948032187500 -3.77495548125000 
 N -3.05395353125000 -2.55175832187500 4.075351874999988E-002
 S -0.961433531250001 -6.47930732187500 -4.03392848125000 
 S -3.79015353125000 -5.85671732187500 -1.05229148125000 
 S -1.36226853125000 -6.84060132187500 0.120148518750000 
 S -0.817894531250000 -2.89696732187500 -4.18318148125000 
 S -3.87668653125000 -2.22055932187500 -1.41970848125000 
 S -1.41133553125000 -2.98435432187500 -8.630148125000003E-002
