16

 C -2.43267471562500 -6.55741547812500 -2.41521615937500 
 C -1.24196971562500 -7.17536747812500 -1.88169915937500 
 C -2.70389171562500 -2.81566647812500 -2.59539315937500 
 C -1.61234171562500 -3.34155547812500 -1.83556415937500 
 N -0.155571715625004 -7.31081947812500 -2.72071215937500 
 N -2.28274571562500 -6.26580147812500 -3.68987115937500 
 N -2.92542171562500 -6.96261447812500 0.144441840625002 
 N -0.543060715625004 -3.57170347812500 -2.55831815937500 
 N -2.45798671562500 -2.54663347812500 -3.89261415937500 
 N -3.43522771562500 -3.00701847812500 -8.470915937499779E-002
 S -0.780063715625004 -6.77592247812500 -4.19828515937500 
 S -3.70089071562500 -6.44923947812500 -1.22078215937500 
 S -1.49689571562500 -7.56531647812500 -0.163668159374998 
 S -0.919923715625004 -3.19442747812500 -4.13530815937500 
 S -4.08510771562500 -2.53626447812500 -1.56418215937500 
 S -1.83504071562500 -3.46880447812500 -0.126731159374998 
