16

 C -2.26786054062500 -6.64976441562500 -2.34527730937500 
 C -1.15992354062500 -7.23537041562501 -1.65659730937500 
 C -2.43745254062500 -2.52991541562500 -2.29998230937500 
 C -1.44166054062500 -3.39801641562500 -1.79797830937500 
 N -0.150396540624998 -7.42187141562500 -2.50905130937500 
 N -2.16836554062500 -6.44985041562501 -3.64186630937500 
 N -3.07045154062500 -7.15645341562500 3.014690625000593E-003
 N -0.487368540624998 -3.83020241562500 -2.62027630937500 
 N -2.29676654062500 -2.25604241562500 -3.58629730937500 
 N -2.95884154062500 -2.71715441562500 0.268027690625001 
 S -0.638615540624998 -6.94501941562500 -4.01379130937500 
 S -3.69767654062500 -6.47119641562500 -1.35177030937500 
 S -1.36319654062500 -7.33711241562500 -1.695309374999621E-003
 S -0.928848540624998 -3.06984541562500 -4.07123530937500 
 S -3.56823754062500 -2.03440341562500 -1.14592930937500 
 S -1.69897854062500 -3.74178041562500 -6.418530937499956E-002
