16

 C -2.39277632812499 -6.33742208437499 -2.47475882500000 
 C -1.26171932812499 -6.96334808437499 -1.80657082500000 
 C -2.29738032812499 -2.86138008437499 -2.34863082500000 
 C -1.04911232812499 -3.25580908437499 -1.75953982500000 
 N -0.228951328124993 -7.12268108437499 -2.61784182500000 
 N -2.25042432812499 -6.13676108437499 -3.78259182500000 
 N -3.03583932812499 -6.76911308437499 5.096717499999959E-002
 N -7.924132812499352E-002 -3.43366608437499 -2.66725382500000 
 N -2.17634832812499 -2.67941508437499 -3.65724682500000 
 N -2.73724832812499 -2.90740808437499 0.173525175000000 
 S -0.698461328124994 -6.59042908437499 -4.10669982500000 
 S -3.73404832812499 -6.09117408437499 -1.30109482500000 
 S -1.43960632812499 -7.21099108437499 -0.107453825000000 
 S -0.702874328124993 -3.20893508437499 -4.15825382500000 
 S -3.59129932812499 -2.60479308437499 -1.24559382500000 
 S -1.16030132812499 -3.59685608437499 -5.133882500000064E-002
