16

 C -2.18508787187499 -6.21453361250000 -2.21047588437500 
 C -1.10316887187499 -6.88086161250000 -1.56521788437500 
 C -2.50457687187499 -2.67462361250000 -2.61950388437500 
 C -1.26933687187499 -3.06635361250000 -1.99072688437500 
 N -6.367487187498888E-002 -7.17418461250000 -2.37018888437500 
 N -2.03038087187499 -6.10272461250000 -3.55099688437500 
 N -2.94570087187499 -6.50160661250000 0.242695115625000 
 N -0.286853871874990 -3.05914761250000 -2.87662088437500 
 N -2.44208587187499 -2.45509761250000 -3.90891088437500 
 N -2.96681787187499 -3.08025661250000 -0.159610884375000 
 S -0.475700871874990 -6.60349161250000 -3.89926688437500 
 S -3.54967087187499 -5.96311361250000 -1.21161488437500 
 S -1.36923287187499 -7.04750761250000 0.168573115625000 
 S -0.868536871874990 -2.79190161250000 -4.40030688437500 
 S -3.75563387187499 -2.44238861250000 -1.47700688437500 
 S -1.33832587187499 -3.35837861250000 -0.291320884375000 
