16

 C -2.50709776250000 -6.62858451875000 -2.28879083125000 
 C -1.28689076250000 -7.03680851875000 -1.64896183125000 
 C -2.38175476250000 -2.52728951875000 -2.53661283125000 
 C -1.25780576250000 -3.02597351875000 -1.83164983125000 
 N -0.297757762500002 -7.39800751875000 -2.42254083125000 
 N -2.35693476250000 -6.55395151875000 -3.61011383125000 
 N -3.00933076250000 -6.65186051875000 0.237858168750000 
 N -0.192268762500001 -3.06945751875000 -2.60347683125000 
 N -2.17653776250000 -2.26120651875000 -3.81460383125000 
 N -2.98308976250000 -2.69081251875000 -1.907183124999978E-002
 S -0.804530762500002 -7.14282851875000 -3.96517883125000 
 S -3.77214876250000 -6.22816151875000 -1.19008383125000 
 S -1.39474676250000 -7.28193551875000 5.445016875000031E-002
 S -0.545223762500002 -2.56862251875000 -4.15552383125000 
 S -3.74518176250000 -2.35897051875000 -1.47065583125000 
 S -1.44409476250000 -3.34728951875000 -0.116003831250000 
