16

 C -2.36468048750000 -6.26748876875000 -2.67154008125000 
 C -1.23372248750000 -6.86505576875000 -1.96341608125000 
 C -2.47461648750000 -2.82217976875000 -2.57276508125000 
 C -1.27586348750000 -3.04346376875000 -1.86567508125000 
 N -0.126131487499999 -6.92107076875000 -2.68428108125000 
 N -2.11387648750000 -5.99086176875000 -3.93105608125000 
 N -3.06248348750000 -6.39251976875000 -0.279526081249999 
 N -0.202662487499999 -3.14426676875000 -2.61151208125000 
 N -2.31963248750000 -2.78972776875000 -3.88997008125000 
 N -3.07300148750000 -2.96750276875000 -6.874408124999865E-002
 S -0.543122487499999 -6.35750876875000 -4.21295408125000 
 S -3.69665348750000 -5.84088576875000 -1.72426008125000 
 S -1.44462948750000 -6.81297576875000 -0.208012081249999 
 S -0.670214487499999 -2.87779676875000 -4.21062508125000 
 S -3.87553248750000 -2.65208176875000 -1.51324008125000 
 S -1.46933148750000 -3.22599876875000 -0.203192081249999 
