16

 C -2.49006760625000 -6.50682514687500 -2.38079420625000 
 C -1.28412560625000 -6.87867914687500 -1.75396620625000 
 C -2.50864760625000 -3.19096914687500 -2.35940320625000 
 C -1.27113960625000 -3.56969714687500 -1.75064320625000 
 N -0.236027606250004 -7.10114614687500 -2.55420320625000 
 N -2.32254460625000 -6.37561614687500 -3.68865220625000 
 N -3.07202560625000 -6.77963514687500 8.708579375000181E-002
 N -0.276642606250004 -3.56107614687500 -2.66494820625000 
 N -2.51765360625000 -2.95984814687500 -3.66745020625000 
 N -3.00449860625000 -3.31000714687500 0.181251793750002 
 S -0.702162606250004 -6.66717514687500 -4.07182520625000 
 S -3.83245560625000 -6.31785114687500 -1.30322120625000 
 S -1.38446360625000 -6.97698614687500 -4.481220624999827E-002
 S -0.917606606250004 -3.18986914687500 -4.08506420625000 
 S -3.84718760625000 -3.24134514687500 -1.26425020625000 
 S -1.40626560625000 -3.64608814687500 -8.941206249998501E-003
