16

 C -2.29166196562500 -6.46323006562500 -2.48933748750000 
 C -1.05300596562500 -6.77290406562500 -1.79380148750000 
 C -2.46904096562500 -3.29194406562500 -2.12317148750000 
 C -1.15839496562500 -3.34790506562500 -1.61689448750000 
 N -3.764496562499886E-002 -6.87891506562500 -2.61699948750000 
 N -2.22975296562500 -6.33455706562500 -3.79740048750000 
 N -2.94848696562500 -6.54918306562500 3.995151249999851E-002
 N -0.172675965624999 -3.31972906562500 -2.50260348750000 
 N -2.55655296562500 -3.38558306562500 -3.45319148750000 
 N -2.65629196562500 -3.55282406562500 0.459063512499999 
 S -0.671511965624998 -6.66417506562500 -4.18899248750000 
 S -3.66045496562500 -6.22166406562500 -1.43091048750000 
 S -1.30737296562500 -6.90145706562500 -8.763848750000136E-002
 S -0.989857965624998 -3.31859906562500 -3.97693848750000 
 S -3.67939396562500 -3.32123606562500 -0.861530487500001 
 S -1.01334796562500 -3.60215706562500 0.136059512499999 
