16

 C -2.31495400937500 -6.84756479687501 -2.61415349062500 
 C -1.07668200937500 -7.17726179687501 -1.95912549062500 
 C -2.56707600937500 -2.77654879687501 -2.53850749062500 
 C -1.35101200937500 -3.25605979687501 -1.95724549062500 
 N -8.936200937500249E-002 -7.55129179687501 -2.73472749062500 
 N -2.24698000937500 -6.97975079687501 -3.95025449062500 
 N -2.78527800937500 -6.55939879687501 -2.321249062499975E-002
 N -0.356391009375002 -3.34522079687501 -2.84578749062500 
 N -2.52515400937500 -2.50733079687501 -3.81937349062500 
 N -2.92056500937500 -2.69347879687501 -8.843490624999673E-003
 S -0.609714009375002 -7.39844979687501 -4.35769049062500 
 S -3.52227900937500 -6.19585779687501 -1.44403149062500 
 S -1.12966300937500 -6.98516379687501 -0.184289490625000 
 S -1.01822700937500 -2.91917979687501 -4.31932649062500 
 S -3.74335700937500 -2.21273979687501 -1.38936649062500 
 S -1.39480700937500 -3.37276479687501 -0.225233490625000 
