16

 C -2.35830426875000 -6.23759567187500 -2.24290827500000 
 C -1.18588426875000 -6.87364167187500 -1.69764727500000 
 C -2.50243326875000 -2.74824167187500 -2.61660327500000 
 C -1.19890826875000 -2.97120167187500 -2.00737327500000 
 N -0.138453268750003 -7.03080167187500 -2.52404627500000 
 N -2.23656126875000 -5.87204467187500 -3.51620827500000 
 N -2.92799526875000 -6.87194467187500 0.192915724999998 
 N -0.144941268750003 -3.00633067187500 -2.83298727500000 
 N -2.38068626875000 -2.57052067187500 -3.93765827500000 
 N -2.90450226875000 -3.07387767187500 -9.053027500000166E-002
 S -0.681254268750003 -6.35084367187500 -3.93235227500000 
 S -3.69228326875000 -6.13693967187500 -1.09051927500000 
 S -1.22369226875000 -7.05574767187500 2.610472499999839E-002
 S -0.746524268750003 -2.57072167187500 -4.33117627500000 
 S -3.84045526875000 -2.89206067187500 -1.49833127500000 
 S -1.27726626875000 -3.38979967187500 -0.335213275000001 
