16

 C -2.21421855000000 -6.45367590625000 -2.16937205625000 
 C -1.06477555000000 -6.98740490625000 -1.48699905625000 
 C -2.37975155000000 -2.70382090625000 -2.35295105625000 
 C -1.20150755000000 -3.18779790625000 -1.76841505625000 
 N -5.225354999999787E-002 -7.22786890625000 -2.32784805625000 
 N -2.08522655000000 -6.26091090625000 -3.47673605625000 
 N -2.98772255000000 -6.75103190625000 0.293299943750000 
 N -9.553054999999766E-002 -3.28957690625000 -2.55066705625000 
 N -2.24788055000000 -2.34627190625000 -3.63594805625000 
 N -2.94624455000000 -3.14290790625000 0.152784943750000 
 S -0.576709549999998 -6.77408590625000 -3.84046705625000 
 S -3.63870655000000 -6.31604190625000 -1.19349905625000 
 S -1.41960055000000 -7.22936090625000 0.243409943750000 
 S -0.714200549999997 -2.70828590625000 -4.02715605625000 
 S -3.77747255000000 -2.65687190625000 -1.20861205625000 
 S -1.38194555000000 -3.68224990625000 -5.246705624999981E-002
