16

 C -2.41138131875000 -6.54010125625000 -2.42739600937500 
 C -1.12402231875000 -6.84268325625000 -1.80455000937500 
 C -2.39723631875000 -3.13103125625000 -2.19667900937500 
 C -1.07587431875000 -3.32188625625000 -1.72087100937500 
 N -5.414231875000119E-002 -6.94093825625000 -2.62167900937500 
 N -2.28210931875000 -6.27762525625000 -3.71900700937500 
 N -2.93658731875000 -6.64551325625000 0.192734990625002 
 N -0.140709318750002 -3.39968325625000 -2.67432000937500 
 N -2.58573931875000 -3.06348125625000 -3.51218000937500 
 N -2.60153331875000 -3.35708925625000 0.398884990625002 
 S -0.674866318750001 -6.60886625625000 -4.14606200937500 
 S -3.71972631875000 -6.30782525625000 -1.22793600937500 
 S -1.30876831875000 -7.00487225625000 -5.607900937499810E-002
 S -1.01680231875000 -3.13904725625000 -4.06291600937500 
 S -3.58890731875000 -3.23951125625000 -0.882206009374998 
 S -0.938932318750002 -3.47627825625000 9.729899062500169E-002
