16

 C -2.23464038750000 -6.59813405312500 -2.19499372812500 
 C -0.992234387499999 -7.05690705312500 -1.63200472812500 
 C -2.47295738750000 -2.63498705312500 -2.24407272812500 
 C -1.26279738750000 -3.34894405312500 -1.72738672812500 
 N -2.773387499999558E-003 -7.21479605312500 -2.51168372812500 
 N -2.21352938750000 -6.31448705312500 -3.51185472812500 
 N -2.65381938750000 -6.95276605312500 0.338408271874998 
 N -0.335001387499999 -3.52733905312500 -2.64326372812500 
 N -2.35186738750000 -2.38594905312500 -3.52445372812500 
 N -2.96907538750000 -3.19762605312500 0.202078271874998 
 S -0.620804387499999 -6.66871305312500 -4.00110072812500 
 S -3.47548738750000 -6.41949005312500 -0.987113728125002 
 S -1.04563938750000 -7.23738005312500 7.532927187499827E-002
 S -0.822325387499999 -2.93478005312500 -4.09575772812500 
 S -3.73697338750000 -2.50119005312500 -1.12672872812500 
 S -1.35975938750000 -3.53735605312500 -1.798272812500179E-002
