16

 C -2.27490817499999 -6.43556930312501 -2.32302766250000 
 C -0.965598174999993 -6.91030630312501 -1.79758266250000 
 C -2.65088317499999 -2.60955630312501 -2.47010866250000 
 C -1.49929617499999 -3.16097230312501 -1.80462866250000 
 N -1.457517499999383E-002 -6.93039630312501 -2.71643866250000 
 N -2.29651617499999 -6.12384430312501 -3.61585966250000 
 N -2.61284717499999 -6.69884730312501 0.218054337500000 
 N -0.441693174999993 -3.49668630312501 -2.53647166250000 
 N -2.38299117499999 -2.36899830312501 -3.75713766250000 
 N -3.32296617499999 -2.98286030312501 -2.117566250000014E-002
 S -0.778930174999993 -6.40317330312501 -4.14486566250000 
 S -3.51167117499999 -6.30768230312501 -1.08447666250000 
 S -1.01450117499999 -7.19087330312501 -7.875066250000007E-002
 S -0.872703174999994 -2.88536430312501 -4.13377466250000 
 S -4.00136217499999 -2.40149630312501 -1.38662266250000 
 S -1.73533317499999 -3.34592930312501 -8.290066250000017E-002
