16

 C -2.34085906250000 -6.43568646249999 -2.47338307500000 
 C -1.06403006250000 -6.87310846249999 -1.92979207500000 
 C -2.40927306250000 -2.51200346249999 -2.45430207500000 
 C -1.30358306250000 -3.20554946249999 -1.91327207500000 
 N -0.165658062499997 -7.34456546249999 -2.82069907500000 
 N -2.32099006250000 -6.50176446249999 -3.78437207500000 
 N -2.61397106250000 -6.41303346249999 0.144926925000001 
 N -0.368783062499997 -3.51538946249999 -2.79619407500000 
 N -2.39804006250000 -2.30680146249999 -3.75470107500000 
 N -3.00171506250000 -3.04713946249999 -3.128907499999900E-002
 S -0.821042062499997 -7.05500146249999 -4.34262607500000 
 S -3.54718306250000 -6.25698546249999 -1.20092207500000 
 S -1.04014406250000 -6.89014846249999 -0.105744074999999 
 S -0.955801062499997 -3.06056946249999 -4.25026307500000 
 S -3.72194406250000 -2.31859546249999 -1.35660507500000 
 S -1.41639206250000 -3.40590046249999 -0.233422074999999 
