16

 C -2.12791960625000 -6.16201173749999 -2.56189460000000 
 C -1.06342160625000 -6.69483673749999 -1.79952060000000 
 C -2.41879960625000 -2.84853673749999 -2.48320860000000 
 C -1.12889060625000 -3.19107573749999 -1.84855460000000 
 N 2.774639374999754E-002 -6.90898973749999 -2.53301960000000 
 N -2.00019960625000 -6.10101973749999 -3.88232860000000 
 N -3.01192460625000 -6.48395073749999 -0.184060600000000 
 N -0.158249606250003 -3.41846673749999 -2.70493460000000 
 N -2.28369560625000 -2.66859573749999 -3.78801860000000 
 N -2.81085660625000 -2.87469373749999 -4.511600000000504E-003
 S -0.438923606250003 -6.60623673749999 -4.12880160000000 
 S -3.54809260625000 -5.89506173749999 -1.63985760000000 
 S -1.35886960625000 -6.76450673749999 -0.131194600000001 
 S -0.713429606250003 -3.06640973749999 -4.24944160000000 
 S -3.68984160625000 -2.79637573749999 -1.35307460000000 
 S -1.20793560625000 -3.28488073749999 -0.150475600000000 
