16

 C -2.38882412187500 -6.24723717812500 -2.19345882500000 
 C -1.20357612187500 -6.89351917812500 -1.71075482500000 
 C -2.46251812187500 -2.73914817812500 -2.61178282500000 
 C -1.16817412187500 -2.99981717812500 -1.96827882500000 
 N -0.164016121874997 -7.02052017812500 -2.49658982500000 
 N -2.21938812187500 -5.93801817812500 -3.47721482500000 
 N -2.89376812187500 -6.91186717812500 0.191625174999999 
 N -0.170638121874997 -3.00644017812500 -2.82489982500000 
 N -2.36681912187500 -2.55182817812500 -3.92085482500000 
 N -2.93603012187500 -3.09132617812500 -6.160082500000152E-002
 S -0.681387121874997 -6.35781617812500 -3.94486982500000 
 S -3.68963412187500 -6.12277917812500 -1.11118282500000 
 S -1.22769912187500 -7.05308617812500 2.452817499999860E-002
 S -0.753673121874997 -2.58893617812500 -4.27989882500000 
 S -3.81439312187500 -2.85542617812500 -1.47148082500000 
 S -1.30283012187500 -3.39465317812500 -0.344140825000002 
