16

 C -2.55584227500000 -6.69107200312500 -2.50552662812500 
 C -1.22290927500000 -7.08825400312500 -1.96108962812500 
 C -2.54163827500000 -2.67056800312500 -2.24427562812500 
 C -1.35142527500000 -3.14428800312500 -1.60859662812500 
 N -0.242778275000001 -7.15666400312500 -2.84926262812500 
 N -2.53256327500000 -6.52447500312500 -3.81095362812500 
 N -2.90346727500000 -6.78277300312500 -1.531628124998408E-003
 N -0.356748275000001 -3.39833600312500 -2.43760362812500 
 N -2.59343227500000 -2.64865500312500 -3.56042762812500 
 N -3.09534127500000 -2.98789300312500 0.266935371875001 
 S -1.02449027500000 -6.84168400312500 -4.30672662812500 
 S -3.78477727500000 -6.40063700312500 -1.33489762812500 
 S -1.20045227500000 -7.06147200312500 -0.141043628124998 
 S -1.01507027500000 -3.04293600312500 -3.95108562812500 
 S -3.83352727500000 -2.53602300312500 -1.11142362812500 
 S -1.56900627500000 -3.62440700312500 4.729037187500151E-002
