16

 C -2.45011769062500 -6.44508824687499 -2.34995367812500 
 C -1.19719069062500 -6.83504824687499 -1.74193667812500 
 C -2.51401669062500 -2.91680124687499 -2.54534267812500 
 C -1.24506969062500 -3.30366924687499 -1.99108167812500 
 N -0.180142690625003 -6.74987724687499 -2.56674467812500 
 N -2.35988669062500 -6.13555324687499 -3.64853367812500 
 N -2.91224669062500 -6.85811124687499 0.198147321874999 
 N -0.224802690625004 -3.32751524687499 -2.83825167812500 
 N -2.46435169062500 -2.55804824687499 -3.86219067812500 
 N -2.93148769062500 -3.21547524687499 -6.879267812500123E-002
 S -0.753476690625003 -6.48054924687499 -4.08496867812500 
 S -3.78221669062500 -6.50525424687499 -1.18084867812500 
 S -1.26955669062500 -7.10011024687499 -2.254667812500122E-002
 S -0.871262690625004 -2.75398924687499 -4.31198367812500 
 S -3.81574069062500 -2.93269424687499 -1.42319667812500 
 S -1.29861169062500 -3.50614024687499 -0.285728678125001 
