16

 C -2.29528882812500 -6.37559771250000 -2.41790960312500 
 C -1.10936382812500 -6.83320371250000 -1.74811160312500 
 C -2.54803782812500 -2.58772271250000 -2.23024260312500 
 C -1.33473082812500 -3.09057771250000 -1.70916660312500 
 N -0.125975828124996 -7.03188171250000 -2.61107260312500 
 N -2.16369982812500 -6.10276171250000 -3.72639260312500 
 N -2.83553482812500 -6.53095671250000 9.720939687500030E-002
 N -0.280905828124995 -3.22315371250000 -2.54226060312500 
 N -2.51327482812500 -2.37126071250000 -3.55822960312500 
 N -2.94102282812500 -2.90067271250000 0.298958396875000 
 S -0.643432828124995 -6.57152971250000 -4.09304760312500 
 S -3.62833582812500 -6.29453171250000 -1.34271860312500 
 S -1.23779582812500 -7.01019771250000 -6.840660312499969E-002
 S -0.958530828124996 -2.70780771250000 -3.95701360312500 
 S -3.82955982812500 -2.52959971250000 -1.03207260312500 
 S -1.35178382812500 -3.28036371250000 8.674539687500027E-002
