16

 C -2.19610825625000 -6.26707798750000 -2.42393960000000 
 C -1.03230425625000 -6.82232798750000 -1.78961460000000 
 C -2.55128025625000 -3.05258498750000 -2.45041060000000 
 C -1.29107625625000 -3.16218998750000 -1.70426360000000 
 N -4.303025625000423E-002 -6.99433598750000 -2.63733160000000 
 N -2.18125825625000 -6.18762398750000 -3.73677660000000 
 N -2.85484625625000 -6.86345298750000 8.314939999999993E-002
 N -0.197470256250004 -3.23326898750000 -2.48293260000000 
 N -2.40852225625000 -3.02686498750000 -3.79055860000000 
 N -3.10652325625000 -2.70992898750000 7.857740000000013E-002
 S -0.656965256250004 -6.64543498750000 -4.21342860000000 
 S -3.59412025625000 -6.12640298750000 -1.29093460000000 
 S -1.31479225625000 -7.25071198750000 -9.828360000000003E-002
 S -0.766207256250004 -3.10366298750000 -4.08046860000000 
 S -3.84950525625000 -2.69174498750000 -1.43343660000000 
 S -1.47327725625000 -3.03163198750000 3.078340000000002E-002
