16

 C -2.46273614687500 -6.79905784687501 -2.20972612812500 
 C -1.18486414687500 -7.13284884687501 -1.65731312812500 
 C -2.59460014687500 -2.76064984687501 -2.38713212812500 
 C -1.37205114687500 -3.31335284687501 -1.83428212812500 
 N -0.216011146874997 -7.30717584687501 -2.54879812812500 
 N -2.49892414687500 -6.72461684687501 -3.52243212812500 
 N -2.80945414687500 -7.12737984687501 0.272751871875000 
 N -0.399225146874997 -3.39965884687501 -2.72765512812500 
 N -2.58746914687500 -2.54856984687501 -3.68104212812500 
 N -3.01479014687500 -3.03374084687501 6.129287187499965E-002
 S -0.926366146874997 -7.06912084687501 -4.04848812812500 
 S -3.77015314687500 -6.66271984687501 -0.992737128125000 
 S -1.13185414687500 -7.33011184687501 3.988287187499973E-002
 S -0.983427146874997 -2.92731384687501 -4.13940012812500 
 S -3.87052614687500 -2.53974084687501 -1.24525512812500 
 S -1.37920314687500 -3.44879284687501 -7.844912812500038E-002
