16

 C -2.57229980625000 -6.59315828437500 -2.45515452187500 
 C -1.32096480625000 -6.93492328437500 -1.85630352187500 
 C -2.26006680625000 -3.20406528437500 -2.22038852187500 
 C -1.08582980625000 -3.65370628437500 -1.56004252187500 
 N -0.293424806249998 -7.12269428437500 -2.71952152187500 
 N -2.55676780625000 -6.64106528437500 -3.79793352187500 
 N -3.06099580625000 -6.67155228437500 2.448747812500129E-002
 N 5.835193750002077E-003 -3.73453828437500 -2.34098952187500 
 N -2.10198580625000 -2.88075728437500 -3.49703752187500 
 N -2.90917780625000 -3.40668428437500 0.284922478125001 
 S -0.972288806249998 -6.89444628437500 -4.21485252187500 
 S -3.84857380625000 -6.47262328437500 -1.38222852187500 
 S -1.43649480625000 -6.91055228437500 -5.128852187499877E-002
 S -0.523525806249998 -3.29669028437500 -3.86354752187500 
 S -3.66960980625000 -3.00992828437500 -1.17728252187500 
 S -1.33244580625000 -3.83704828437500 0.143315478125001 
