16

 C -2.58272355000000 -6.60580236875001 -2.29768458125000 
 C -1.38608355000000 -7.04673236875001 -1.63744758125000 
 C -2.75344755000000 -2.49489436875001 -2.40041658125000 
 C -1.61925455000000 -3.05759436875000 -1.66114458125000 
 N -0.346253549999999 -7.15866136875001 -2.45990358125000 
 N -2.54245655000000 -6.46531136875000 -3.62185858125000 
 N -3.12834755000000 -6.84470236875000 0.239872418750001 
 N -0.512990550000000 -3.32583736875000 -2.38226958125000 
 N -2.51526655000000 -2.27956236875001 -3.70498658125000 
 N -3.44087355000000 -2.64893236875001 6.430841875000115E-002
 S -0.901950550000000 -6.78410436875000 -3.97063158125000 
 S -3.90492255000000 -6.48162336875000 -1.19182358125000 
 S -1.51343555000000 -7.36998036875000 5.298341875000134E-002
 S -1.00599755000000 -2.80846536875000 -3.91875458125000 
 S -3.99172155000000 -2.03099736875000 -1.33390758125000 
 S -1.96297355000000 -3.40429836875000 6.569418750001166E-003
