16

 C -2.39670198125000 -6.58381301562500 -2.30910931250000 
 C -1.23869898125000 -7.18088501562500 -1.76868531250000 
 C -2.68663498125000 -2.48494101562500 -2.35299431250000 
 C -1.65871498125000 -3.24159701562500 -1.64221531250000 
 N -0.336318981249996 -7.36730601562500 -2.71212031250000 
 N -2.35147898125000 -6.23102601562500 -3.58701831250000 
 N -2.92542398125000 -7.03282001562500 0.164619687499998 
 N -0.712765981249996 -3.69955401562500 -2.42794331250000 
 N -2.39460098125000 -2.33541301562500 -3.61726931250000 
 N -3.40359698125000 -2.54818301562500 7.825168749999811E-002
 S -0.916813981249996 -6.71565301562500 -4.14116731250000 
 S -3.70972198125000 -6.46828501562500 -1.19535431250000 
 S -1.35766498125000 -7.48223301562500 -5.015131250000193E-002
 S -0.930701981249997 -3.14468101562500 -3.92764031250000 
 S -3.97054598125000 -2.04465001562500 -1.40427631250000 
 S -1.97315198125000 -3.30509201562500 5.264168749999820E-002
