16

 C -2.32054152500000 -6.28868028437500 -2.31885662187500 
 C -1.10201752500000 -6.70978028437500 -1.76257262187500 
 C -2.61567752500000 -2.56126828437500 -2.56031062187500 
 C -1.50917552500000 -3.17345828437500 -1.85656862187500 
 N -0.134777524999999 -6.98063328437500 -2.66449562187500 
 N -2.27906752500000 -6.14374628437500 -3.64428862187500 
 N -2.88236152500000 -6.70974628437500 3.208437812500020E-002
 N -0.504498524999999 -3.48938828437500 -2.61815062187500 
 N -2.39379252500000 -2.40194328437500 -3.85959762187500 
 N -3.20606452500000 -2.65954628437500 -3.902962187499970E-002
 S -0.778193524999999 -6.51103528437500 -4.13576962187500 
 S -3.54231752500000 -5.93631928437500 -1.24666262187500 
 S -1.19774652500000 -7.09968128437500 -1.459862187499961E-002
 S -0.929778524999999 -3.12450828437500 -4.20386162187500 
 S -3.87904552500000 -2.14123328437500 -1.51899162187500 
 S -1.62328752500000 -3.12193928437500 -0.118915621875000 
