16

 C -2.60890507812501 -6.37135750937500 -2.60514784062500 
 C -1.32107907812501 -6.82787850937500 -2.08529884062500 
 C -2.65894007812501 -2.90237450937500 -2.29378184062500 
 C -1.48166807812501 -3.43053750937500 -1.60726884062500 
 N -0.404689078125008 -7.01853250937500 -3.00326584062500 
 N -2.67978007812501 -6.25805350937500 -3.93588584062500 
 N -2.83204207812501 -6.54474450937500 4.201915937500211E-002
 N -0.380430078125008 -3.57916450937500 -2.37861084062500 
 N -2.49198607812501 -2.64629550937500 -3.58434584062500 
 N -3.34261907812501 -3.16379450937500 0.184959159375002 
 S -1.13635107812501 -6.67291850937500 -4.45583884062500 
 S -3.83157107812501 -6.34809750937500 -1.20492484062500 
 S -1.26619707812501 -7.13549750937500 -0.333958840624998 
 S -0.940486078125009 -3.15847950937500 -3.91230384062500 
 S -3.98907407812501 -2.65655850937500 -1.21520484062500 
 S -1.70488707812501 -3.44737050937500 9.683415937500195E-002
