16

 C -2.35814967187500 -7.00464136250000 -2.41359365625000 
 C -1.20861967187500 -7.43052136250000 -1.69910465625000 
 C -2.76228767187500 -2.87832536250000 -2.37464565625000 
 C -1.66889867187500 -3.60538736250000 -1.77352065625000 
 N -0.117768671875004 -7.49170836250000 -2.42778465625000 
 N -2.14650667187500 -6.82409736250000 -3.70924165625000 
 N -2.99355867187500 -6.75777536250000 2.398534374999994E-002
 N -0.723350671875004 -3.92157736250000 -2.65267365625000 
 N -2.63659167187500 -2.55715336250000 -3.66758365625000 
 N -3.27042967187500 -3.06219036250000 0.163658343750000 
 S -0.528991671875004 -7.07534336250000 -3.97396465625000 
 S -3.63740267187500 -6.49516236250000 -1.44079065625000 
 S -1.40365267187500 -7.46032936250000 6.913234374999999E-002
 S -1.27303367187500 -3.41344136250000 -4.19029665625000 
 S -4.03781167187500 -2.38565636250000 -1.19584965625000 
 S -1.78491967187500 -3.81357036250000 7.151343749999928E-003
