16

 C -2.42080678750000 -6.51679906250000 -2.32603477187500 
 C -1.22933578750000 -7.00574006250000 -1.62243477187500 
 C -2.54005278750000 -2.71510706250000 -2.52463177187500 
 C -1.28246878750000 -3.13659906250000 -1.81833577187500 
 N -0.216335787500001 -7.18275006250000 -2.45326877187500 
 N -2.33041678750000 -6.28546406250000 -3.62063077187500 
 N -3.15655878750000 -6.62039306250000 0.144889228125000 
 N -0.182443787500001 -3.26603806250000 -2.58301977187500 
 N -2.32332678750000 -2.47428906250000 -3.83064977187500 
 N -3.15078978750000 -3.17666006250000 -3.262777187499966E-002
 S -0.753922787500001 -6.75843106250000 -4.00676977187500 
 S -3.87288878750000 -6.36781406250000 -1.34650777187500 
 S -1.58684278750000 -7.23231406250000 0.118204228125000 
 S -0.720433787500001 -2.76837406250000 -4.10298577187500 
 S -3.87457078750000 -2.73902506250000 -1.45330077187500 
 S -1.51663578750000 -3.39958406250000 -9.079977187499955E-002
