16

 C -2.59579260625000 -6.67063088750000 -2.46426422187500 
 C -1.33562160624999 -6.96258088750000 -1.80019722187500 
 C -2.27552360624999 -3.14598688750000 -2.25624822187500 
 C -1.01295360625000 -3.59672088750000 -1.55584922187500 
 N -0.361440606249995 -7.18019388750000 -2.64323422187500 
 N -2.60676660625000 -6.60589488750000 -3.77675222187500 
 N -3.03418660625000 -6.72611988750000 5.744477812500159E-002
 N 6.053639375000408E-002 -3.67444988750000 -2.34372422187500 
 N -2.11020060624999 -2.90067388750000 -3.56823922187500 
 N -2.90721660625000 -3.36086788750000 0.243746778125002 
 S -1.02427660625000 -6.93822888750000 -4.14853522187500 
 S -3.89747060625000 -6.47388488750000 -1.35182322187500 
 S -1.44859560625000 -6.99835588750000 -0.100735221874998 
 S -0.528434606249995 -3.29202388750000 -3.85966322187500 
 S -3.65320560624999 -2.91595988750000 -1.19270922187500 
 S -1.31462660624999 -3.86763588750000 0.152314778125002 
