16

 C -2.56141909687500 -6.14803159375000 -2.25582253750000 
 C -1.35008409687500 -6.68300959375000 -1.65795153750000 
 C -2.49241009687500 -2.53648559375000 -2.46405453750000 
 C -1.31511909687500 -2.98894259375000 -1.79298353750000 
 N -0.387675096874998 -6.88350159375000 -2.53812153750000 
 N -2.45832909687500 -5.95028459375000 -3.56717353750000 
 N -2.97889109687500 -6.42537259375000 0.314730462499999 
 N -0.309260096874999 -3.32034859375000 -2.58109353750000 
 N -2.29396509687500 -2.33871159375000 -3.75164653750000 
 N -3.04335909687500 -2.58829059375000 5.246546249999895E-002
 S -0.958324096874999 -6.48861659375000 -4.04391453750000 
 S -3.80515909687500 -5.85009759375000 -1.04976453750000 
 S -1.39257709687500 -6.83390659375000 0.102263462499999 
 S -0.787363096874999 -2.91474259375000 -4.18700053750000 
 S -3.87443809687500 -2.22853159375000 -1.40892253750000 
 S -1.41750709687500 -2.98427659375000 -6.901553750000122E-002
