16

 C -2.34169960625000 -6.65843491250001 -2.30603449375000 
 C -1.15665360625000 -7.22444391250001 -1.71672949375000 
 C -2.36935460625000 -2.53775691250001 -2.27951749375000 
 C -1.33764160625000 -3.37649291250001 -1.71399449375000 
 N -0.153157606249997 -7.41556391250001 -2.52780449375000 
 N -2.14773060625000 -6.44706391250000 -3.60300049375000 
 N -3.01846560625000 -7.14759091250000 6.096850625000072E-002
 N -0.490451606249997 -3.80163191250000 -2.67408649375000 
 N -2.27003060625000 -2.28220791250000 -3.59463949375000 
 N -2.96420960625000 -2.72805991250000 0.215481506250001 
 S -0.641349606249998 -6.86560091250001 -4.05646149375000 
 S -3.70848660625000 -6.45002091250000 -1.33598849375000 
 S -1.37942360625000 -7.30451891250000 2.072250625000072E-002
 S -0.891683606249997 -3.01718991250000 -4.04360449375000 
 S -3.57874560625000 -2.05484691250000 -1.13977749375000 
 S -1.68291560625000 -3.69916491250001 -8.542649374999911E-002
