16

 C -2.33663765312501 -6.32583853125000 -2.36645822187500 
 C -1.12117365312501 -6.81734953125000 -1.77611022187500 
 C -2.57051365312500 -2.74977453125001 -2.47097122187500 
 C -1.46727265312501 -3.39681853125001 -1.72512822187500 
 N -0.134437653125005 -6.93637853125001 -2.66295322187500 
 N -2.29846465312500 -6.17094853125000 -3.68586722187500 
 N -2.94229065312501 -6.63847953125001 0.158853778125001 
 N -0.380108653125006 -3.62418853125001 -2.47640822187500 
 N -2.25215265312501 -2.39065653125001 -3.70400622187500 
 N -3.31908765312501 -2.93214153125001 3.647677812500105E-002
 S -0.745829653125005 -6.46585153125000 -4.18527622187500 
 S -3.70607865312501 -6.48125353125001 -1.31320622187500 
 S -1.32522765312501 -7.07466753125001 2.325778125001232E-003
 S -0.782929653125005 -3.06830153125001 -4.02339122187500 
 S -4.00610065312500 -2.62652253125001 -1.45539922187500 
 S -1.79765765312500 -3.54663553125001 8.145778125001168E-003
