16

 C -2.18909614999999 -6.35972338437501 -2.36626876562500 
 C -0.968472149999994 -6.80203538437501 -1.76300676562500 
 C -2.60332914999999 -2.69519838437501 -2.31491376562500 
 C -1.30978114999999 -3.17858938437501 -1.70836376562500 
 N 2.640385000000567E-002 -6.93428038437501 -2.64472176562500 
 N -2.12394114999999 -6.19996238437501 -3.67793476562500 
 N -2.77192714999999 -6.79526038437501 0.114673234375002 
 N -0.284706149999995 -3.24406038437501 -2.55911876562500 
 N -2.45896014999999 -2.39066138437501 -3.60515776562500 
 N -3.04727114999999 -3.02520838437501 0.187530234375002 
 S -0.592415149999995 -6.51894738437501 -4.14820776562500 
 S -3.58614314999999 -6.29446038437501 -1.25479176562500 
 S -1.11731714999999 -6.97256838437501 -5.052676562499814E-002
 S -0.927678149999994 -2.76448638437501 -4.00626276562500 
 S -3.90214414999999 -2.54418538437501 -1.13522676562500 
 S -1.42509514999999 -3.22456838437501 2.921023437500181E-002
