16

 C -2.48396362812500 -6.47877115625000 -2.32348799687500 
 C -1.30201962812500 -6.99938415625000 -1.70970299687500 
 C -2.47558262812500 -2.77655915625000 -2.50287099687500 
 C -1.33187762812500 -3.11389115625000 -1.81148499687500 
 N -0.229172628125004 -7.19935015625000 -2.50896999687500 
 N -2.34451462812500 -6.27574615625000 -3.62834899687500 
 N -3.15949162812500 -6.70924515625000 0.121693003125001 
 N -0.297251628125004 -3.25700115625000 -2.60058699687500 
 N -2.35371762812500 -2.45863715625000 -3.76984399687500 
 N -3.17970962812500 -3.06880315625000 -4.733599687499912E-002
 S -0.830173628125004 -6.73622115625000 -4.03565699687500 
 S -3.84185462812500 -6.42356215625000 -1.33591599687500 
 S -1.57606962812500 -7.19021215625000 -4.148996874999256E-003
 S -0.709151628125004 -2.85789515625000 -4.11473299687500 
 S -3.90173662812500 -2.70506615625000 -1.48689899687500 
 S -1.54826062812500 -3.34696115625000 -0.151559996874999 
