16

 C -2.43252733750000 -6.53510551250000 -2.28976222500000 
 C -1.11569333750000 -6.86152251250000 -1.71350422500000 
 C -2.50741033750000 -3.16234051250000 -2.06233222500000 
 C -1.28080533750000 -3.43077151250000 -1.33648422500000 
 N -0.112052337500000 -7.01427351250000 -2.59945822500000 
 N -2.38971933750000 -6.35077751250000 -3.63063122500000 
 N -2.89966133750000 -6.92628551250000 0.184712775000000 
 N -0.242817337499999 -3.60363451250000 -2.16476622500000 
 N -2.44166433750000 -3.06103751250000 -3.39233922500000 
 N -3.11891633750000 -3.36241551250000 0.400408775000000 
 S -0.802135337499999 -6.65235951250000 -4.08959322500000 
 S -3.77860533750000 -6.49205051250000 -1.19016322500000 
 S -1.29288933750000 -7.16329651250000 3.812577499999992E-002
 S -0.815698337500000 -3.22047351250000 -3.71783022500000 
 S -3.91653933750000 -3.11235551250000 -1.03242822500000 
 S -1.42887833750000 -3.57006451250000 0.426184775000000 
