16

 C -2.37433877500000 -6.38715161562500 -2.63476469687500 
 C -1.20639277500000 -6.78071561562500 -1.84049069687500 
 C -2.37650777500000 -2.56821361562500 -2.56879069687500 
 C -1.14302477500000 -3.00579961562500 -2.01525869687500 
 N -0.162133774999999 -6.92097361562500 -2.62004669687500 
 N -2.19969877500000 -6.27449061562500 -3.94423969687500 
 N -3.03712777500000 -6.34907961562500 -0.113598696874999 
 N -0.146371775000000 -3.17052761562500 -2.85119469687500 
 N -2.30328977500000 -2.42105161562500 -3.86995469687500 
 N -2.85447977500000 -3.11524261562500 -4.500269687499903E-002
 S -0.641038774999999 -6.71050861562500 -4.16285069687500 
 S -3.72519877500000 -6.18779861562500 -1.60557769687500 
 S -1.42336977500000 -6.87169661562500 -0.182487696874999 
 S -0.679623775000000 -2.74279761562500 -4.33893669687500 
 S -3.63458377500000 -2.63275261562500 -1.39740969687500 
 S -1.23975177500000 -3.34372761562500 -0.317515696874999 
