16

 C -2.61831157187500 -6.38613437499999 -2.59472896562500 
 C -1.32804757187500 -6.81847837499999 -2.08727596562500 
 C -2.65598457187500 -2.88269837500000 -2.28348496562500 
 C -1.46950257187500 -3.42308437499999 -1.59562096562500 
 N -0.402176571874998 -7.03802237499999 -2.99810796562500 
 N -2.66854857187500 -6.27498537499999 -3.92726196562500 
 N -2.83807257187500 -6.54367337499999 5.068403437500191E-002
 N -0.363800571874998 -3.55684237500000 -2.38316296562500 
 N -2.49367157187500 -2.62824137499999 -3.58474296562500 
 N -3.33702957187500 -3.15541137499999 0.192344034375002 
 S -1.12916757187500 -6.67765437499999 -4.45188196562500 
 S -3.82094857187500 -6.35925937500000 -1.20890496562500 
 S -1.26890757187500 -7.12985937500000 -0.337974965624998 
 S -0.944047571874998 -3.15770037499999 -3.92137396562500 
 S -3.99443157187500 -2.64785737499999 -1.20851896562500 
 S -1.69765557187500 -3.46422537499999 9.472603437500204E-002
