16

 C -2.21719873125000 -6.38175712187500 -2.40484459687500 
 C -0.998655731250002 -6.83626512187500 -1.82337659687500 
 C -2.56479073125000 -2.89364512187500 -2.57068659687500 
 C -1.37877473125000 -3.36799912187500 -1.79461259687500 
 N 3.459026874999793E-002 -6.95775412187500 -2.67963759687500 
 N -2.12365073125000 -6.24102212187500 -3.71451359687500 
 N -2.76014873125000 -6.78540712187500 9.534240312500142E-002
 N -0.281463731250001 -3.59294012187500 -2.55554959687500 
 N -2.32634373125000 -2.65571812187500 -3.86783659687500 
 N -3.31181373125000 -2.90182712187500 -9.068659687499858E-002
 S -0.556198731250002 -6.54562212187500 -4.16893559687500 
 S -3.57705773125000 -6.34833212187500 -1.27687059687500 
 S -1.14201173125000 -6.89970412187500 -8.624459687499852E-002
 S -0.794658731250002 -3.19214212187500 -4.09530459687500 
 S -3.95653473125000 -2.42528412187500 -1.56237359687500 
 S -1.70513973125000 -3.31288312187500 -0.129037596874999 
