16

 C -2.51905451875000 -6.64789717812500 -2.26702185937500 
 C -1.33051151875000 -7.06553117812500 -1.66813885937500 
 C -2.35296951875000 -2.49644817812500 -2.54418485937500 
 C -1.23668251875000 -3.00727017812500 -1.83597585937500 
 N -0.294765518749999 -7.37133317812500 -2.42734685937500 
 N -2.34334451875000 -6.54219317812500 -3.58528885937500 
 N -3.02258051875000 -6.68020517812500 0.244997140625000 
 N -0.177028518749999 -3.09484917812500 -2.60726685937500 
 N -2.16617051875000 -2.25807717812500 -3.81970685937500 
 N -2.96319151875000 -2.68458017812500 -2.863285937500004E-002
 S -0.799002518749999 -7.11848117812500 -3.97655285937500 
 S -3.74427351875000 -6.23051017812500 -1.16912685937500 
 S -1.38762351875000 -7.26764617812500 5.022714062499989E-002
 S -0.531524518749999 -2.56656217812500 -4.14952285937500 
 S -3.74733951875000 -2.37594417812500 -1.48595185937500 
 S -1.43849251875000 -3.33300817812500 -0.112672859375000 
