16

 C -2.27355123750000 -6.22529965625000 -2.15318200312500 
 C -1.09331523750000 -6.79432265625000 -1.55927500312500 
 C -2.39227523750000 -2.65652765625000 -2.71752100312500 
 C -1.18423123750000 -3.14325365625000 -2.03798200312500 
 N -2.661237499996361E-003 -6.98365665625000 -2.32821900312500 
 N -2.09860723750000 -5.92615865625000 -3.43863700312500 
 N -2.88635423750000 -6.71614465625000 0.328940996875000 
 N -0.176618237499997 -3.40882465625000 -2.82865600312500 
 N -2.26878223750000 -2.54529765625000 -4.05447700312500 
 N -2.94574223750000 -2.92022965625000 -0.157023003125000 
 S -0.499329237499997 -6.43279865625000 -3.79511600312500 
 S -3.63880723750000 -6.27472465625000 -1.07257500312500 
 S -1.27116423750000 -7.35411065625000 0.106064996875000 
 S -0.715389237499997 -3.05948265625000 -4.36478800312500 
 S -3.71390723750000 -2.48026065625000 -1.57989100312500 
 S -1.30490923750000 -3.21826165625000 -0.247552003125000 
