16

 C -2.40040106250001 -6.30825725625000 -2.53364182500000 
 C -1.25822106250001 -6.89599525625000 -1.91391982500000 
 C -2.20186806250001 -2.83580725625000 -2.32592982500000 
 C -0.954485062500005 -3.44476425625000 -1.82803282500000 
 N -0.162982062500006 -7.04291025625000 -2.66800682500000 
 N -2.20678106250001 -6.08947525625000 -3.82398682500000 
 N -3.05743906250001 -6.53055825625000 -8.635082500000157E-002
 N 2.802393749999421E-002 -3.54778825625000 -2.71720182500000 
 N -2.20115506250001 -2.49484425625000 -3.61315982500000 
 N -2.57637006250001 -3.36917625625000 0.204605174999999 
 S -0.619199062500005 -6.53165725625000 -4.20565682500000 
 S -3.70014606250001 -5.94266125625000 -1.48694982500000 
 S -1.52113606250001 -7.04033725625000 -0.218096825000001 
 S -0.644110062500006 -2.86548225625000 -4.13453882500000 
 S -3.52838606250001 -2.93589825625000 -1.09087582500000 
 S -1.03716006250001 -3.91849325625000 -0.181516825000001 
