16

 C -2.34538603437500 -6.31650395625000 -2.40352987500000 
 C -1.10805303437500 -6.77907495625000 -1.77338487500000 
 C -2.60614003437500 -2.62715295625000 -2.55694587500000 
 C -1.41161903437500 -3.00845495625000 -1.90659887500000 
 N -0.115698034374998 -6.99618695625000 -2.58425487500000 
 N -2.17036403437500 -6.18070395625000 -3.70591487500000 
 N -2.77674603437500 -6.35344595625000 0.214279125000000 
 N -0.390247034374998 -3.31132995625000 -2.71736487500000 
 N -2.49053003437500 -2.70755495625000 -3.86729187500000 
 N -3.18723603437500 -2.76532595625000 -9.241687500000029E-002
 S -0.648997034374998 -6.73217695625000 -4.13101487500000 
 S -3.59858403437500 -6.00256295625000 -1.13687187500000 
 S -1.26654303437500 -7.04874395625000 -8.597787500000043E-002
 S -0.912706034374998 -3.06717695625000 -4.30546587500000 
 S -3.92925103437500 -2.22766795625000 -1.50134587500000 
 S -1.62275103437500 -3.18612495625000 -0.218334875000000 
