16

 C -2.55824182500000 -6.52485210312500 -2.33025262812500 
 C -1.33168782500000 -6.86171810312500 -1.68956762812500 
 C -2.19169982500000 -3.03020810312500 -2.32061862812500 
 C -1.03238482499999 -3.54062810312500 -1.70343062812500 
 N -0.376009824999995 -7.12194210312500 -2.56685762812500 
 N -2.50906082500000 -6.43394110312500 -3.66197862812500 
 N -2.99811082500000 -6.52016210312500 0.190579371875001 
 N 5.581717500000494E-002 -3.55821510312500 -2.43650562812500 
 N -1.93139382500000 -2.65448810312500 -3.55069862812500 
 N -2.83060482499999 -3.34142610312500 6.716837187500135E-002
 S -0.953313824999995 -6.79634310312500 -4.06714662812500 
 S -3.85484482500000 -6.26231210312500 -1.24737662812500 
 S -1.38815682499999 -7.04703710312500 2.263371875001363E-003
 S -0.372386824999995 -3.02549910312500 -3.98024262812500 
 S -3.55533382499999 -2.80051610312500 -1.32931462812500 
 S -1.34874982500000 -3.95901410312500 -4.981262812499865E-002
