16

 C -2.44013327500000 -6.61067458125000 -2.41699712812500 
 C -1.17842227500000 -6.91191658124999 -1.80285112812500 
 C -2.08107527500000 -2.72787458124999 -2.29117712812500 
 C -0.971941274999999 -3.29668458124999 -1.59697212812500 
 N -0.103827274999999 -6.89032258125000 -2.63952312812500 
 N -2.30722827500000 -6.39474758124999 -3.72832212812500 
 N -2.94936927500000 -6.90042858124999 0.180220871875001 
 N 0.108568725000001 -3.42798958124999 -2.36061512812500 
 N -1.92491227500000 -2.48570958124999 -3.58919712812500 
 N -2.90761027500000 -3.17169958125000 8.121487187500076E-002
 S -0.728482274999999 -6.69065558125000 -4.18068112812500 
 S -3.77842027500000 -6.65608258125000 -1.24614912812500 
 S -1.36581027500000 -7.25125758124999 -7.123412812499907E-002
 S -0.307114274999999 -2.87076358124999 -3.87112212812500 
 S -3.48825427500000 -2.49543458125000 -1.28593412812500 
 S -1.35050327500000 -3.70327158124999 3.208687187500092E-002
