16

 C -2.65499229687500 -6.62813618437499 -2.34821531250000 
 C -1.34231429687500 -6.83912318437500 -1.72922931250000 
 C -2.22589129687500 -2.97365018437500 -2.47647331250000 
 C -1.02304329687500 -3.45618818437500 -1.79397431250000 
 N -0.280809296875003 -6.90422818437500 -2.49721531250000 
 N -2.54070029687500 -6.45738018437500 -3.66249731250000 
 N -3.10292229687500 -7.13779718437500 0.119168687499997 
 N -5.431829687500311E-002 -3.60222918437500 -2.67584631250000 
 N -2.15279129687500 -2.81660618437500 -3.80362631250000 
 N -2.79410429687500 -2.98508618437500 3.462868749999726E-002
 S -0.878842296875003 -6.56555218437500 -3.99993731250000 
 S -3.91440929687500 -6.92164618437500 -1.28053331250000 
 S -1.37535829687500 -7.13716918437500 -2.178731250000276E-002
 S -0.602958296875003 -3.24632718437500 -4.20503831250000 
 S -3.60018729687500 -2.82489618437500 -1.40220431250000 
 S -1.16670229687500 -3.37740818437500 -2.992931250000286E-002
