16

 C -2.34062368125000 -6.56696721250000 -2.48617763125000 
 C -1.15019568125000 -6.86043321250000 -1.76755763125000 
 C -2.35433368125000 -3.40920421250000 -2.20899163125000 
 C -1.08596768125000 -3.54894021250000 -1.56310163125000 
 N -0.113286681250004 -7.05279721250000 -2.52595563125000 
 N -2.22424568125000 -6.64248821250000 -3.80923163125000 
 N -2.92262068125000 -6.60328421250000 4.316936874999988E-002
 N -5.278868125000358E-002 -3.60173721250000 -2.40122263125000 
 N -2.27600868125000 -3.48847421250000 -3.55407163125000 
 N -2.92889568125000 -3.40420521250000 0.267612368750000 
 S -0.592645681250004 -6.87368321250000 -4.10104263125000 
 S -3.67680068125000 -6.29430421250000 -1.37077463125000 
 S -1.28165968125000 -6.91453421250000 -5.601163125000008E-002
 S -0.656729681250003 -3.57761721250000 -3.92614863125000 
 S -3.70467368125000 -3.24153221250000 -1.22524963125000 
 S -1.25583768125000 -3.52468021250000 0.202295368750000 
