16

 C -2.48790812500000 -6.12421263750000 -2.40485344687500 
 C -1.27511112500000 -6.77410863750000 -1.84485644687500 
 C -2.55313212500000 -2.51588063750000 -2.44066744687500 
 C -1.40018612500000 -3.09561563750000 -1.74369344687500 
 N -0.247312125000002 -7.00350963750000 -2.67259544687500 
 N -2.34756912500000 -5.95102563750000 -3.72979344687500 
 N -2.85021612500000 -6.39164363750000 0.123828553125000 
 N -0.357332125000002 -3.32821063750000 -2.52961644687500 
 N -2.40033812500000 -2.30960563750000 -3.77731244687500 
 N -3.03935712500000 -2.43746463750000 9.429755312499943E-002
 S -0.763108125000002 -6.41949063750000 -4.11744544687500 
 S -3.77719612500000 -6.10585963750000 -1.28924844687500 
 S -1.32469912500000 -7.09395763750000 -0.114226446875000 
 S -0.895267125000002 -2.95963363750000 -4.03933344687500 
 S -3.78839812500000 -1.99525763750000 -1.32058144687500 
 S -1.58917812500000 -3.28564063750000 1.778655312499944E-002
