16

 C -2.49540914687500 -6.81340285312501 -2.36472889375000 
 C -1.23270214687500 -7.14758785312500 -1.73688489375000 
 C -2.80760414687500 -3.22790085312500 -2.15423989375000 
 C -1.60491314687500 -3.53925085312500 -1.39940389375000 
 N -0.174441146875002 -7.21993985312500 -2.57312089375000 
 N -2.30644314687500 -6.58568285312500 -3.65814289375000 
 N -2.89232514687500 -6.89992585312500 0.176964106250002 
 N -0.518076146875002 -3.58097185312500 -2.16490189375000 
 N -2.64830814687500 -3.02504485312500 -3.48881889375000 
 N -3.39926814687500 -3.25330185312500 0.366924106250002 
 S -0.704546146875002 -6.81620985312500 -4.09150789375000 
 S -3.68942614687500 -6.43030985312500 -1.19684189375000 
 S -1.25974614687500 -7.19752385312500 3.790710625000182E-002
 S -1.00783614687500 -3.33070885312500 -3.76709989375000 
 S -4.25873314687500 -3.21185685312500 -1.07558689375000 
 S -1.75788714687500 -3.70591985312501 0.330673106250002 
