16

 C -2.51225861562500 -6.38065382812500 -2.26940300000000 
 C -1.23132061562500 -6.70462882812500 -1.67938800000000 
 C -2.40838561562500 -2.64222782812500 -2.87430000000000 
 C -1.16045661562500 -2.81105982812500 -2.21503400000000 
 N -0.195885615624997 -6.72493282812500 -2.52376900000000 
 N -2.38163061562500 -6.12965382812500 -3.54582100000000 
 N -3.01054061562500 -6.87483982812500 0.139969000000001 
 N -0.134609615624997 -2.76664182812500 -3.06403800000000 
 N -2.37264261562500 -2.53261682812500 -4.18239300000000 
 N -2.98592861562500 -3.03917482812500 -0.409406999999999 
 S -0.789953615624997 -6.29044282812500 -4.03238900000000 
 S -3.77688161562500 -6.23108482812500 -1.17146700000000 
 S -1.35368161562500 -7.01946582812500 1.829200000000131E-002
 S -0.794315615624997 -2.62092382812500 -4.56348400000000 
 S -3.85232061562500 -2.71181282812500 -1.80847700000000 
 S -1.37685861562500 -3.03940182812500 -0.539210999999999 
