16

 C -2.41964856562500 -6.64943005937499 -2.28262008437500 
 C -1.18042256562500 -6.95825605937499 -1.63117708437500 
 C -2.38839556562500 -2.62876005937499 -2.52569108437500 
 C -1.12077356562500 -3.11199405937499 -2.03308808437500 
 N -0.121052565625003 -6.95664505937499 -2.41907908437500 
 N -2.34050056562500 -6.38334205937499 -3.57947008437500 
 N -2.87574156562500 -6.72386305937499 0.263141915625001 
 N -0.191113565625002 -3.38653605937499 -2.92290108437500 
 N -2.37122456562500 -2.43437805937499 -3.84132708437500 
 N -2.60808056562500 -2.97596905937499 -1.304008437499893E-002
 S -0.691774565625003 -6.59878905937499 -3.93142008437500 
 S -3.76716156562500 -6.60041405937499 -1.15678908437500 
 S -1.25355656562500 -7.10036305937499 7.785191562500104E-002
 S -0.916919565625003 -2.90419705937499 -4.35450208437500 
 S -3.54424756562500 -2.41644805937499 -1.22360208437500 
 S -1.06765456562500 -3.49883005937499 -0.363657084374999 
