16

 C -2.46849281250000 -6.45040856250000 -2.32631912500000 
 C -1.18246581250000 -6.84357256250000 -1.71252312500000 
 C -2.52695081250000 -2.79474856250000 -2.36987612500000 
 C -1.37132481250000 -3.26553356250000 -1.68027612500000 
 N -0.197271812500002 -6.99910856250000 -2.59734612500000 
 N -2.41207181250000 -6.35549456250000 -3.64341612500000 
 N -2.95753581250000 -6.90828756250000 0.179899875000000 
 N -0.268647812500002 -3.36722356250000 -2.45231512500000 
 N -2.39857281250000 -2.76125856250000 -3.70176212500000 
 N -3.10154181250000 -2.91483956250000 0.189668875000000 
 S -0.854211812500002 -6.64468756250000 -4.10262212500000 
 S -3.74742781250000 -6.49679256250000 -1.19662712500000 
 S -1.27898081250000 -7.20692856250000 6.705875000000194E-003
 S -0.829958812500002 -3.08794056250000 -4.09063712500000 
 S -3.83270881250000 -2.47689156250000 -1.24322712500000 
 S -1.55506581250000 -3.49352756250000 -3.967012499999978E-002
