16

 C -2.23104251250000 -6.60270260937500 -2.19678748125000 
 C -0.983504512499998 -7.06531560937500 -1.63176248125000 
 C -2.48083751250000 -2.63692760937500 -2.24730148125000 
 C -1.26385751250000 -3.34603960937500 -1.72865748125000 
 N 2.904487500002162E-003 -7.21250760937500 -2.51806348125000 
 N -2.22224451250000 -6.31949560937500 -3.51398748125000 
 N -2.64654151250000 -6.95798960937500 0.340036518749999 
 N -0.330823512499998 -3.52837360937500 -2.63948348125000 
 N -2.35299751250000 -2.38703860937500 -3.52622448125000 
 N -2.97007351250000 -3.19821160937500 0.206001518749999 
 S -0.626389512499998 -6.66463060937500 -4.00434148125000 
 S -3.47031851250000 -6.41990460937500 -0.986354481250001 
 S -1.04483151250000 -7.23533160937500 7.116851874999863E-002
 S -0.826424512499997 -2.94047860937500 -4.09502448125000 
 S -3.73613551250000 -2.49887860937500 -1.12672048125000 
 S -1.36328751250000 -3.53563760937500 -2.190848125000122E-002
