16

 C -2.14937412500000 -6.23338853750001 -2.18920422812500 
 C -0.954195125000002 -6.78108653750001 -1.49813422812500 
 C -2.46424512500000 -2.65168653750001 -2.63771222812500 
 C -1.19649112500000 -3.07575253750001 -2.05239822812500 
 N -1.854125000001261E-003 -7.09870453750001 -2.37348722812500 
 N -2.04325012500000 -5.98254153750001 -3.47884322812500 
 N -2.94287112500000 -6.51472753750001 0.251748771875001 
 N -0.138997125000001 -3.19025853750001 -2.90210722812500 
 N -2.40954312500000 -2.49393453750001 -3.97037022812500 
 N -2.98938912500000 -3.09967153750001 -0.157158228124999 
 S -0.536580125000001 -6.58955553750001 -3.87065122812500 
 S -3.55404012500000 -6.05988053750001 -1.19745222812500 
 S -1.37546912500000 -7.15701653750001 0.181723771875001 
 S -0.874080125000002 -2.88264553750001 -4.36920022812500 
 S -3.78568712500000 -2.46853753750001 -1.49991822812500 
 S -1.34343512500000 -3.30771253750001 -0.302739228124999 
