16

 C -2.24802900312500 -6.39620122187500 -2.13484308750000 
 C -1.04260100312499 -6.94904122187500 -1.51769808750000 
 C -2.36145500312499 -2.69652822187500 -2.26588208750000 
 C -1.21968900312500 -3.31766122187500 -1.72153308750000 
 N -2.069200312499486E-002 -7.24845922187500 -2.32440108750000 
 N -2.08901700312499 -6.19033522187500 -3.43291308750000 
 N -2.88107900312500 -6.75055922187500 0.292915912500000 
 N -0.231891003124995 -3.35744422187500 -2.59365808750000 
 N -2.29817000312500 -2.29819422187500 -3.51691808750000 
 N -2.94141100312499 -3.13346822187500 0.189183912500000 
 S -0.578520003124995 -6.79645522187500 -3.85185808750000 
 S -3.60489200312499 -6.39595522187500 -1.12736108750000 
 S -1.28342700312500 -7.25553022187500 0.153327912500000 
 S -0.735659003124995 -2.77064922187500 -4.04010508750000 
 S -3.70423200312499 -2.62267722187500 -1.19627908750000 
 S -1.37097600312500 -3.62371922187500 -6.041408750000010E-002
