16

 C -2.45829915312500 -6.59869476562501 -2.49829293750000 
 C -1.16579915312500 -6.63827776562501 -1.81533393750000 
 C -2.43916515312500 -2.11520976562501 -2.69143793750000 
 C -1.44498015312500 -2.90212276562501 -2.03112693750000 
 N -8.579015312500005E-002 -6.62521576562501 -2.57348293750000 
 N -2.32689315312500 -6.49692076562501 -3.80430993750000 
 N -3.04027915312500 -6.55025576562501 2.192506249999759E-002
 N -0.334731153124999 -3.18924376562501 -2.73452793750000 
 N -2.08822115312500 -1.79528276562501 -3.92566693750000 
 N -3.47730215312500 -2.64461776562501 -0.479838937500003 
 S -0.703943153125000 -6.48146476562501 -4.13191193750000 
 S -3.77606715312500 -6.37352676562501 -1.43087193750000 
 S -1.36269415312500 -6.78275076562501 -8.926293750000247E-002
 S -0.577854153125000 -2.51975676562501 -4.27032393750000 
 S -3.98687215312500 -1.83676076562501 -1.82220593750000 
 S -1.97336615312500 -3.38514776562501 -0.442300937500002 
