16

 C -2.50600941875001 -6.20404549375000 -2.42247898437500 
 C -1.34922941875001 -6.88447849375000 -1.90591098437500 
 C -2.51361941875001 -2.42970149375000 -2.61145998437500 
 C -1.28673241875001 -2.86136649375000 -1.93059498437500 
 N -0.353226418750012 -7.18441149375000 -2.76729498437500 
 N -2.45737141875001 -6.01380249375000 -3.73377198437500 
 N -2.84401541875001 -6.32054849375000 0.141291015625002 
 N -0.308080418750012 -3.16127449375000 -2.81464098437500 
 N -2.48844241875001 -2.42250449375000 -3.95532098437500 
 N -3.04731541875001 -2.53363849375000 -0.138585984374998 
 S -0.983192418750011 -6.58810349375000 -4.23336998437500 
 S -3.69110141875001 -5.79573849375000 -1.21197298437500 
 S -1.44888641875001 -7.08155649375000 -0.154170984374998 
 S -0.975392418750012 -2.90842249375000 -4.30865198437500 
 S -3.81649341875001 -2.04385549375000 -1.52230498437500 
 S -1.46527541875001 -2.98070249375000 -0.209174984374998 
