16

 C -2.56624905000000 -6.55363454062500 -2.42538420937500 
 C -1.31631905000000 -6.86985854062500 -1.72532120937500 
 C -2.65024905000000 -2.84340654062500 -2.52224520937500 
 C -1.47563605000000 -3.26813554062500 -1.87657820937500 
 N -0.230173050000000 -6.97600654062500 -2.47541820937500 
 N -2.42794405000000 -6.56415754062500 -3.74921120937500 
 N -3.08167605000000 -6.43939754062500 8.057079062499950E-002
 N -0.488598050000000 -3.46510554062500 -2.73443820937500 
 N -2.61340605000000 -2.72427954062500 -3.86207620937500 
 N -3.08653205000000 -2.89438554062500 5.115279062499956E-002
 S -0.769581050000000 -6.84488854062500 -4.04379120937500 
 S -3.87980005000000 -6.19988754062500 -1.38108620937500 
 S -1.45784705000000 -6.88174454062500 4.625579062499940E-002
 S -0.971051050000000 -2.97977354062500 -4.25149320937500 
 S -3.88845305000000 -2.46139354062500 -1.35090220937500 
 S -1.53199005000000 -3.38777654062500 -0.123778209375000 
