16

 C -2.27654790937500 -6.50998333750000 -2.35268469062500 
 C -1.08171790937500 -7.01656533750000 -1.78507169062500 
 C -2.42415590937500 -2.99529233750000 -2.44983769062500 
 C -1.14194190937500 -3.26171433750000 -1.80360669062500 
 N -9.142990937499551E-002 -7.04717933750000 -2.68669369062500 
 N -2.25549990937500 -6.08030933750000 -3.61533569062500 
 N -2.82183690937500 -6.80019033750000 0.148207309374999 
 N -0.115288909374995 -3.34686533750000 -2.66658669062500 
 N -2.30025390937500 -2.83867333750000 -3.72682769062500 
 N -2.96215790937500 -3.45993633750000 3.073030937499865E-002
 S -0.732039909374995 -6.48346733750000 -4.16536169062500 
 S -3.60790290937500 -6.31140333750000 -1.25588769062500 
 S -1.24347790937500 -7.32669933750000 -5.165369062500158E-002
 S -0.706748909374995 -3.10733733750000 -4.09782569062500 
 S -3.74874490937500 -2.85517833750000 -1.34678169062500 
 S -1.34241690937500 -3.66166833750000 -0.117911690625002 
