16

 C -2.15080174687501 -6.31065262187500 -2.29378654375000 
 C -0.951784746875007 -6.82033362187500 -1.74975354375000 
 C -2.81434074687501 -2.50770162187500 -2.49546654375000 
 C -1.58113574687501 -2.99238762187500 -1.91300454375000 
 N 1.481825312499296E-002 -6.95264562187500 -2.66047754375000 
 N -2.12261174687501 -6.07557162187500 -3.60183854375000 
 N -2.62034374687501 -6.69241062187500 0.224861456250001 
 N -0.523415746875007 -3.00315962187500 -2.80359254375000 
 N -2.73690374687501 -2.36524862187500 -3.83000954375000 
 N -3.41426974687501 -2.89484162187500 -5.628543749999437E-003
 S -0.585275746875007 -6.48804962187500 -4.11806854375000 
 S -3.47179374687501 -6.19686762187500 -1.16121954375000 
 S -1.06349774687501 -7.17863562187500 -5.824654374999927E-002
 S -1.11853374687501 -2.61130662187500 -4.22534654375000 
 S -4.15074674687501 -2.35029162187500 -1.39902154375000 
 S -1.79000074687501 -3.33023562187500 -0.182134543749999 
