16

 C -2.28443886250000 -6.42632885312500 -2.23927674375000 
 C -1.09588186250000 -6.97389085312500 -1.65791174375000 
 C -2.31464886250000 -2.60996585312500 -2.41599374375000 
 C -1.10934386250000 -3.18837485312500 -1.92900474375000 
 N -0.140728862500000 -7.25257885312500 -2.54404874375000 
 N -2.20491186250000 -6.23318285312500 -3.54459374375000 
 N -2.70928686250000 -6.76809585312500 0.232581256250002 
 N -0.204329862500000 -3.40195485312500 -2.88538774375000 
 N -2.30645886250000 -2.26098085312500 -3.68647674375000 
 N -2.77401686250000 -3.20577985312500 1.612256250002275E-003
 S -0.769325862500001 -6.82948485312500 -4.02113774375000 
 S -3.58896186250000 -6.25376685312500 -1.08944374375000 
 S -1.14901186250000 -7.21760285312500 5.370525625000222E-002
 S -0.790326862500000 -2.77245985312500 -4.27537674375000 
 S -3.55822486250000 -2.38992385312500 -1.30692574375000 
 S -1.16688186250000 -3.52646585312500 -0.271778743749998 
