16

 C -2.27937990625000 -6.45428639375000 -2.36475777500000 
 C -1.10011390625000 -6.92907339375000 -1.71032077500000 
 C -2.59406390625001 -2.71845339375000 -2.55149277500000 
 C -1.35569090625000 -3.01146139375000 -1.91931677500000 
 N -0.147369906250004 -7.25696839375000 -2.52857777500000 
 N -2.15246490625000 -6.26321139375000 -3.65607877500000 
 N -2.85800790625000 -6.19609739375000 9.454622500000109E-002
 N -0.316172906250005 -3.14674739375000 -2.73288477500000 
 N -2.50629690625000 -2.64989539375000 -3.87142477500000 
 N -3.12910690625000 -2.88556139375000 -0.114482774999999 
 S -0.683358906250005 -6.81017839375000 -4.07437277500000 
 S -3.57471990625000 -6.05114939375000 -1.36049577500000 
 S -1.31160990625000 -6.85655739375000 2.446622500000117E-002
 S -0.918617906250005 -2.88793839375000 -4.28556977500000 
 S -3.94267090625000 -2.50200439375000 -1.49590877500000 
 S -1.49220790625000 -3.12668439375000 -0.247249774999999 
