16

 C -2.35576711875000 -6.43574549062500 -2.32563101875000 
 C -1.09997511875000 -6.86568449062500 -1.77572201875000 
 C -2.55942611875000 -2.70329849062500 -2.39066001875000 
 C -1.45142211875000 -3.29533749062500 -1.72816601875000 
 N -0.155536118750003 -6.92278449062500 -2.69820301875000 
 N -2.34430711875000 -6.20100249062500 -3.62588301875000 
 N -2.69580911875000 -6.79070249062500 0.231201981249997 
 N -0.342577118750003 -3.45116449062500 -2.49847401875000 
 N -2.36085211875000 -2.53993949062500 -3.68962401875000 
 N -3.25715011875000 -2.97974749062500 2.638698124999750E-002
 S -0.783535118750003 -6.46984049062500 -4.14325301875000 
 S -3.59623311875000 -6.40013849062500 -1.10165001875000 
 S -1.08108411875000 -7.16708249062500 -8.519301875000229E-002
 S -0.839073118750004 -3.00159149062500 -4.06102301875000 
 S -3.91404911875000 -2.39850749062500 -1.43545301875000 
 S -1.64358811875000 -3.38950349062500 -3.952018750002395E-003
