16

 C -2.49170017812501 -6.32953635000000 -2.35052307187500 
 C -1.22550417812501 -6.75476835000000 -1.72872707187500 
 C -2.49500617812501 -2.78725835000000 -2.92342607187500 
 C -1.23475417812501 -2.87356735000000 -2.24272307187500 
 N -0.118847178125010 -6.69688135000000 -2.51423807187500 
 N -2.36425517812501 -6.09537735000000 -3.66829707187500 
 N -2.96992117812501 -6.70652635000000 0.258379928125002 
 N -0.167819178125010 -2.74674735000000 -3.01014707187500 
 N -2.45355317812501 -2.52231935000000 -4.21460307187500 
 N -2.95091817812501 -3.14212435000000 -0.327895071874998 
 S -0.720250178125010 -6.25509735000000 -3.97836907187500 
 S -3.74392917812501 -6.16532235000000 -1.10960807187500 
 S -1.31657417812501 -7.13752535000000 1.762192812500163E-002
 S -0.778832178125009 -2.63871535000000 -4.58658407187500 
 S -3.75840617812501 -2.84819435000000 -1.74920107187500 
 S -1.28926117812501 -3.04008435000000 -0.524091071874998 
