16

 C -2.44404392500000 -6.33201171875000 -2.55559460625000 
 C -1.29237492500000 -6.83193771875000 -1.83723660625000 
 C -2.26245592500000 -2.88516571875000 -2.29206660625000 
 C -0.970108924999997 -3.42100571875000 -1.79114560625000 
 N -0.269255924999998 -7.04923471875000 -2.66176360625000 
 N -2.27591292500000 -6.10464671875000 -3.86084360625000 
 N -3.15180392500000 -6.49140771875000 -0.116607606250000 
 N -9.003924999997359E-003 -3.33594171875000 -2.69902760625000 
 N -2.11168092500000 -2.48212171875000 -3.54652660625000 
 N -2.56804792500000 -3.41894071875000 0.193910393750000 
 S -0.742879924999998 -6.52711171875000 -4.16411360625000 
 S -3.79670992500000 -5.86992571875000 -1.52839160625000 
 S -1.55030092500000 -7.03640271875000 -0.143754606250001 
 S -0.617209924999997 -2.88978471875000 -4.14271060625000 
 S -3.50409492500000 -2.98660371875000 -1.09231260625000 
 S -1.01923892500000 -3.96536071875000 -0.139037606250000 
