16

 C -2.42265382812500 -6.26327110312500 -2.31646764062500 
 C -1.29147482812500 -6.86692110312500 -1.67321764062500 
 C -2.38866082812500 -2.31531110312500 -2.48755364062500 
 C -1.20775782812500 -2.84080710312500 -1.85467164062500 
 N -0.246364828124998 -7.11530010312500 -2.42276864062500 
 N -2.25005982812500 -6.16120710312500 -3.60657364062500 
 N -3.13375382812500 -6.62337910312499 0.112627359375002 
 N -0.239473828124998 -3.12330210312500 -2.72074364062500 
 N -2.27910282812500 -2.14812010312500 -3.83737464062500 
 N -2.93759182812500 -2.40518310312499 -4.270640624997935E-003
 S -0.658259828124998 -6.56760410312500 -3.98414664062500 
 S -3.75954782812500 -5.95069710312499 -1.27718264062500 
 S -1.60536382812500 -7.22513310312500 1.296235937500212E-002
 S -0.726505828124998 -2.73622310312500 -4.18198664062500 
 S -3.65344482812500 -1.84325010312500 -1.41010964062500 
 S -1.41367182812500 -3.00333310312500 -0.137925640624998 
