16

 C -2.59889767187500 -6.53895618437500 -2.34605828125000 
 C -1.39677467187500 -6.97385818437500 -1.69447528125000 
 C -2.63678567187500 -2.81701718437500 -2.45727228125000 
 C -1.30402267187500 -3.20196318437500 -1.86902928125000 
 N -0.331659671875004 -7.21141218437500 -2.48536228125000 
 N -2.50061567187500 -6.50559918437500 -3.65781828125000 
 N -3.20493067187500 -6.48479918437500 0.142060718750004 
 N -0.332660671875003 -3.37437818437500 -2.75514628125000 
 N -2.57533367187500 -2.58047618437500 -3.75470028125000 
 N -2.99521667187500 -2.89896318437500 0.107236718750004 
 S -0.890648671875004 -6.86361918437500 -4.02193928125000 
 S -3.91903367187500 -6.19051218437500 -1.31217728125000 
 S -1.59983567187500 -6.82677718437500 4.199871875000372E-002
 S -1.05418667187500 -3.08967918437500 -4.24492328125000 
 S -3.91275967187500 -2.53227018437500 -1.30173428125000 
 S -1.40760467187500 -3.36736018437500 -0.189855281249996 
