16

 C -2.30692758750000 -6.17196905937500 -2.05385605937500 
 C -1.04193458750000 -6.68065805937500 -1.60355305937500 
 C -2.37036958750000 -2.69849905937500 -2.42275705937500 
 C -1.21305758750000 -3.12499805937500 -1.64514905937500 
 N -3.594558749999699E-002 -6.79469905937500 -2.48471905937500 
 N -2.29953858750000 -5.92965605937500 -3.33183805937500 
 N -2.70899958750000 -6.70753105937500 0.443952940625001 
 N -0.189064587499997 -3.35580805937500 -2.44736505937500 
 N -2.24775458750000 -2.75745305937500 -3.74386405937500 
 N -3.07709258750000 -2.72813805937500 7.860294062500128E-002
 S -0.766689587499997 -6.36516105937500 -3.95165605937500 
 S -3.53984458750000 -6.14356005937500 -0.841442059374999 
 S -1.16391958750000 -7.25167105937500 8.413694062500143E-002
 S -0.613499587499997 -3.08851505937500 -4.04254605937500 
 S -3.75542858750000 -2.32640105937500 -1.37654705937500 
 S -1.54703058750000 -3.42292305937500 4.691194062500137E-002
