16

 C -2.62291000000000 -6.30501383124999 -2.25812012812500 
 C -1.46552900000000 -6.99083883124999 -1.76819912812500 
 C -2.29998400000000 -2.50771583124999 -2.48663912812500 
 C -1.12085400000000 -3.08522383124999 -1.86768112812500 
 N -0.474177000000003 -7.12179583124999 -2.62886712812500 
 N -2.48563800000000 -5.92897883124999 -3.50339612812500 
 N -3.10146200000000 -6.68617683124999 0.213175871875000 
 N -0.123686000000003 -3.33678883124999 -2.73933512812500 
 N -2.17117200000000 -2.22720183124999 -3.78726312812500 
 N -2.89310800000000 -2.82306483124999 1.676087187500030E-002
 S -1.02193500000000 -6.54897383124999 -4.05820912812500 
 S -3.87785400000000 -6.11417483124999 -1.13219212812500 
 S -1.55082100000000 -7.24295883124999 -5.413128124999833E-003
 S -0.630290000000003 -2.74891683124999 -4.18375612812500 
 S -3.64978300000000 -2.23106183124999 -1.36673312812500 
 S -1.29355000000000 -3.28844583124999 -0.141379128125000 
