16

 C -2.67741816250000 -6.66325520312499 -2.36199467500000 
 C -1.46060016250000 -7.17136920312499 -1.74121267500000 
 C -2.21719016250000 -2.98387720312499 -2.29473167500000 
 C -1.02187616250000 -3.37074720312499 -1.65122967500000 
 N -0.466289162500002 -7.36958620312499 -2.62199967500000 
 N -2.64539416250000 -6.56388820312499 -3.72015167500000 
 N -3.09046216250000 -6.92279820312499 0.225426324999999 
 N 6.166183749999909E-002 -3.57273720312499 -2.42751967500000 
 N -2.16240616250000 -2.89491920312499 -3.63358367500000 
 N -2.87818016250000 -3.25741520312499 0.243120324999999 
 S -1.06823616250000 -7.02023020312499 -4.14975267500000 
 S -4.00423916250000 -6.45164820312499 -1.09439567500000 
 S -1.53076416250000 -7.28961420312499 -2.728675000001513E-003
 S -0.553874162500001 -3.25403920312499 -3.94558467500000 
 S -3.55512316250000 -2.68098520312499 -1.17778067500000 
 S -1.29940016250000 -3.75426920312499 7.275232499999862E-002
