16

 C -2.43162232812501 -6.37081230625000 -2.58694750312500 
 C -1.29517332812501 -6.75574030625000 -1.78113450312500 
 C -2.31426632812501 -2.59512130625000 -2.38958150312500 
 C -1.17101432812501 -3.26691830625000 -1.80892250312500 
 N -0.181959328125012 -6.92602930625000 -2.46829950312500 
 N -2.19922032812501 -6.23297430625000 -3.88660850312500 
 N -3.25746532812501 -6.64869730625000 -0.135251503125000 
 N -0.241793328125011 -3.67870930625000 -2.65988250312500 
 N -2.15125932812501 -2.42712930625000 -3.68971350312500 
 N -2.97182532812501 -2.86053730625000 5.507049687499999E-002
 S -0.623051328125012 -6.73320430625000 -4.04322350312500 
 S -3.87060032812501 -6.13580130625000 -1.62259750312500 
 S -1.60106132812501 -6.85503330625000 -0.110504503125000 
 S -0.674676328125011 -3.04632030625000 -4.12244350312500 
 S -3.70568632812501 -2.28386930625000 -1.37151350312500 
 S -1.43841032812501 -3.36263030625000 -2.688850312500013E-002
