16

 C -2.45693866562500 -6.51260564375000 -2.44448705312500 
 C -1.24374366562500 -6.73610164375000 -1.73135605312500 
 C -2.69166566562500 -2.84518864375000 -2.53022905312500 
 C -1.41407966562500 -3.28610164375000 -1.88665805312500 
 N -0.207423665624995 -6.90213764375000 -2.50913805312500 
 N -2.32200866562500 -6.55891364375000 -3.77444705312500 
 N -3.02966366562500 -6.43773164375000 0.105003946875000 
 N -0.363099665624995 -3.46165564375000 -2.72019005312500 
 N -2.52618966562500 -2.64714364375000 -3.84354305312500 
 N -3.18184066562500 -2.89129764375000 2.931894687500036E-002
 S -0.714798665624995 -6.82447364375000 -4.07371405312500 
 S -3.80370966562500 -6.23368164375000 -1.34379605312500 
 S -1.45268366562500 -6.89865964375000 -2.074105312499963E-002
 S -0.976692665624995 -3.05887264375000 -4.21829505312500 
 S -3.94079666562500 -2.43579564375000 -1.41596305312500 
 S -1.56729966562500 -3.40960664375000 -0.136662053125000 
