16

 C -2.47278923437499 -6.36566127500000 -2.58052354375000 
 C -1.31360823437499 -6.72895727500000 -1.78958354375000 
 C -2.29108723437499 -2.59046527500000 -2.37969154375000 
 C -1.14759323437499 -3.28950827500000 -1.77043554375000 
 N -0.169117234374992 -6.93157027500000 -2.44561854375000 
 N -2.20562123437499 -6.25449527500000 -3.86469254375000 
 N -3.24971523437499 -6.61915727500000 -0.122889543749999 
 N -0.231618234374992 -3.65887127500000 -2.66721554375000 
 N -2.17852723437499 -2.46483327500000 -3.69660954375000 
 N -2.98501823437499 -2.86337827500000 5.188645625000099E-002
 S -0.604093234374992 -6.75511127500000 -4.05292154375000 
 S -3.86808223437499 -6.13341627500000 -1.63102254375000 
 S -1.61789823437499 -6.83215727500000 -0.105513543749999 
 S -0.673494234374992 -3.04630827500000 -4.12194454375000 
 S -3.71124923437499 -2.29715127500000 -1.37002254375000 
 S -1.43879323437499 -3.37327927500000 -1.668054374999905E-002
