16

 C -2.25844860937500 -6.25430831562500 -2.38772384375000 
 C -1.16600560937500 -6.86180031562500 -1.62399684375000 
 C -2.53568660937500 -2.54032431562500 -2.51076884375000 
 C -1.27827460937500 -3.04016231562500 -1.95075884375000 
 N -0.182038609375001 -7.17059631562500 -2.43050784375000 
 N -2.09984460937500 -6.18948431562500 -3.67726984375000 
 N -2.97089160937500 -6.18950231562500 7.708215624999837E-002
 N -0.259172609375001 -3.02718831562500 -2.80651084375000 
 N -2.42661260937500 -2.10578231562500 -3.78821084375000 
 N -2.89381560937500 -2.80640331562500 7.064156249998454E-003
 S -0.579521609375000 -6.70582431562500 -3.99815384375000 
 S -3.66899660937500 -5.94431231562500 -1.38600784375000 
 S -1.48572260937500 -6.92976231562500 6.891215624999858E-002
 S -0.873838609375000 -2.47430931562500 -4.24601284375000 
 S -3.77572060937500 -2.35429231562500 -1.33410184375000 
 S -1.34409960937500 -3.39118631562500 -0.235617843750001 
