16

 C -2.28964905312500 -6.34567393437500 -2.43194555000000 
 C -1.10845705312500 -6.84504793437500 -1.74595355000000 
 C -2.80510605312500 -2.57182093437500 -2.48280655000000 
 C -1.53585605312500 -2.81352293437500 -1.84129255000000 
 N -7.979053124998359E-003 -6.99517093437500 -2.48130855000000 
 N -2.00299305312500 -6.14816893437500 -3.72246155000000 
 N -2.92569705312500 -6.52797393437500 5.148244999999796E-002
 N -0.521242053124998 -2.90079393437500 -2.70458155000000 
 N -2.67131805312500 -2.30949693437500 -3.80450155000000 
 N -3.33215205312500 -2.89419193437500 -3.380455000000193E-002
 S -0.433351053124998 -6.58320593437500 -4.02483655000000 
 S -3.67248405312500 -6.17257193437500 -1.40780455000000 
 S -1.39362005312500 -7.06969093437500 -6.056955000000208E-002
 S -1.08167305312500 -2.47960293437500 -4.25995055000000 
 S -4.15001205312500 -2.47536993437500 -1.39138355000000 
 S -1.67652405312500 -2.96461893437500 -0.100986550000002 
