16

 C -2.33026409687500 -6.62993494687501 -2.28759491250000 
 C -1.10072709687500 -7.00645094687501 -1.67421491250000 
 C -2.32447809687500 -2.79340794687501 -2.45718391250000 
 C -1.14732009687500 -3.14589894687501 -1.73059091250000 
 N -5.206409687500102E-002 -7.04917394687501 -2.50571691250000 
 N -2.27513409687500 -6.37518394687501 -3.58327091250000 
 N -2.91670009687500 -7.05280194687501 0.242598087499999 
 N -5.542209687500144E-002 -3.32340994687501 -2.48571091250000 
 N -2.21969809687500 -2.75014194687501 -3.78736891250000 
 N -3.06042309687500 -2.92141494687501 2.104708749999884E-002
 S -0.727786096875001 -6.63972594687501 -4.01831391250000 
 S -3.71760509687500 -6.64827294687501 -1.21978491250000 
 S -1.26587109687500 -7.30550694687501 4.713408749999881E-002
 S -0.562724096875002 -3.07394594687501 -4.04743091250000 
 S -3.76497109687500 -2.55940794687501 -1.47681291250000 
 S -1.45264309687500 -3.13164594687501 4.314408749999887E-002
