16

 C -2.34950196562500 -6.67017904687500 -2.39883669687500 
 C -1.13882196562500 -7.15320104687500 -1.71496569687500 
 C -2.40084896562500 -2.49300804687500 -2.27834869687500 
 C -1.33673796562500 -3.33560904687500 -1.75939469687500 
 N -0.136731965624998 -7.31362104687500 -2.55961769687500 
 N -2.24855796562500 -6.33769304687500 -3.73233269687500 
 N -3.02759596562500 -6.96962604687500 0.155639303124999 
 N -0.329855965624998 -3.68670304687500 -2.59831569687500 
 N -2.22351696562500 -2.24482604687500 -3.57582369687500 
 N -2.97629996562500 -2.83822404687500 0.167538303124998 
 S -0.629131965624998 -6.74890304687500 -4.04434169687500 
 S -3.71018596562500 -6.43396804687500 -1.21900169687500 
 S -1.35649296562500 -7.30256504687500 4.309630312499846E-002
 S -0.795168965624998 -2.96531604687500 -4.08660569687500 
 S -3.66749996562500 -2.07653204687500 -1.20404169687500 
 S -1.52665496562500 -3.68483204687500 -2.801969687500150E-002
