16

 C -2.26608597500000 -6.39047985312500 -2.49233583125000 
 C -1.06870797500000 -6.78395885312500 -1.78736883125000 
 C -2.54496797500000 -2.50868585312500 -2.64660083125000 
 C -1.45602197500000 -3.12314785312500 -1.91842983125000 
 N -7.644397500000188E-002 -6.87842685312500 -2.63673983125000 
 N -2.17818297500000 -6.24329385312500 -3.77389583125000 
 N -2.99922897500000 -6.58529385312500 -8.508883125000111E-002
 N -0.316535975000002 -3.32288085312500 -2.64295083125000 
 N -2.18178297500000 -2.22359985312500 -3.90283283125000 
 N -3.47520297500000 -2.74863785312500 -0.305518831250001 
 S -0.596675975000002 -6.60146385312500 -4.20294183125000 
 S -3.67909197500000 -6.35769985312500 -1.52725683125000 
 S -1.29199597500000 -6.75001385312500 -0.115410831250001 
 S -0.612991975000002 -2.62191585312500 -4.09535583125000 
 S -4.02292497500000 -2.12169285312500 -1.75205483125000 
 S -1.88175097500000 -3.35468485312500 -0.213084831250001 
