16

 C -2.40639312187500 -6.51559991875000 -2.44981222187500 
 C -1.17692212187500 -6.85351591874999 -1.71941122187500 
 C -2.56010812187500 -3.23976991874999 -2.34810922187500 
 C -1.26660712187500 -3.46376791874999 -1.72049222187500 
 N -0.138065121875003 -7.06472491874999 -2.54514522187500 
 N -2.28997912187500 -6.41664391874999 -3.79850822187500 
 N -3.02806112187500 -6.74780491874999 5.400577812499963E-002
 N -0.245520121875002 -3.66268391874999 -2.49234222187500 
 N -2.45253512187500 -3.02423591874999 -3.64676022187500 
 N -2.99744712187500 -3.31504891874999 0.162261778125000 
 S -0.691103121875003 -6.73939691874999 -4.08389422187500 
 S -3.76712712187500 -6.34454491874999 -1.39111722187500 
 S -1.41043612187500 -6.96300091874999 2.163277812499964E-002
 S -0.896398121875003 -3.31087891874999 -4.06324422187500 
 S -3.84617512187500 -3.32100791874999 -1.21896122187500 
 S -1.32811212187500 -3.60464391874999 4.327177812499960E-002
