16

 C -2.59362359374999 -6.33239886562500 -2.26563155000000 
 C -1.38177559374999 -6.98565086562500 -1.72325155000000 
 C -2.34568959374999 -2.55830186562500 -2.43657355000000 
 C -1.20380159374999 -3.20583086562500 -1.88147755000000 
 N -0.433740593749994 -7.16689886562500 -2.64924155000000 
 N -2.54241859374999 -5.98346986562500 -3.56142255000000 
 N -3.12209259374999 -6.69924086562500 0.245818450000002 
 N -0.148388593749994 -3.39328786562500 -2.64704955000000 
 N -2.13812559374999 -2.29630286562500 -3.74945855000000 
 N -2.91244659374999 -2.95307286562500 1.874545000000261E-002
 S -1.08131759374999 -6.50665086562500 -4.06819855000000 
 S -3.90567859374999 -6.11247786562500 -1.11399955000000 
 S -1.54271659374999 -7.24936986562500 -2.393254999999739E-002
 S -0.645694593749994 -2.77045486562500 -4.20828955000000 
 S -3.69219459374999 -2.34983186562500 -1.34596555000000 
 S -1.27691759374999 -3.33350586562500 -0.156594549999998 
