16

 C -2.30935261875000 -6.31582460625000 -2.41610391562500 
 C -1.07204561875000 -6.86773760625000 -1.82029391562500 
 C -2.27032561875000 -2.58013360625000 -2.43600391562500 
 C -1.10900061875000 -3.10389060625000 -1.71540691562500 
 N -8.968161875000202E-002 -7.13636960625000 -2.67600991562500 
 N -2.19656261875000 -6.08344660625000 -3.72081491562500 
 N -2.95444961875000 -6.70131960625000 -5.177091562499836E-002
 N -6.064361875000213E-002 -3.45141460625000 -2.48355291562500 
 N -2.07840661875000 -2.49360060625000 -3.76326491562500 
 N -3.06349161875000 -2.92058160625000 -2.358091562499842E-002
 S -0.683493618750002 -6.67069460625000 -4.17462191562500 
 S -3.71141761875000 -6.25249260625000 -1.41058691562500 
 S -1.31765061875000 -7.10979560625000 -8.729291562499863E-002
 S -0.574644618750002 -2.99077660625000 -4.02001491562500 
 S -3.75122361875000 -2.38814160625000 -1.44310791562500 
 S -1.33607061875000 -3.15584460625000 2.059608437500149E-002
