16

 C -2.49397105937500 -6.75155369374999 -2.42930384062500 
 C -1.12669805937500 -7.05214969374999 -1.95001484062500 
 C -2.55832605937500 -2.93630169374999 -2.50925184062500 
 C -1.35043805937500 -3.37908069374999 -1.78020584062500 
 N -0.208669059374996 -7.13811869374999 -2.91096784062500 
 N -2.55667805937500 -6.58387969374999 -3.75390284062500 
 N -2.65103205937500 -7.07937269374999 0.160222159374997 
 N -0.296694059374996 -3.59379469374999 -2.56290684062500 
 N -2.39049205937500 -2.73610769374999 -3.79937184062500 
 N -3.22444005937500 -3.13089869374999 2.159415937499665E-002
 S -1.01922805937500 -6.77772769374999 -4.34102384062500 
 S -3.67280205937500 -6.75518369374999 -1.12138684062500 
 S -1.00813005937500 -7.37261569374999 -0.224331840625003 
 S -0.771489059374996 -3.13993669374999 -4.08812284062500 
 S -3.92313405937500 -2.56885069374999 -1.39780884062500 
 S -1.62068105937500 -3.76481769374999 -7.300684062500351E-002
