16

 C -2.31191450625000 -6.29719401875000 -2.09188733750000 
 C -1.16367050625000 -6.95554901875000 -1.49015533750000 
 C -2.38088750625000 -2.65368401875000 -2.25274833750000 
 C -1.21217750625000 -3.22992001875000 -1.58980633750000 
 N -0.108057506250002 -6.95403501875000 -2.29626333750000 
 N -2.15128550625000 -5.74921701875000 -3.30227933750000 
 N -2.93122350625000 -6.69395001875000 0.340245662499998 
 N -0.138141506250003 -3.40443301875000 -2.37910733750000 
 N -2.06547450625000 -2.20535601875000 -3.46754633750000 
 N -3.06430850625000 -2.99575001875000 0.206472662499998 
 S -0.593743506250003 -6.20706401875000 -3.73774233750000 
 S -3.68476950625000 -6.13506501875000 -1.06398333750000 
 S -1.34139150625000 -7.16694401875000 0.174119662499998 
 S -0.495568506250002 -2.74459501875000 -3.85549533750000 
 S -3.74369250625000 -2.48847001875000 -1.19193033750000 
 S -1.45120650625000 -3.35361001875000 0.133103662499998 
