16

 C -2.38220718125000 -6.35641906875000 -2.62310133437500 
 C -1.18929118125000 -6.76725006875000 -1.85748233437500 
 C -2.39935818125000 -2.59715506875000 -2.59311633437500 
 C -1.15356918125000 -3.00858406875000 -1.99843233437500 
 N -0.143211181250002 -6.92137706875000 -2.62326133437500 
 N -2.20024618125000 -6.27928206875000 -3.94721033437500 
 N -3.05509518125000 -6.32531306875000 -0.130063334374997 
 N -0.161186181250002 -3.19659006875000 -2.85750433437500 
 N -2.29897018125000 -2.45610206875000 -3.89467333437500 
 N -2.84745018125000 -3.09207506875000 -4.151133437499710E-002
 S -0.636461181250002 -6.69405306875000 -4.16700433437500 
 S -3.74390818125000 -6.20006806875000 -1.59600633437500 
 S -1.43507818125000 -6.87009206875000 -0.157986334374997 
 S -0.679638181250002 -2.75952506875000 -4.32187533437500 
 S -3.63701118125000 -2.62299606875000 -1.39636033437500 
 S -1.24906618125000 -3.31972206875000 -0.287300334374997 
