16

 C -2.45513950312500 -6.51802864062500 -2.55702306875000 
 C -1.19690150312500 -6.70879264062500 -1.86337806875000 
 C -2.40692450312500 -3.23678364062500 -2.13183506875000 
 C -1.07618450312500 -3.55941664062500 -1.52933206875000 
 N -0.119470503125003 -6.94472664062500 -2.63102506875000 
 N -2.30370950312500 -6.51337864062500 -3.88134306875000 
 N -2.94012350312500 -6.56304264062500 -6.048068749999969E-003
 N -7.460250312500261E-002 -3.62442764062500 -2.41869106875000 
 N -2.37105250312500 -3.05157564062500 -3.43702406875000 
 N -2.82978450312500 -3.59733764062500 0.396655931250000 
 S -0.691431503125003 -6.73663464062500 -4.18487906875000 
 S -3.74240050312500 -6.30474764062500 -1.48379706875000 
 S -1.27278350312500 -6.80045064062500 -0.127563068750000 
 S -0.836082503125002 -3.39180864062500 -3.90841906875000 
 S -3.71242450312500 -3.35764764062500 -0.988131068750000 
 S -1.19114050312500 -3.68958364062500 0.197165931250000 
