16

 C -2.54571031250000 -6.19900301562500 -2.41268420000000 
 C -1.35769531250000 -6.85925401562500 -1.89479420000000 
 C -2.50837731250000 -2.44224601562500 -2.59051920000000 
 C -1.22476031250000 -2.84348701562500 -1.94139520000000 
 N -0.400906312500000 -7.17328601562500 -2.76118920000000 
 N -2.46216731250000 -6.04723401562500 -3.73970720000000 
 N -2.87028031250000 -6.30893601562500 0.117445799999999 
 N -0.315614312500000 -3.19427901562500 -2.82737120000000 
 N -2.46348031250000 -2.40632301562500 -3.91696320000000 
 N -3.05378631250000 -2.55145801562500 -0.122737200000001 
 S -0.960455312500000 -6.60490201562500 -4.22554320000000 
 S -3.71711231250000 -5.80841901562500 -1.23572220000000 
 S -1.45841531250000 -7.09028001562500 -0.172887200000001 
 S -0.939073312500000 -2.92675101562500 -4.27587120000000 
 S -3.81981031250000 -2.03828201562500 -1.52676220000000 
 S -1.44337731250000 -2.99177701562500 -0.181657200000001 
