16

 C -2.66027190625000 -6.44498620312500 -2.41186214687500 
 C -1.42054990625000 -6.75327820312500 -1.72568114687500 
 C -2.61361990625000 -2.41825720312500 -2.42187714687500 
 C -1.43109190625000 -2.97408220312500 -1.78894514687500 
 N -0.309017906250000 -6.88221920312500 -2.44829414687500 
 N -2.45854290625000 -6.23289620312500 -3.71277314687500 
 N -3.24737690625000 -6.65181220312500 9.429885312500264E-002
 N -0.466266906250000 -3.30682820312500 -2.63676614687500 
 N -2.49907190625000 -2.17612220312500 -3.74193614687500 
 N -3.18547490625000 -2.79336320312500 8.075485312500263E-002
 S -0.809911906250000 -6.56363620312500 -4.00096614687500 
 S -4.02878290625000 -6.60807920312500 -1.37790814687500 
 S -1.64735290625000 -6.97657820312500 -3.647014687499750E-002
 S -1.01425690625000 -2.70993020312500 -4.13861314687500 
 S -3.96355490625000 -2.20251620312500 -1.27674614687500 
 S -1.60612290625000 -3.18234020312500 -7.931314687499746E-002
