16

 C -2.45076128437500 -6.10636974375000 -2.19747717500000 
 C -1.23535928437500 -6.65205374375000 -1.62694417500000 
 C -2.55458128437500 -2.46919774375000 -2.52613217500000 
 C -1.32968428437500 -2.99349174375000 -1.84409617500000 
 N -0.281812284375005 -6.92377074375000 -2.53384017500000 
 N -2.43178528437500 -5.86743674375000 -3.51496617500000 
 N -2.93853528437500 -6.31194174375000 0.309886824999999 
 N -0.318849284375005 -3.27561774375000 -2.64514817500000 
 N -2.42494728437500 -2.32992674375000 -3.82032817500000 
 N -3.08014428437500 -2.44906774375000 -1.170617500000093E-002
 S -0.947350284375005 -6.45062074375000 -4.00376717500000 
 S -3.73931528437500 -5.87710074375000 -1.07214117500000 
 S -1.30199728437500 -6.85119574375000 0.113897824999999 
 S -0.898378284375005 -2.85197874375000 -4.12790317500000 
 S -3.84101728437500 -2.20341974375000 -1.44031717500000 
 S -1.45202628437500 -2.96793074375000 -0.126917175000001 
