16

 C -2.61898336250000 -6.38811850625000 -2.26873909687500 
 C -1.38341136250000 -6.85465250625000 -1.70122509687500 
 C -2.43394536250000 -2.85240050625000 -2.43619609687500 
 C -1.17176836250000 -3.24018550625000 -1.83629509687500 
 N -0.432103362500000 -6.96063450625000 -2.60880609687500 
 N -2.56521536250000 -6.09997850625000 -3.55299609687500 
 N -3.04706636250000 -6.77228850625000 0.219227903124998 
 N -0.174021362500000 -3.31578150625000 -2.73916609687500 
 N -2.38387536250000 -2.60665650625000 -3.72431209687500 
 N -2.97347136250000 -3.17509050625000 5.680090312499808E-002
 S -1.03323636250000 -6.56775850625000 -4.08830609687500 
 S -3.88621736250000 -6.16246450625000 -1.09053009687500 
 S -1.47986236250000 -7.20884950625000 -6.572009687500202E-002
 S -0.785325362500000 -2.93954950625000 -4.17711209687500 
 S -3.82621436250000 -2.79947150625000 -1.33057809687500 
 S -1.39772436250000 -3.69861150625000 -0.128794096875002 
