16

 C -2.44024770625001 -6.50213365625000 -2.64159928125000 
 C -1.23821370625001 -6.97527765625000 -2.05259628125000 
 C -2.28107170625001 -2.55668665625000 -2.45310728125000 
 C -1.09745770625001 -3.19121865625000 -1.99659928125000 
 N -0.237161706250008 -7.27382665625000 -2.87545028125000 
 N -2.35848070625001 -6.36710965625000 -3.94551528125000 
 N -2.92176170625001 -6.51831865625000 -3.601528125000009E-002
 N -0.179971706250009 -3.25588465625000 -2.94556728125000 
 N -2.26836270625001 -2.08076565625000 -3.68937228125000 
 N -2.68938970625001 -3.15728665625000 2.977471874999993E-002
 S -0.789456706250008 -6.81611765625000 -4.39780028125000 
 S -3.71950570625001 -6.31067165625000 -1.41593328125000 
 S -1.40342270625001 -7.24964965625000 -0.269540281250000 
 S -0.771080706250008 -2.48436065625000 -4.22447528125000 
 S -3.49458670625001 -2.52384665625000 -1.25417028125000 
 S -1.13777470625001 -3.62086965625000 -0.314487281250000 
