16

 C -2.58205345000000 -6.30440909375000 -2.47341770000000 
 C -1.38936645000000 -6.95947609375000 -1.93308670000000 
 C -2.65045745000000 -2.86943809375000 -2.35529470000000 
 C -1.46065445000000 -3.24692209375000 -1.61043770000000 
 N -0.428884450000001 -7.12960709375000 -2.81733870000000 
 N -2.55935945000000 -6.08541009375000 -3.78125370000000 
 N -2.94219945000000 -6.74121509375000 6.293329999999986E-002
 N -0.431603450000001 -3.58450909375000 -2.39154070000000 
 N -2.48170345000000 -3.02894909375000 -3.66552270000000 
 N -3.26184445000000 -2.73574209375000 7.363229999999987E-002
 S -1.07568645000000 -6.68335909375000 -4.25907970000000 
 S -3.78812545000000 -6.01495509375000 -1.20835270000000 
 S -1.44314245000000 -7.23033509375000 -0.277045700000000 
 S -0.920785450000001 -3.40551309375000 -3.96565070000000 
 S -4.03896245000000 -2.52309209375000 -1.41302870000000 
 S -1.76693745000000 -3.46173309375000 9.671729999999990E-002
