16

 C -2.31071143437500 -6.27819350312500 -2.68792736250000 
 C -1.20425643437500 -6.77759850312500 -1.91719836250000 
 C -2.49758543437500 -2.79989150312500 -2.59688736250000 
 C -1.22044543437500 -3.08281350312500 -1.89958136250000 
 N -9.342543437499717E-002 -6.95738150312500 -2.64018036250000 
 N -2.06689643437500 -5.95024750312500 -3.95434336250000 
 N -3.05400043437500 -6.34955950312500 -0.253871362500001 
 N -0.104885434374998 -3.13867950312500 -2.64576236250000 
 N -2.33132143437500 -2.79229550312500 -3.92358536250000 
 N -3.13571343437500 -3.00280750312500 -6.195136250000077E-002
 S -0.476700434374997 -6.39416350312500 -4.18086336250000 
 S -3.62810843437500 -5.80540350312500 -1.70626036250000 
 S -1.44887243437500 -6.80267750312500 -0.198861362500001 
 S -0.697029434374997 -2.92101350312500 -4.17877636250000 
 S -3.87056543437500 -2.65815250312500 -1.50787736250000 
 S -1.42639943437500 -3.25798750312500 -0.182766362500001 
