16

 C -2.39689888750000 -6.43363065625000 -2.36202695000000 
 C -1.14608188750000 -6.78445465625000 -1.68635295000000 
 C -2.27703888750000 -2.94568265625000 -2.12598595000000 
 C -1.01420088750000 -3.25178265625000 -1.55064195000000 
 N -0.121293887499998 -6.91177565625000 -2.51121295000000 
 N -2.30638488750000 -6.31503065625000 -3.66952695000000 
 N -2.99925788750000 -6.81851965625000 8.206804999999928E-002
 N -6.779488749999807E-002 -3.48342265625000 -2.43276595000000 
 N -2.21803888750000 -2.86094265625000 -3.44354395000000 
 N -2.70276388750000 -3.28235065625000 0.370945049999999 
 S -0.707672887499998 -6.53236765625000 -4.00980895000000 
 S -3.84660688750000 -6.49587765625000 -1.30312595000000 
 S -1.32788888750000 -6.90667665625000 -1.982295000000089E-002
 S -0.649080887499998 -3.11112765625000 -3.89919295000000 
 S -3.58953588750000 -2.93760365625000 -1.01029295000000 
 S -1.07883988750000 -3.58389765625000 0.230773049999999 
