16

 C -2.22876398749999 -6.42213396250000 -2.18967421875000 
 C -1.05457898749999 -6.99581896250000 -1.54937321875000 
 C -2.45815598749999 -2.67910996250000 -2.31864621875000 
 C -1.18030098749999 -3.29199596250000 -1.72616221875000 
 N -5.294498749999388E-002 -7.21652896250000 -2.39820121875000 
 N -2.08957498749999 -6.19467796250000 -3.52242221875000 
 N -2.73057398749999 -6.83182996250000 0.327847781250001 
 N -0.231422987499994 -3.54743596250000 -2.62627321875000 
 N -2.28112698749999 -2.30082596250000 -3.58622321875000 
 N -2.94633198749999 -3.16430096250000 0.195955781250001 
 S -0.571421987499994 -6.77336196250000 -3.88405421875000 
 S -3.63056398749999 -6.41116496250000 -1.06296921875000 
 S -1.12599898749999 -7.27424296250000 0.145643781250001 
 S -0.818145987499994 -2.80176996250000 -4.04315921875000 
 S -3.71858998749999 -2.56558896250000 -1.16241321875000 
 S -1.32840498749999 -3.59933196250000 2.720678125000120E-002
