16

 C -2.17670828750001 -6.65635888437500 -2.27284970625000 
 C -0.953561287500007 -6.98961288437500 -1.60682270625000 
 C -2.51386728750001 -2.61847988437500 -2.44888170625000 
 C -1.29364628750001 -2.95817488437500 -1.86120570625000 
 N 6.437971249999208E-002 -7.07045888437500 -2.44071970625000 
 N -2.14241428750001 -6.42103388437500 -3.57877570625000 
 N -2.65758428750001 -6.71916988437500 0.256150293749998 
 N -0.238084287500008 -2.97939288437500 -2.67963370625000 
 N -2.49756028750001 -2.52244788437500 -3.76902170625000 
 N -3.01641928750001 -2.75844688437500 2.887829374999851E-002
 S -0.489280287500008 -6.62024288437500 -3.95816970625000 
 S -3.51284628750001 -6.47198988437500 -1.14104970625000 
 S -1.08798228750001 -7.29640288437500 6.993929374999852E-002
 S -0.867097287500008 -2.85559388437500 -4.22109970625000 
 S -3.85285328750001 -2.47927488437500 -1.37680770625000 
 S -1.35313128750001 -3.08442588437500 -7.560970625000163E-002
