16

 C -2.62056316250000 -6.67202949062500 -2.26791655625000 
 C -1.40727716250000 -6.89794049062500 -1.56646155625000 
 C -2.28958016250000 -2.63794649062500 -2.47420055625000 
 C -1.20693316250000 -3.28882849062500 -1.80941755625000 
 N -0.349503162500001 -6.90105449062500 -2.36628955625000 
 N -2.46611516250000 -6.44340449062500 -3.57086255625000 
 N -3.20903516250000 -6.91209049062500 0.255445443749999 
 N -8.031616250000084E-002 -3.37838249062500 -2.54823555625000 
 N -2.10685616250000 -2.41254049062500 -3.78799755625000 
 N -3.04213116250000 -3.00891049062500 -3.062556250000847E-003
 S -0.878618162500001 -6.59692549062500 -3.88104255625000 
 S -4.01456316250000 -6.66170049062500 -1.20255955625000 
 S -1.57549016250000 -7.19955349062500 0.145471443749999 
 S -0.581633162500001 -2.87679649062500 -4.07366955625000 
 S -3.64370716250000 -2.24852349062500 -1.37712655625000 
 S -1.49136116250000 -3.64751249062500 -5.362855625000074E-002
