16

 C -2.63781840000000 -6.36538720000000 -2.28838609062500 
 C -1.45910340000000 -6.90900420000000 -1.67795409062500 
 C -2.46341540000000 -2.80035920000000 -2.40212609062500 
 C -1.18586640000000 -3.22409620000000 -1.81106509062500 
 N -0.422332399999997 -7.20935020000000 -2.47693709062500 
 N -2.55318140000000 -6.31103920000000 -3.62067609062500 
 N -3.16762440000000 -6.45211620000000 0.196958909374999 
 N -0.284233399999998 -3.45231420000000 -2.74290509062500 
 N -2.39317140000000 -2.65020120000000 -3.70559709062500 
 N -2.88690540000000 -2.93608620000000 0.119257909374999 
 S -1.03730040000000 -6.86042020000000 -3.98944709062500 
 S -3.98561740000000 -6.16814520000000 -1.23283309062500 
 S -1.62221040000000 -7.00244320000000 3.507090937499879E-002
 S -0.913939399999998 -3.15392720000000 -4.21827909062500 
 S -3.75570340000000 -2.60731020000000 -1.27152209062500 
 S -1.28916440000000 -3.32107320000000 -0.142471090625001 
