16

 C -2.23101032187500 -6.39656326875001 -2.35631358750000 
 C -0.961888321874998 -6.73609926875001 -1.79142858750000 
 C -2.54185232187500 -2.67199526875001 -2.32197958750000 
 C -1.31255132187500 -3.15756426875001 -1.70322758750000 
 N 4.950867812500181E-002 -6.91195026875001 -2.64479958750000 
 N -2.13855732187500 -6.21992726875001 -3.67522258750000 
 N -2.73396232187500 -6.83842826875001 0.110080412500002 
 N -0.265246321874998 -3.23058026875001 -2.53943258750000 
 N -2.48711632187500 -2.41939626875001 -3.63949358750000 
 N -3.06166132187500 -3.04466326875001 0.170246412500002 
 S -0.585744321874998 -6.51733926875001 -4.11314958750000 
 S -3.54192332187500 -6.29161326875001 -1.26331058750000 
 S -1.09182032187500 -6.98668426875001 -6.610258749999787E-002
 S -0.923294321874998 -2.81096326875001 -4.01398458750000 
 S -3.91788232187500 -2.53754626875001 -1.17578758750000 
 S -1.45122132187500 -3.24114926875001 1.408141250000239E-002
