16

 C -2.44994823437500 -6.83707967187500 -2.37379144375000 
 C -1.10226223437500 -7.00240567187500 -1.88522844375000 
 C -2.41739723437500 -2.68511567187500 -2.43701744375000 
 C -1.33635723437500 -3.30936167187500 -1.74166444375000 
 N -0.132931234375000 -6.98571567187500 -2.82866244375000 
 N -2.45606023437500 -6.65618467187500 -3.69875344375000 
 N -2.71672923437500 -7.02984067187500 0.180231556250003 
 N -0.263522234375000 -3.56784267187500 -2.48994544375000 
 N -2.22803123437500 -2.45393067187500 -3.73377844375000 
 N -3.26599723437500 -2.99640767187500 3.100055625000286E-002
 S -0.917303234375001 -6.68991667187500 -4.25749844375000 
 S -3.66258923437500 -6.78025267187500 -1.12548044375000 
 S -1.07178123437500 -7.00960267187500 -0.141803443749997 
 S -0.759665234375000 -3.07545067187500 -4.01752444375000 
 S -3.86814523437500 -2.52243367187500 -1.41481644375000 
 S -1.65248923437500 -3.43205067187500 -2.105144374999712E-002
