16

 C -2.40152152187500 -6.58540997812500 -2.28912132812500 
 C -1.10831952187500 -6.89592297812500 -1.67014932812500 
 C -2.57847352187500 -3.14444997812500 -2.04874032812500 
 C -1.30744652187500 -3.44642597812500 -1.33960032812500 
 N -0.144453521875001 -7.04666397812500 -2.59580532812500 
 N -2.38406152187500 -6.39812597812500 -3.61187532812500 
 N -2.87207552187500 -6.91892897812500 0.194114671875000 
 N -0.239087521875001 -3.62504397812500 -2.15063132812500 
 N -2.47339852187500 -3.09001997812500 -3.38753932812500 
 N -3.17625252187500 -3.35167597812500 0.405273671875000 
 S -0.809055521875001 -6.64690397812500 -4.08329432812500 
 S -3.77162252187500 -6.47726097812500 -1.19452632812500 
 S -1.29700352187500 -7.17128397812500 3.811671874999867E-003
 S -0.844290521875001 -3.21788797812500 -3.70022432812500 
 S -3.92673852187500 -3.13335597812500 -1.04224832812500 
 S -1.47607252187500 -3.57432197812500 0.413488671875000 
