16

 C -2.71851693437499 -6.73801045312500 -2.32339980625000 
 C -1.42136093437499 -6.95707845312500 -1.66495380625000 
 C -2.48353093437499 -3.12832445312500 -2.46898880625000 
 C -1.11598793437499 -3.11685345312500 -1.93431480625000 
 N -0.439677934374994 -6.98769245312500 -2.50453680625000 
 N -2.72971093437499 -6.65265145312500 -3.63459080625000 
 N -3.16048293437499 -6.71494445312500 0.153220193750001 
 N -0.154884934374994 -3.24046845312500 -2.85675980625000 
 N -2.52933793437499 -3.21767945312500 -3.78339180625000 
 N -2.71533093437499 -3.10886745312500 0.148783193750001 
 S -1.07420393437499 -6.66173145312500 -4.01464980625000 
 S -4.01305893437499 -6.45143445312500 -1.20111380625000 
 S -1.50203993437499 -7.08589945312500 1.234219375000079E-002
 S -0.897642934374995 -3.25629345312500 -4.28425180625000 
 S -3.62645293437499 -2.96234745312500 -1.24915080625000 
 S -1.10817193437499 -3.34300645312500 -0.165385806249999 
