16

 C -2.12890230624999 -6.48056085000000 -2.37189516250000 
 C -0.953433306249991 -7.03532385000000 -1.76982016250000 
 C -2.65762630624999 -2.53044785000000 -2.47473316250000 
 C -1.44068130624999 -2.94337985000000 -1.79943516250000 
 N 3.897069375000850E-002 -7.30256585000000 -2.59000316250000 
 N -2.05797030624999 -6.36185185000000 -3.68537316250000 
 N -2.68072530624999 -6.71328585000000 0.104217837500001 
 N -0.409261306249991 -3.17173585000000 -2.62335916250000 
 N -2.54679030624999 -2.26752485000000 -3.79270816250000 
 N -3.15656630624999 -2.67856685000000 6.812983750000123E-002
 S -0.508420306249992 -6.88437485000000 -4.10835216250000 
 S -3.39677030624999 -6.23055285000000 -1.30093416250000 
 S -1.08328930624999 -7.19279985000000 -7.992162499998789E-003
 S -1.01217930624999 -2.81954285000000 -4.15102516250000 
 S -3.93326130624999 -2.19040085000000 -1.30428716250000 
 S -1.51146530624999 -3.06435685000000 -5.637016249999882E-002
