16

 C -2.57628068125000 -6.26890434062500 -2.37840004687500 
 C -1.43088068125000 -7.04649834062500 -1.88928204687500 
 C -2.46535968125000 -2.70263834062500 -2.25123304687500 
 C -1.36300668125000 -3.35812934062500 -1.67412104687500 
 N -0.517844681249999 -7.21849034062500 -2.82756004687500 
 N -2.52928168125000 -5.99281334062500 -3.66712404687500 
 N -3.04176468125000 -6.61039034062500 6.502195312499892E-002
 N -0.368371681249999 -3.72032034062500 -2.49071504687500 
 N -2.28044468125000 -2.38303334062500 -3.52780104687500 
 N -3.02807768125000 -2.95204234062500 0.242661953124999 
 S -1.06750268125000 -6.52005634062500 -4.19413204687500 
 S -3.88813368125000 -5.98538334062500 -1.25432404687500 
 S -1.53505168125000 -7.31906534062500 -0.210646046875001 
 S -0.839795681249999 -3.16080834062500 -3.97118404687500 
 S -3.78714068125000 -2.42917234062500 -1.12985604687500 
 S -1.56868568125000 -3.73254634062500 6.315695312499892E-002
