16

 C -2.43961026250000 -6.36268317812500 -2.52237873750000 
 C -1.26721126250000 -6.84665717812500 -1.83487973750000 
 C -2.38511126250000 -2.54933717812500 -2.48947873750000 
 C -1.35531026250000 -3.28847817812500 -1.84967673750000 
 N -0.219106262500000 -7.06291017812500 -2.59467373750000 
 N -2.26854126250000 -6.17523117812500 -3.82126573750000 
 N -3.20824826250000 -6.77342217812500 -0.123446737500004 
 N -0.299346262499999 -3.57361517812500 -2.58862373750000 
 N -2.15757326250000 -2.29351917812500 -3.77765873750000 
 N -2.98278726250000 -2.77311817812500 5.426526249999641E-002
 S -0.647096262500000 -6.54183417812500 -4.19233073750000 
 S -3.84247226250000 -6.12642017812500 -1.55806573750000 
 S -1.60577826250000 -7.05437017812500 -0.102321737500004 
 S -0.687544262499999 -3.07622617812500 -4.10881073750000 
 S -3.64581726250000 -2.22623917812500 -1.35852673750000 
 S -1.42618326250000 -3.36410317812500 -0.109070737500004 
