16

 C -2.16589045937500 -6.51817317187500 -2.50194552187500 
 C -1.03793545937500 -7.09578117187500 -1.79515652187500 
 C -2.45045345937500 -2.92310017187500 -2.35244752187500 
 C -1.25045745937500 -3.36260917187500 -1.71512752187500 
 N -7.318945937499866E-002 -7.43658217187500 -2.68054552187500 
 N -2.05830745937500 -6.31545717187500 -3.82504452187500 
 N -3.01381445937500 -6.86349217187500 -7.456852187499985E-002
 N -0.240372459374998 -3.65626117187500 -2.46014352187500 
 N -2.29673545937500 -2.71915917187500 -3.65918852187500 
 N -2.94967245937500 -2.91626417187500 0.182998478125000 
 S -0.588331459374999 -6.86620817187500 -4.20011252187500 
 S -3.56613245937500 -6.19172217187500 -1.49476452187500 
 S -1.40094745937500 -7.31991017187500 -9.207552187500001E-002
 S -0.732091459374998 -3.20779217187500 -4.01474352187500 
 S -3.77120345937500 -2.70709017187500 -1.22251452187500 
 S -1.34009845937500 -3.44364817187500 4.116147812500004E-002
