16

 C -2.54289160312500 -6.25562035312500 -2.45895221562500 
 C -1.28454360312500 -6.58287535312500 -1.86655821562500 
 C -2.41016660312500 -2.92723035312500 -2.52510721562500 
 C -1.16310360312500 -3.15482535312500 -1.80160321562500 
 N -0.258260603124997 -6.65529435312500 -2.72143221562500 
 N -2.49939560312500 -6.12467235312500 -3.78797021562500 
 N -3.05612560312500 -6.52014635312500 2.730778437499937E-002
 N -9.726860312499674E-002 -3.40699735312500 -2.55639721562500 
 N -2.31000260312500 -2.96484035312500 -3.85669121562500 
 N -3.02612860312500 -2.77212335312500 -8.007221562500066E-002
 S -0.919474603124997 -6.47466735312500 -4.23774621562500 
 S -3.75734960312500 -6.02517435312500 -1.33104521562500 
 S -1.42434960312500 -6.80276435312500 -0.143344215625001 
 S -0.733680603124997 -3.41615235312500 -4.13259821562500 
 S -3.77564960312500 -2.69775035312500 -1.52374021562500 
 S -1.44370660312500 -3.14634035312500 -0.159973215625001 
