16

 C -2.55595562812500 -6.21531201250000 -2.52353282500000 
 C -1.44326462812500 -6.81376901250000 -1.83189382500000 
 C -2.23063462812500 -2.89837401250000 -2.29848982500000 
 C -0.924181628124999 -3.36767301250000 -1.74958482500000 
 N -0.376657628124999 -7.00535601250000 -2.60063582500000 
 N -2.39726562812500 -6.06603101250000 -3.83810882500000 
 N -3.26341362812500 -6.50524901250000 -7.736482500000141E-002
 N 8.292837187500091E-002 -3.38941701250000 -2.61680582500000 
 N -2.21514362812500 -2.61472401250000 -3.60104282500000 
 N -2.62164862812500 -3.46787301250000 0.217432174999999 
 S -0.806414628124999 -6.59323201250000 -4.16035882500000 
 S -3.90495262812500 -5.88569401250000 -1.47485582500000 
 S -1.69265962812500 -6.99934701250000 -0.129731825000001 
 S -0.622926628124999 -2.83512301250000 -4.03348982500000 
 S -3.42708162812500 -3.00745601250000 -1.12326582500000 
 S -1.02174862812500 -3.87416701250000 -9.507782500000150E-002
