16

 C -2.51432369375000 -6.20947280312501 -2.48106069687500 
 C -1.36057169375000 -6.88776680312501 -1.90763369687500 
 C -2.47598169375000 -2.65229280312501 -2.19371369687500 
 C -1.33600869375000 -3.30273480312501 -1.60123869687500 
 N -0.334647693750001 -7.10720780312501 -2.71804669687500 
 N -2.38502069375000 -6.08133180312501 -3.79851969687500 
 N -3.09041769375000 -6.67751080312501 4.640430312500077E-002
 N -0.423166693750001 -3.59524580312500 -2.51469069687500 
 N -2.37420569375000 -2.29426580312500 -3.47015469687500 
 N -2.91767769375000 -2.77578880312501 0.347391303125001 
 S -0.866092693750001 -6.70252480312501 -4.23357669687500 
 S -3.79227569375000 -5.96485280312501 -1.30630769687500 
 S -1.54680069375000 -7.24472080312501 -0.169438696874999 
 S -0.883802693750001 -2.92494880312501 -3.97233969687500 
 S -3.73283469375000 -2.35086480312501 -1.04345169687500 
 S -1.44962869375000 -3.48529480312501 0.115688303125001 
