16

 C -2.33394894062500 -6.66020590937500 -2.49406069687500 
 C -1.13326894062500 -7.11335390937500 -1.84310269687500 
 C -2.37053294062500 -2.97356290937500 -2.47960769687500 
 C -1.24017194062500 -3.47718090937500 -1.84521269687500 
 N -0.118353940625004 -7.11173490937500 -2.67739069687500 
 N -2.21693794062500 -6.26813690937500 -3.74563069687500 
 N -2.92423794062500 -6.95003890937500 -1.556769687500048E-002
 N -0.198025940625004 -3.65501390937500 -2.60428669687500 
 N -2.19929994062500 -2.76461990937500 -3.78078069687500 
 N -3.05103994062500 -3.21966290937500 -6.343169687500039E-002
 S -0.616938940625005 -6.59515490937500 -4.14997769687500 
 S -3.66258094062500 -6.57746890937500 -1.44452669687500 
 S -1.32422294062500 -7.36761890937500 -0.170979696875000 
 S -0.661481940625005 -3.25034090937500 -4.12757469687500 
 S -3.72946494062500 -2.64641790937500 -1.47631669687500 
 S -1.48278694062500 -3.72326890937500 -0.151883696875001 
