16

 C -2.21015062812500 -6.27388363437500 -2.43260325000000 
 C -1.02817862812500 -6.80939963437500 -1.79301425000000 
 C -2.52934762812500 -3.14468863437500 -2.42943725000000 
 C -1.23950362812500 -3.22617063437500 -1.70590825000000 
 N -3.583762812500346E-002 -7.08378263437500 -2.64352825000000 
 N -2.18238962812500 -6.16142263437500 -3.77404725000000 
 N -2.90230162812500 -6.91562263437500 8.076974999999997E-002
 N -0.190725628125004 -3.21058763437500 -2.48771325000000 
 N -2.41200962812500 -3.04722363437500 -3.73013925000000 
 N -3.06424862812500 -2.69262263437500 9.140075000000003E-002
 S -0.673253628125003 -6.64830163437500 -4.16738225000000 
 S -3.57145562812500 -6.13098763437500 -1.25880825000000 
 S -1.30179762812500 -7.24914863437500 -0.104892250000000 
 S -0.766563628125004 -3.12755163437500 -4.09388725000000 
 S -3.90066462812500 -2.68430463437500 -1.39773525000000 
 S -1.40642762812500 -3.03172563437500 4.047875000000012E-002
