16

 C -2.34854700000000 -6.57632671250001 -2.15464112812500 
 C -1.13203600000000 -7.01562571250001 -1.59411312812500 
 C -2.24866400000000 -2.73317071250001 -2.67985512812500 
 C -1.07346200000000 -3.13527771250001 -1.94811112812500 
 N -0.127632000000000 -6.97522471250001 -2.43066412812500 
 N -2.24056800000000 -6.03172071250001 -3.34443612812500 
 N -2.88708500000000 -7.11246771250001 0.292372871874999 
 N 1.544499999999971E-002 -3.35791771250001 -2.71695912812500 
 N -2.12509200000000 -2.73354871250001 -4.00409812812500 
 N -2.86228900000000 -2.51337971250001 -0.144801128125001 
 S -0.738149000000000 -6.28524471250001 -3.82986512812500 
 S -3.65055600000000 -6.33840071250001 -1.06408912812500 
 S -1.27339700000000 -7.38734971250001 0.113458871874999 
 S -0.510226000000000 -3.05917771250001 -4.28312212812500 
 S -3.58795800000000 -2.34594771250001 -1.62433812812500 
 S -1.33353600000000 -3.24004671250001 -0.183758128125001 
