16

 C -2.26031181875000 -6.30950944687500 -2.43286773750000 
 C -1.09081981875000 -6.91028544687500 -1.79174873750000 
 C -2.28921081875000 -2.64369444687500 -2.43746473750000 
 C -1.09556081875000 -3.09322944687500 -1.73993473750000 
 N -0.122871818750004 -7.18238144687500 -2.67830573750000 
 N -2.12779281875000 -6.07716744687500 -3.72934273750000 
 N -2.89371781875000 -6.71564944687500 1.310626250000024E-002
 N -5.678081875000363E-002 -3.45572444687500 -2.50262673750000 
 N -2.05526281875000 -2.45442244687500 -3.72257273750000 
 N -3.03615681875000 -2.93045744687500 -2.134573749999968E-002
 S -0.671791818750004 -6.70485144687500 -4.17046873750000 
 S -3.69802381875000 -6.23096144687500 -1.34294073750000 
 S -1.26107481875000 -7.13982844687500 -8.450573749999979E-002
 S -0.504052818750004 -2.98789344687500 -4.01938973750000 
 S -3.73144481875000 -2.39842844687500 -1.43354973750000 
 S -1.36518881875000 -3.17841844687500 2.235726250000014E-002
