16

 C -2.66053506562499 -6.22207057187501 -2.65240331250000 
 C -1.39112506562499 -6.60448657187501 -2.06560831250000 
 C -2.46220706562499 -2.77998557187501 -2.48405531250000 
 C -1.25421906562499 -3.10552757187501 -1.85013531250000 
 N -0.353010065624991 -6.69150757187501 -2.88334031250000 
 N -2.53990106562499 -6.09450857187501 -3.96493331250000 
 N -3.26833406562499 -6.89505257187501 -0.324253312500002 
 N -0.237817065624990 -3.20643557187501 -2.67300431250000 
 N -2.37779706562499 -2.65813657187500 -3.79720831250000 
 N -2.89776406562499 -2.93840557187501 9.064268749999815E-002
 S -0.981818065624990 -6.31334257187501 -4.38510731250000 
 S -4.00964906562499 -6.22222257187501 -1.63728031250000 
 S -1.63893706562499 -6.93394357187501 -0.367130312500002 
 S -0.784318065624991 -3.00579457187500 -4.23440131250000 
 S -3.75383306562499 -2.68527257187501 -1.32136231250000 
 S -1.24657706562499 -3.15109057187501 -0.138600312500002 
