16

 C -2.41357817812500 -6.55346666562499 -2.37440552500000 
 C -1.21900017812500 -6.99233766562499 -1.73214252500000 
 C -2.20778717812500 -2.56612566562499 -2.15960752500000 
 C -1.10818917812500 -3.34264066562499 -1.69939352500000 
 N -0.163521178124999 -7.11907066562499 -2.55870452500000 
 N -2.25018417812500 -6.32187866562500 -3.69339752500000 
 N -2.99644717812500 -6.61796566562499 8.018347499999923E-002
 N -5.720017812499911E-002 -3.47918866562499 -2.52405652500000 
 N -1.94487617812500 -1.92369166562499 -3.28982752500000 
 N -2.84656517812500 -3.23098466562499 0.211862474999999 
 S -0.693859178125000 -6.69297566562499 -4.04063552500000 
 S -3.78111617812500 -6.37526466562499 -1.31754252500000 
 S -1.33625917812500 -7.07729666562499 -1.615250000006618E-004
 S -0.526638178124999 -2.57022866562499 -3.90427752500000 
 S -3.57310617812500 -2.57984166562500 -1.06055852500000 
 S -1.26634017812500 -3.72130566562499 -1.747525000000749E-003
