16

 C -2.29557855312500 -6.39543318124999 -2.46693250000000 
 C -1.15531355312500 -6.93897818124999 -1.72255350000000 
 C -2.58837455312500 -2.72792818124999 -2.57046550000000 
 C -1.36312355312500 -3.02714418124999 -1.91315550000000 
 N -0.133034553124999 -7.21078618124999 -2.51304650000000 
 N -2.13751255312500 -6.35401018124999 -3.79247150000000 
 N -2.97418355312500 -6.35408918124999 8.682350000000172E-002
 N -0.345438553124999 -3.15506018124999 -2.73754550000000 
 N -2.48125255312500 -2.53645718124999 -3.89925250000000 
 N -3.11335955312500 -2.90290918124999 -2.351249999999827E-002
 S -0.564676553124999 -6.91829118124999 -4.08487950000000 
 S -3.69899455312500 -6.02384618124999 -1.36004350000000 
 S -1.33572755312500 -6.78521518124999 -4.014999999981672E-004
 S -0.852035553124998 -2.77540218124999 -4.26851150000000 
 S -3.93668955312500 -2.65832118124999 -1.47800350000000 
 S -1.49197955312500 -3.06565418124999 -0.168288499999998 
