16

 C -2.56507973750000 -6.64950261875000 -2.30968383437500 
 C -1.30447173750000 -7.14179561875000 -1.71104783437500 
 C -2.47920373750000 -2.92636861875000 -2.36992583437500 
 C -1.21047973750000 -3.45914361875000 -1.89296683437500 
 N -0.299709737500002 -7.29740461875000 -2.59288883437500 
 N -2.44928873750000 -6.44086161875000 -3.62180683437500 
 N -3.12573073750000 -6.76875861875000 0.139095165625000 
 N -0.295081737500001 -3.70311861875000 -2.80051383437500 
 N -2.46340373750000 -2.67773661875000 -3.67265383437500 
 N -2.80410873750000 -3.34882661875000 0.145761165625000 
 S -0.952348737500001 -6.98002261875000 -4.09492083437500 
 S -3.93430873750000 -6.60491561875000 -1.27941283437500 
 S -1.53923873750000 -7.30201961875000 2.153916562500058E-002
 S -0.942305737500001 -3.17585761875000 -4.16580783437500 
 S -3.67726573750000 -2.72723961875000 -1.15044883437500 
 S -1.22702273750000 -3.69164761875000 -0.135669834375000 
