16

 C -2.50065272499999 -6.62834866250000 -2.33715946562500 
 C -1.19949972499999 -7.00613566250000 -1.78345246562500 
 C -2.15874672499999 -3.15409566250000 -2.24777146562500 
 C -0.968825724999993 -3.68582566250000 -1.66482646562500 
 N -0.259066724999993 -7.17732866250000 -2.67728346562500 
 N -2.46060172499999 -6.56000666250000 -3.66020046562500 
 N -2.83127072499999 -6.75061466250000 0.208094534375000 
 N 3.683827500000714E-002 -3.91131066250000 -2.53387346562500 
 N -2.09791272499999 -3.03954066250000 -3.60329646562500 
 N -2.77168072499999 -3.30840466250000 0.265755534375000 
 S -0.935009724999993 -7.03873666250000 -4.15462446562500 
 S -3.75125672499999 -6.38279766250000 -1.14026346562500 
 S -1.21288372499999 -7.01432866250000 -5.884446562500001E-002
 S -0.565917724999993 -3.54804166250000 -3.97144946562500 
 S -3.51186372499999 -3.03781766250000 -1.21061646562500 
 S -1.15458372499999 -3.70369366250000 0.123459534375000 
