16

 C -2.56120949062500 -6.65050512500000 -2.30876085312500 
 C -1.30400749062500 -7.14148012500000 -1.70661485312500 
 C -2.47877149062500 -2.93198612500000 -2.37239385312500 
 C -1.20728749062500 -3.45429312500000 -1.89331885312500 
 N -0.308002490625005 -7.29509312500000 -2.59727585312500 
 N -2.44943349062500 -6.44133412500000 -3.61662085312500 
 N -3.12728849062500 -6.76930312500000 0.137309146875001 
 N -0.293238490625005 -3.70416612500000 -2.81043385312500 
 N -2.46349349062501 -2.68159412500000 -3.66637885312500 
 N -2.79928349062500 -3.34780912500000 0.143861146875000 
 S -0.953453490625005 -6.98463312500000 -4.09765585312500 
 S -3.93276349062500 -6.60429012500000 -1.27781985312500 
 S -1.53685249062501 -7.30071812500000 2.134614687500047E-002
 S -0.940588490625005 -3.17728912500000 -4.16270285312500 
 S -3.67392649062500 -2.72872012500000 -1.15036785312500 
 S -1.22893449062500 -3.69792912500000 -0.136295853125000 
