16

 C -2.34946266875001 -6.63244930312500 -2.21037929375000 
 C -1.09292766875001 -7.03279730312500 -1.63865129375000 
 C -2.37878966875001 -2.83706230312500 -2.46104429375000 
 C -1.15743266875001 -3.12013630312500 -1.70053629375000 
 N -7.995366875000798E-002 -7.11971230312500 -2.51976629375000 
 N -2.26646866875001 -6.34745630312500 -3.48492629375000 
 N -2.91509766875001 -6.96328630312500 0.224861706249999 
 N -0.135014668750008 -3.33471230312500 -2.54723029375000 
 N -2.16613166875001 -2.68452830312500 -3.77064329375000 
 N -3.09932766875001 -3.03082330312500 3.989070624999935E-002
 S -0.701358668750008 -6.71473030312500 -4.02873229375000 
 S -3.74987066875001 -6.69841430312499 -1.14175929375000 
 S -1.25083966875001 -7.32861030312500 0.119154706249999 
 S -0.624667668750008 -3.08593330312500 -4.14722229375000 
 S -3.75172666875001 -2.61733830312500 -1.41564829375000 
 S -1.38757866875001 -3.11481030312500 3.845270624999930E-002
