16

 C -2.20298035312500 -6.39732677187500 -2.39961348125000 
 C -0.978447353125001 -6.84154877187500 -1.80515348125000 
 C -2.56453535312500 -2.92680277187500 -2.56767348125000 
 C -1.39099635312500 -3.36631477187500 -1.82333148125000 
 N 3.407564687499853E-002 -6.94977277187500 -2.67963048125000 
 N -2.10414335312500 -6.22501477187500 -3.72759748125000 
 N -2.74137735312500 -6.78081777187500 0.100508518749999 
 N -0.291025353125002 -3.59758277187500 -2.55517048125000 
 N -2.31481735312500 -2.68264777187500 -3.84918548125000 
 N -3.31207135312500 -2.89472877187500 -6.725148125000158E-002
 S -0.554669353125002 -6.53267477187500 -4.17467948125000 
 S -3.58260435312500 -6.35451977187500 -1.27154448125000 
 S -1.12176335312500 -6.91408677187500 -8.950648125000149E-002
 S -0.787737353125001 -3.16885677187500 -4.09093048125000 
 S -3.94634335312500 -2.42427977187500 -1.56980248125000 
 S -1.70484735312500 -3.31089177187500 -0.118063481250002 
