16

 C -2.31840459375000 -6.30949780312500 -2.52511710000000 
 C -1.06920459375000 -6.59306080312500 -1.84925110000000 
 C -2.53342859375000 -2.47821980312500 -2.71033510000000 
 C -1.49194059375000 -3.18501380312500 -1.96936610000000 
 N 1.414062499982549E-004 -6.86431680312500 -2.63364510000000 
 N -2.20609059375000 -6.27258480312500 -3.85594610000000 
 N -2.94359259375000 -6.64927880312500 -5.024309999999921E-002
 N -0.338839593750002 -3.22125380312500 -2.59408010000000 
 N -2.16183259375000 -2.04997780312500 -3.89214910000000 
 N -3.41920359375000 -2.66722480312500 -0.335160099999999 
 S -0.642369593750002 -6.63512180312500 -4.14426910000000 
 S -3.69707059375000 -6.38910280312500 -1.54186910000000 
 S -1.32838159375000 -6.74123680312500 -9.641509999999909E-002
 S -0.587112593750002 -2.58164080312500 -4.13434510000000 
 S -4.01582859375000 -2.02381580312500 -1.76981010000000 
 S -1.94422059375000 -3.41232280312500 -0.292868099999999 
