16

 C -2.28317440000000 -6.37944026562501 -2.37503043125000 
 C -1.15010040000000 -6.97417126562501 -1.76779943125000 
 C -2.51304240000000 -3.07812826562501 -2.34921743125000 
 C -1.19522540000000 -3.23216526562501 -1.70127443125000 
 N -0.188744399999996 -7.20146026562501 -2.60653143125000 
 N -2.16130440000000 -6.11000826562501 -3.64788843125000 
 N -2.85432040000000 -6.97602926562501 3.171256874999728E-002
 N -0.171975399999996 -3.27002826562501 -2.53798743125000 
 N -2.39977840000000 -3.11107126562501 -3.65633643125000 
 N -2.96182840000000 -2.67784226562501 0.126132568749997 
 S -0.629975399999997 -6.68470326562501 -4.10272443125000 
 S -3.58851040000000 -6.14158026562501 -1.24449143125000 
 S -1.23201040000000 -7.23812326562501 -0.114837431250003 
 S -0.828099399999997 -3.17987626562501 -4.04335743125000 
 S -3.84288840000000 -2.72446926562501 -1.26611243125000 
 S -1.32858140000000 -3.06268626562501 1.049456874999732E-002
