16

 C -2.38710672812500 -6.51629196562500 -2.55385220312500 
 C -1.17190472812501 -6.96797396562500 -1.90029620312500 
 C -2.65117172812500 -2.56164696562500 -2.26870520312500 
 C -1.54746272812501 -3.21391396562500 -1.68046020312500 
 N -0.190963728125005 -7.10913696562500 -2.76142220312500 
 N -2.31022972812501 -6.30713696562500 -3.86322120312500 
 N -2.92659272812501 -6.82554596562500 -6.225320312499893E-002
 N -0.532518728125005 -3.46697396562500 -2.48740920312500 
 N -2.48447972812501 -2.41709996562500 -3.57680920312500 
 N -3.30118772812501 -2.87388396562500 0.109626796875001 
 S -0.706179728125005 -6.63262096562500 -4.29062320312500 
 S -3.73464772812500 -6.33484996562500 -1.49831120312500 
 S -1.32271772812500 -7.14421296562500 -0.201207203124999 
 S -0.981356728125005 -2.94314496562500 -3.99666420312500 
 S -3.98653272812500 -2.20630196562500 -1.25416220312500 
 S -1.76261272812500 -3.34342796562500 4.552579687500113E-002
