16

 C -2.37324361250001 -6.97679707499999 -2.40543508750000 
 C -1.19213561250001 -7.36285707499999 -1.67638108750000 
 C -2.71271761250001 -2.79444307499999 -2.36147208750000 
 C -1.63994861250001 -3.58414307499999 -1.77467208750000 
 N -0.101424612500007 -7.49377607499999 -2.42191008750000 
 N -2.11850961250001 -6.80934707499999 -3.67424008750000 
 N -2.97078261250001 -6.79246007499999 3.339391250000068E-002
 N -0.761816612500007 -3.93361407499999 -2.69863008750000 
 N -2.58094061250001 -2.54173307499999 -3.65670608750000 
 N -3.21788361250001 -2.99663507499999 0.166242912500001 
 S -0.545889612500007 -7.08253407499999 -3.97919408750000 
 S -3.64356461250001 -6.49889707499999 -1.43621608750000 
 S -1.43916361250001 -7.48656807499999 3.274591250000070E-002
 S -1.24320461250001 -3.37175307499999 -4.17157508750000 
 S -3.93705161250001 -2.32874807499999 -1.17874908750000 
 S -1.79496861250001 -3.80440807499999 -3.939087499999383E-003
