16

 C -2.29541713437501 -6.46723887500000 -2.18615748750000 
 C -1.11077313437501 -7.02739587500000 -1.50957548750000 
 C -2.41690713437501 -2.71709487500000 -2.37833248750000 
 C -1.15387413437501 -3.15466287500000 -1.70388248750000 
 N -3.304313437500639E-002 -7.22788987500000 -2.29605048750000 
 N -2.13203413437501 -6.29020887500000 -3.50246348750000 
 N -3.03559613437501 -6.75133787500000 0.256538512499999 
 N -0.154072134375006 -3.25072487500000 -2.54345448750000 
 N -2.27784613437501 -2.38265287500000 -3.66501148750000 
 N -2.95955613437501 -3.17295687500000 0.149039512499999 
 S -0.544407134375007 -6.76813287500000 -3.84840148750000 
 S -3.68075313437501 -6.26529287500000 -1.21607548750000 
 S -1.43223713437501 -7.23014587500000 0.278647512499999 
 S -0.670662134375006 -2.68324587500000 -4.04622648750000 
 S -3.78972913437501 -2.66891587500000 -1.24260848750000 
 S -1.38086313437501 -3.68964787500000 -6.226648750000097E-002
