16

 C -2.32613912500000 -6.63156082187500 -2.27255994375000 
 C -1.08551412500000 -7.01559182187500 -1.65858594375000 
 C -2.32468412500000 -2.80430582187500 -2.45152294375000 
 C -1.15154912500000 -3.13773282187500 -1.74339194375000 
 N -5.759312500000391E-002 -7.05535082187500 -2.50463994375000 
 N -2.27526112500000 -6.36734282187500 -3.57014394375000 
 N -2.92131312500000 -7.04350282187500 0.248303056249999 
 N -7.212612500000404E-002 -3.32418282187500 -2.50047794375000 
 N -2.21646012500000 -2.74142582187500 -3.77743194375000 
 N -3.06213712500000 -2.93746682187500 2.971305624999943E-002
 S -0.723718125000004 -6.64786582187500 -4.02821294375000 
 S -3.72748812500000 -6.65276082187500 -1.21429394375000 
 S -1.26193912500000 -7.30761782187500 5.448105624999933E-002
 S -0.560138125000004 -3.07760782187500 -4.06267094375000 
 S -3.76465012500000 -2.56555082187500 -1.47524594375000 
 S -1.44626512500000 -3.12889082187500 4.999405624999942E-002
