16

 C -2.49656580000001 -6.60494855312500 -2.11801364062500 
 C -1.24227980000000 -7.21964855312500 -1.69648064062500 
 C -2.43946480000000 -2.76954155312500 -2.47734964062500 
 C -1.28138080000001 -3.28968255312500 -1.82759164062500 
 N -0.289508800000005 -7.20439655312500 -2.61581364062500 
 N -2.55028280000001 -6.30233455312500 -3.40186464062500 
 N -2.85625480000000 -7.00344555312500 0.397780359375000 
 N -0.199503800000005 -3.57436155312500 -2.60099364062500 
 N -2.36544280000000 -2.70049755312500 -3.80235564062500 
 N -3.15057680000000 -3.05126255312500 7.463593750001163E-004
 S -1.03297380000001 -6.61676355312500 -4.00031264062500 
 S -3.66563980000001 -6.37226955312500 -0.904685640625000 
 S -1.27140180000000 -7.51241655312500 5.613735937500008E-002
 S -0.805281800000005 -3.16022855312500 -4.10405464062500 
 S -3.73731480000001 -2.32008455312500 -1.36177164062500 
 S -1.56482480000000 -3.60127355312500 -0.114049640625000 
