16

 C -2.41511225625001 -6.59142396874999 -2.43980774375000 
 C -1.22560425625001 -7.20239496874999 -1.87292474375000 
 C -2.72630925625001 -2.81512196874999 -2.57428674375000 
 C -1.60953125625001 -3.31843596874999 -1.82748674375000 
 N -0.185777256250006 -7.28013696874999 -2.72807574375000 
 N -2.27689725625001 -6.25111796874999 -3.71468974375000 
 N -2.98085525625001 -6.93314196874999 0.118989256250002 
 N -0.578553256250006 -3.61387596874999 -2.57652574375000 
 N -2.50721425625001 -2.56036596874999 -3.85036774375000 
 N -3.45058325625001 -3.07236896874999 -0.115306743749998 
 S -0.777996256250006 -6.73635996874999 -4.18573574375000 
 S -3.73593025625001 -6.42836096874999 -1.25266574375000 
 S -1.48103525625001 -7.53495296874999 -0.158151743749998 
 S -0.925993256250006 -3.19536596874999 -4.10357974375000 
 S -4.06201325625001 -2.51957396874999 -1.55310174375000 
 S -1.82719825625001 -3.49289196874999 -0.155874743749998 
