16

 C -2.23733656875000 -6.10423605000001 -2.23413777187500 
 C -1.06357856875000 -6.77283905000001 -1.68487477187500 
 C -2.72336056875000 -2.36320405000001 -2.66235177187500 
 C -1.49405056875000 -2.82230005000001 -2.03362577187500 
 N -0.165889568750000 -6.98988605000001 -2.62630777187500 
 N -2.20306656875000 -5.88908105000001 -3.54203177187500 
 N -2.69733156875000 -6.37468505000001 0.275800228125000 
 N -0.483784568750000 -3.02052805000001 -2.89650677187500 
 N -2.63112356875000 -2.31804505000001 -4.00678277187500 
 N -3.22706156875000 -2.45187705000001 -0.182972771874999 
 S -0.759892568750000 -6.47510805000001 -4.09070277187500 
 S -3.44089856875000 -5.73642605000001 -1.04469477187500 
 S -1.13295056875000 -6.99809905000001 6.706622812500052E-002
 S -1.08876156875000 -2.76774205000001 -4.49894177187500 
 S -4.05017956875000 -2.12809205000001 -1.56844377187500 
 S -1.61867656875000 -2.81913805000001 -0.304298771875000 
