16

 C -2.38059497500001 -6.58046980937500 -2.50556566875000 
 C -1.11388397500001 -7.03665780937500 -1.92383066875000 
 C -2.36162397500001 -2.88660580937500 -2.49848966875000 
 C -1.29841997500001 -3.53638580937500 -1.81870766875000 
 N -0.121627975000007 -7.10634780937500 -2.78979366875000 
 N -2.27737497500001 -6.29590880937500 -3.81565266875000 
 N -2.83962797500001 -7.10469180937500 2.446331249999378E-003
 N -0.248901975000007 -3.85110780937500 -2.53042166875000 
 N -2.17626697500001 -2.70045180937500 -3.79506766875000 
 N -3.12561297500001 -3.16356680937500 -5.419666875000062E-002
 S -0.705231975000007 -6.58128380937500 -4.22388566875000 
 S -3.74626397500001 -6.67877980937500 -1.30267566875000 
 S -1.17106997500001 -7.35759480937500 -0.237751668750001 
 S -0.662954975000007 -3.27937180937500 -4.12653266875000 
 S -3.78101597500001 -2.69946880937500 -1.47344666875000 
 S -1.51735697500001 -3.70664280937500 -8.467866875000074E-002
