16

 C -2.38508122812499 -6.27868638437500 -2.19850880000000 
 C -1.19948122812499 -6.90229638437500 -1.66227180000000 
 C -2.42213322812499 -2.74173138437500 -2.58994980000000 
 C -1.18393722812499 -3.03116138437500 -1.96854380000000 
 N -0.188948228124993 -7.00499438437500 -2.49306380000000 
 N -2.21091422812499 -5.98766838437500 -3.46045080000000 
 N -2.86522922812499 -6.92917238437500 0.195977199999999 
 N -0.161201228124994 -2.99896438437500 -2.79869280000000 
 N -2.36479322812499 -2.51258738437500 -3.89952380000000 
 N -2.95912422812499 -3.10695338437500 -5.660080000000067E-002
 S -0.686416228124994 -6.36664338437500 -3.95677780000000 
 S -3.68574922812499 -6.11884038437500 -1.12209380000000 
 S -1.24097922812499 -7.06073638437500 2.673319999999935E-002
 S -0.764083228124994 -2.61425338437500 -4.24027980000000 
 S -3.77887422812499 -2.81477338437500 -1.44941380000000 
 S -1.32606022812499 -3.40242038437500 -0.325451800000001 
