16

 C -2.59209051250000 -6.31070029375000 -2.47774420000000 
 C -1.38995551250000 -6.95631929375000 -1.94787320000000 
 C -2.64401651250000 -2.86670229375000 -2.35919620000000 
 C -1.46551951250000 -3.24133029375000 -1.60848720000000 
 N -0.423416512500001 -7.12768329375000 -2.82547320000000 
 N -2.56196451250000 -6.08104329375000 -3.78989620000000 
 N -2.94730251250000 -6.74430429375000 6.706079999999925E-002
 N -0.429656512500001 -3.58419229375000 -2.38862720000000 
 N -2.48462551250000 -3.03705729375000 -3.67170820000000 
 N -3.26244851250000 -2.73862129375000 7.663279999999917E-002
 S -1.07688451250000 -6.67638729375000 -4.26225920000000 
 S -3.78871151250000 -6.01146129375000 -1.20412520000000 
 S -1.43757451250000 -7.22941829375000 -0.276525200000001 
 S -0.922356512500001 -3.41037029375000 -3.96439320000000 
 S -4.04154551250000 -2.52930229375000 -1.41487420000000 
 S -1.76857351250000 -3.46373329375000 0.102105799999999 
