16

 C -2.55932283750000 -6.29054026875000 -2.35573272500000 
 C -1.42672883750000 -6.82212426875000 -1.67551172500000 
 C -2.53047183750000 -3.06167826875000 -2.40731172500000 
 C -1.26091083750000 -3.26963626875000 -1.79794272500000 
 N -0.564014837499997 -7.31691226875000 -2.54932172500000 
 N -2.53156283750000 -6.28340826875000 -3.69324472500000 
 N -3.22321283750000 -6.41363326875000 0.120380275000000 
 N -0.203940837499997 -3.38810026875000 -2.59776972500000 
 N -2.47044083750000 -3.08481926875000 -3.72370472500000 
 N -2.84335083750000 -3.04691526875000 0.186287275000000 
 S -1.13514183750000 -7.00253726875000 -4.06254672500000 
 S -3.97800783750000 -6.05183526875000 -1.31941472500000 
 S -1.57683783750000 -6.85358526875000 2.460227500000012E-002
 S -0.866719837499996 -3.17312826875000 -4.14508272500000 
 S -3.75996683750000 -3.23544626875000 -1.17991472500000 
 S -1.23909383750000 -3.23002726875000 -5.677272499999986E-002
