16

 C -2.27297894375000 -6.48328478750000 -2.57459535000000 
 C -1.06936194375000 -6.99585978750000 -1.98549835000000 
 C -2.68520894375000 -2.46374278750000 -2.35250135000000 
 C -1.53319394375000 -2.92304278750000 -1.64597235000000 
 N -5.285294375000227E-002 -7.26579678750000 -2.80274035000000 
 N -2.13394394375000 -6.26846678750000 -3.86894235000000 
 N -2.80300394375000 -6.46784378750000 -0.103162349999999 
 N -0.455402943750002 -3.22503478750000 -2.36556435000000 
 N -2.59988794375000 -2.56021178750000 -3.68485835000000 
 N -3.43880794375000 -2.81463678750000 0.122754650000001 
 S -0.599339943750002 -6.78232378750000 -4.33221435000000 
 S -3.58241694375000 -6.10487378750000 -1.54163135000000 
 S -1.22824294375000 -6.96966378750000 -0.230343349999999 
 S -1.01213794375000 -2.94885978750000 -3.96384435000000 
 S -4.15810994375000 -2.20118578750000 -1.29921535000000 
 S -1.81286794375000 -3.09507878750000 9.495765000000067E-002
