16

 C -2.28784154687501 -6.34589337812499 -2.43502156250000 
 C -1.10532254687500 -6.84289937812500 -1.74368256250000 
 C -2.81011054687500 -2.57347137812499 -2.48760456250000 
 C -1.54130854687500 -2.81094637812499 -1.84583656250000 
 N -1.611546875005310E-003 -7.00112937812500 -2.48162356250000 
 N -2.00217654687501 -6.14694837812500 -3.72841956250000 
 N -2.92305354687501 -6.53250537812499 5.630143750000105E-002
 N -0.521111546875005 -2.90487437812499 -2.69952756250000 
 N -2.67105654687500 -2.31095337812499 -3.79977356250000 
 N -3.33578054687501 -2.89227037812500 -3.422356249999892E-002
 S -0.433667546875005 -6.57908037812500 -4.02458856250000 
 S -3.67008254687500 -6.17179537812500 -1.40066156250000 
 S -1.38667654687501 -7.07043537812500 -5.898156249999920E-002
 S -1.08722454687500 -2.47667637812499 -4.26411756250000 
 S -4.15307654687500 -2.47620237812500 -1.39189656250000 
 S -1.67710454687500 -2.96840237812500 -0.105088562499999 
