16

 C -2.45519302812499 -6.51404802812500 -2.42429362187500 
 C -1.34945102812499 -7.08711102812500 -1.68408462187500 
 C -2.27612602812499 -2.72833702812500 -2.54892462187500 
 C -1.15025902812499 -3.31414902812500 -1.90373962187500 
 N -0.259454028124994 -7.42147702812500 -2.41715062187500 
 N -2.26125002812499 -6.43506302812500 -3.75642762187500 
 N -3.31201002812499 -6.62630702812500 3.804378124999674E-003
 N -8.342102812499430E-002 -3.52515202812500 -2.66041362187500 
 N -2.17420202812499 -2.50683702812500 -3.87861162187500 
 N -2.96899602812499 -3.00259902812500 -1.859462187500038E-002
 S -0.726836028124993 -6.95575902812500 -3.99540962187500 
 S -3.84545702812499 -6.06707102812500 -1.46510262187500 
 S -1.76746002812499 -7.08632702812500 4.525137812499969E-002
 S -0.606623028124994 -2.99711602812500 -4.18876262187500 
 S -3.67750402812499 -2.70439002812500 -1.48308162187500 
 S -1.42601802812499 -3.40173802812500 -0.138028621875000 
