16

 C -2.32173472187500 -6.29170048437500 -2.57773477812500 
 C -1.04508172187500 -6.65455548437500 -1.99164477812500 
 C -2.78303772187500 -2.77345248437500 -2.30223477812500 
 C -1.57763072187500 -3.11795848437500 -1.66233177812500 
 N -2.949772187500166E-002 -6.87391948437500 -2.81270277812500 
 N -2.27516972187500 -6.34801448437500 -3.88076377812500 
 N -2.78159472187500 -6.39770648437500 -5.833577812500157E-002
 N -0.559924721875002 -3.38948148437500 -2.49440977812500 
 N -2.72870672187500 -2.75373548437500 -3.63254577812500 
 N -3.36984372187500 -2.80839948437500 0.191419221874999 
 S -0.722983721875002 -6.82957748437500 -4.33697377812500 
 S -3.63732272187500 -6.04514448437500 -1.44859377812500 
 S -1.14830172187500 -6.79617048437500 -0.260435778125001 
 S -1.10409872187500 -2.99191348437500 -4.02220677812500 
 S -4.14203172187500 -2.39492348437500 -1.25855777812500 
 S -1.73588072187500 -3.16841448437500 5.857822187499861E-002
