16

 C -2.76954207187499 -6.44069058437500 -2.71529431875000 
 C -1.55454707187499 -6.79493458437500 -2.06220031875000 
 C -2.36391107187499 -2.85006958437500 -2.35579131875000 
 C -1.07704907187499 -3.20143858437500 -1.79128531875000 
 N -0.463994071874994 -6.73792858437500 -2.80873731875000 
 N -2.56002907187499 -6.07005858437500 -3.99455131875000 
 N -3.32340307187499 -6.83848258437500 -0.223169318750001 
 N -0.142951071874994 -3.31444358437500 -2.73156131875000 
 N -2.39099807187499 -2.81622758437500 -3.67765631875000 
 N -2.79109207187499 -2.98069658437500 0.144097681249999 
 S -0.959009071874994 -6.29820258437500 -4.32802931875000 
 S -4.09233107187499 -6.27453658437500 -1.60371831875000 
 S -1.67913007187499 -7.07417858437500 -0.342614318750001 
 S -0.837815071874994 -2.98513958437500 -4.22664031875000 
 S -3.63435907187499 -2.66621958437500 -1.24921131875000 
 S -1.14027507187499 -3.31501558437500 -0.109840318750001 
