16

 C -2.39863788750000 -6.28043472187500 -2.34969948750000 
 C -1.27694088750000 -6.84831272187500 -1.67373748750000 
 C -2.41775588750000 -2.32364772187500 -2.46813248750000 
 C -1.23300288750000 -2.86321772187500 -1.84522448750000 
 N -0.212787887499997 -7.14259472187500 -2.41151548750000 
 N -2.22114188750000 -6.13719272187500 -3.66078548750000 
 N -3.14257188750000 -6.59423872187500 9.335151250000107E-002
 N -0.237868887499997 -3.17988072187500 -2.68161748750000 
 N -2.23746388750000 -2.13852072187500 -3.77643648750000 
 N -2.95755688750000 -2.38547372187500 -6.194487499998846E-003
 S -0.639455887499997 -6.57184472187500 -3.96046548750000 
 S -3.77387288750000 -5.95093672187500 -1.26239948750000 
 S -1.60039588750000 -7.22706872187500 -1.364948749999906E-002
 S -0.757473887499997 -2.73557572187500 -4.22184648750000 
 S -3.68761888750000 -1.86324172187500 -1.42538248750000 
 S -1.42944488750000 -2.98795272187500 -0.106113487499999 
