16

 C -2.19204870625000 -6.20731091875000 -2.55597441250000 
 C -1.03993470625000 -6.71812391875000 -1.83082641250000 
 C -2.37111770625000 -2.86783391875000 -2.52850241250000 
 C -1.13627170625000 -3.25754291875000 -1.87559741250000 
 N 4.360329374999594E-002 -6.96354791875000 -2.55511441250000 
 N -2.02693670625000 -6.17491791875000 -3.87085541250000 
 N -3.01534070625000 -6.53349191875000 -0.172372412500000 
 N -0.119208706250004 -3.41888691875000 -2.71861341250000 
 N -2.30714170625000 -2.65974891875000 -3.85149341250000 
 N -2.78891770625000 -2.87331391875000 2.636558750000040E-002
 S -0.438475706250004 -6.59217091875000 -4.15345741250000 
 S -3.56037070625000 -5.90459991875000 -1.58709041250000 
 S -1.36178970625000 -6.73301191875000 -0.107187412500000 
 S -0.733894706250005 -3.07277591875000 -4.22228941250000 
 S -3.67746470625000 -2.79098891875000 -1.32280641250000 
 S -1.16616270625000 -3.28317891875000 -0.132844412499999 
