16

 C -2.42846671562499 -6.28431056562500 -2.30502217187500 
 C -1.18335371562499 -6.70309856562500 -1.66433317187500 
 C -2.46686071562499 -2.52822156562500 -2.87845817187500 
 C -1.18735071562499 -2.74084556562500 -2.20587517187500 
 N -0.174743715624992 -6.72495556562500 -2.54846417187500 
 N -2.43784071562499 -6.06270156562500 -3.63127017187500 
 N -3.02167071562499 -6.91161456562500 0.146683828125002 
 N -0.135732715624992 -2.86356456562500 -3.00577217187500 
 N -2.37400771562499 -2.48856456562500 -4.17068817187500 
 N -3.12727971562499 -2.89462956562500 -0.409996171874998 
 S -0.885390715624992 -6.37486756562500 -4.00579017187500 
 S -3.85209771562499 -6.35614356562500 -1.25132917187500 
 S -1.36866071562499 -6.95264256562500 3.599682812500204E-002
 S -0.746248715624993 -2.57221856562500 -4.58787217187500 
 S -3.88352871562499 -2.57557856562500 -1.88963717187500 
 S -1.39371371562499 -3.09008656562500 -0.450242171874998 
