16

 C -2.31471372812500 -7.01542689062499 -2.45170447812500 
 C -1.18924272812500 -7.46114589062500 -1.65892747812500 
 C -2.84200172812500 -2.88101089062499 -2.34697847812500 
 C -1.68700172812500 -3.60880189062499 -1.77752047812500 
 N -9.497072812500118E-002 -7.50157589062499 -2.43425047812500 
 N -2.17528272812500 -6.81645989062500 -3.76780947812500 
 N -2.97349872812500 -6.76288889062500 6.483852187500005E-002
 N -0.693177728125001 -3.93196189062500 -2.64488847812500 
 N -2.67371572812500 -2.61070789062499 -3.65582747812500 
 N -3.32340372812500 -3.09788289062500 0.167716521875000 
 S -0.525403728125001 -7.07544789062499 -3.97249847812500 
 S -3.66157472812500 -6.48727889062499 -1.43926547812500 
 S -1.39992472812500 -7.43213789062500 7.619752187499995E-002
 S -1.28155772812500 -3.43087789062499 -4.17868247812500 
 S -4.07699172812500 -2.43903189062500 -1.20858747812500 
 S -1.78726572812500 -3.80981589062500 -1.278147812499997E-002
