16

 C -2.62516689062500 -6.32725619375000 -2.24658235312500 
 C -1.39512389062499 -6.91687419375000 -1.74528935312500 
 C -2.37107489062500 -2.61869619375000 -2.45926235312500 
 C -1.20695689062500 -3.21475719375000 -1.86787435312500 
 N -0.456778890624995 -7.17918419375000 -2.64583235312500 
 N -2.56430989062499 -6.05018119375000 -3.52117135312500 
 N -3.08717589062500 -6.72350719375000 0.243386646875001 
 N -0.167814890624995 -3.39703519375000 -2.69676535312500 
 N -2.18611789062500 -2.31052919375000 -3.72069935312500 
 N -2.92804889062500 -3.00598019375000 3.847646875000610E-003
 S -1.06932689062500 -6.49382419375000 -4.08781635312500 
 S -3.90550989062500 -6.11324619375000 -1.11196935312500 
 S -1.54094689062500 -7.25307519375000 -2.656335312499936E-002
 S -0.651847890624995 -2.80177519375000 -4.17672735312500 
 S -3.68376989062499 -2.42378119375000 -1.34051435312500 
 S -1.29745389062500 -3.37105419375000 -0.150196353125000 
