16

 C -2.44083783125001 -6.10226700000000 -2.19265966250000 
 C -1.22708283125001 -6.65302900000000 -1.62028766250000 
 C -2.55357383125001 -2.46342000000000 -2.52536666250000 
 C -1.33420483125001 -2.99385600000000 -1.84933266250000 
 N -0.284268831250013 -6.92361600000000 -2.53312866250000 
 N -2.42902483125001 -5.86730400000000 -3.50783266250000 
 N -2.92857083125001 -6.30767100000000 0.310403337500001 
 N -0.323413831250012 -3.26844400000000 -2.65754566250000 
 N -2.43246783125001 -2.33377000000000 -3.82289966250000 
 N -3.07823783125001 -2.44392500000000 -1.488566249999934E-002
 S -0.944363831250013 -6.44866900000000 -4.00218966250000 
 S -3.73557383125001 -5.87822000000000 -1.07398766250000 
 S -1.30038683125001 -6.85085400000000 0.110409337500001 
 S -0.901816831250013 -2.84955100000000 -4.12589266250000 
 S -3.83834083125001 -2.20149900000000 -1.44155566250000 
 S -1.45857383125001 -2.96568300000000 -0.128950662499999 
