16

 C -2.59988466562499 -6.52373105937501 -2.36091899062500 
 C -1.32971166562499 -6.83644105937501 -1.75373999062500 
 C -2.20291266562499 -3.00013205937501 -2.32522599062500 
 C -0.986136665624994 -3.56155305937501 -1.67067399062500 
 N -0.345589665624995 -7.09284105937501 -2.58110599062500 
 N -2.50471466562499 -6.40237105937500 -3.67177299062500 
 N -2.97138966562499 -6.54769305937501 0.239534009374999 
 N 7.393833437500508E-002 -3.54023805937501 -2.47867299062500 
 N -1.98871866562499 -2.67100705937501 -3.57566299062500 
 N -2.83352266562499 -3.36496605937501 0.109534009374999 
 S -0.921930665624995 -6.79424705937501 -4.07893599062500 
 S -3.83780366562499 -6.27548705937501 -1.21606499062500 
 S -1.37360966562499 -7.03366505937501 2.483400937499947E-002
 S -0.420864665624994 -3.02248405937501 -3.96727499062500 
 S -3.56621166562499 -2.81093205937501 -1.29743699062500 
 S -1.32278066562499 -3.93620405937501 -4.818199062500050E-002
