16

 C -2.40348914375001 -6.37734677500000 -2.32102104062500 
 C -1.08884714375001 -6.75141977500000 -1.73458404062500 
 C -2.53765414375001 -2.71726077500000 -2.41270604062500 
 C -1.44714414375001 -3.39420477500000 -1.74014704062500 
 N -0.139915143750006 -6.94448077500000 -2.66731204062500 
 N -2.36772114375001 -6.08940477500000 -3.60058404062500 
 N -2.87609014375001 -6.75534277500000 0.177473959374999 
 N -0.398952143750006 -3.70452577500000 -2.51382804062500 
 N -2.26175914375001 -2.44745477500000 -3.68299004062500 
 N -3.30705414375001 -2.91842877500000 -1.725904062500061E-002
 S -0.839889143750006 -6.50657677500000 -4.10137604062500 
 S -3.66598214375001 -6.47073577500000 -1.23699504062500 
 S -1.28654114375001 -7.21658377500000 -1.965304062500062E-002
 S -0.762721143750007 -3.12582177500000 -4.01098204062500 
 S -4.01234714375001 -2.57787677500000 -1.45862304062500 
 S -1.74963014375001 -3.58521077500000 -7.386304062500049E-002
