16

 C -2.35121916562499 -6.22157609687500 -2.35409771250000 
 C -1.16147016562499 -6.82627209687500 -1.85465171250000 
 C -2.51971116562499 -2.44899609687500 -2.49420471250000 
 C -1.40169916562499 -3.14255409687500 -1.83296571250000 
 N -0.112098165624994 -6.93738309687500 -2.69206671250000 
 N -2.28383216562499 -5.96468309687500 -3.67159771250000 
 N -2.90153616562499 -6.74405809687500 0.151718287499998 
 N -0.449074165624994 -3.65695009687500 -2.63534271250000 
 N -2.36963216562499 -2.33848809687500 -3.80653771250000 
 N -3.16224416562499 -2.44335309687500 3.693228749999866E-002
 S -0.758004165624994 -6.45222009687500 -4.17185671250000 
 S -3.62806516562499 -6.00606609687500 -1.19255371250000 
 S -1.30214816562499 -7.04927609687500 -9.887971250000138E-002
 S -0.909911165624995 -3.06679409687500 -4.12989571250000 
 S -3.90474716562499 -2.09462609687500 -1.39593371250000 
 S -1.65804116562499 -3.15848509687500 -7.480071250000142E-002
