16

 C -2.38884583437500 -6.64531545937499 -2.24696116562500 
 C -1.12402183437500 -6.77913845937499 -1.60716316562500 
 C -2.32024983437500 -2.71974545937499 -2.55807616562500 
 C -1.03314683437500 -3.15304545937499 -2.00909816562500 
 N -7.307883437499907E-002 -6.75266945937499 -2.43844016562500 
 N -2.33482883437500 -6.58466545937499 -3.56842716562500 
 N -2.98340283437500 -6.95407045937499 0.268207834375000 
 N -8.806883437499913E-002 -3.39433045937499 -2.92545516562500 
 N -2.32623083437500 -2.61462745937499 -3.87195216562500 
 N -2.67134883437500 -2.88426745937499 1.229583437499970E-002
 S -0.729154834374999 -6.58820845937499 -3.98190816562500 
 S -3.82934683437500 -6.65815345937499 -1.19410516562500 
 S -1.34704383437500 -7.06849045937499 0.192070834375000 
 S -0.855104834374999 -3.02817045937499 -4.42773216562500 
 S -3.58300783437500 -2.40799645937499 -1.29908916562500 
 S -1.16154183437500 -3.47172245937499 -0.208987165625000 
