16

 C -2.25174454687500 -6.64815438750000 -2.25126403125000 
 C -0.925545546874999 -6.95757338750000 -1.78541803125000 
 C -2.50285354687500 -2.70506338750000 -2.32699803125000 
 C -1.30676354687500 -3.27183338750000 -1.71042203125000 
 N 2.756745312500097E-002 -6.99629538750000 -2.72009503125000 
 N -2.35850154687500 -6.43421738750000 -3.57129403125000 
 N -2.40670454687500 -6.97264738750000 0.285745968749998 
 N -0.358302546874999 -3.47522338750000 -2.59351203125000 
 N -2.48832754687500 -2.62994838750000 -3.64091203125000 
 N -3.02512254687500 -3.01262538750000 0.182049968749998 
 S -0.790698546874999 -6.66688038750000 -4.18130803125000 
 S -3.42640954687500 -6.55696238750000 -1.00303903125000 
 S -0.809660546874999 -7.28404138750000 -3.967303125000221E-002
 S -0.906714546874999 -3.07488538750000 -4.12078503125000 
 S -3.82294954687500 -2.44587738750000 -1.22319303125000 
 S -1.45775654687500 -3.54703238750000 -2.690312500022163E-004
