16

 C -2.34608050937501 -6.61906566875000 -2.32533909375000 
 C -1.08195950937501 -7.03348466875000 -1.72330309375000 
 C -2.87377350937501 -3.21268566875000 -2.21832209375000 
 C -1.62726950937501 -3.56668266875000 -1.49453709375000 
 N -7.338150937500743E-002 -7.34282866875000 -2.51578709375000 
 N -2.24462550937501 -6.58865166875000 -3.64225509375000 
 N -2.92741250937501 -6.95490366875000 0.118646906250001 
 N -0.608992509375007 -3.75810466875000 -2.31265109375000 
 N -2.82288850937501 -3.05987366875000 -3.52193409375000 
 N -3.51479550937501 -3.34375066875000 0.246245906250001 
 S -0.710123509375006 -7.08791966875000 -4.04045209375000 
 S -3.68597850937501 -6.51430066875000 -1.32234109375000 
 S -1.32178050937501 -7.21431766875000 4.384990625000107E-002
 S -1.21858150937501 -3.35697066875000 -3.86103909375000 
 S -4.25062550937501 -3.08105266875000 -1.17031409375000 
 S -1.92738250937501 -3.72916766875000 0.139638906250001 
