16

 C -2.18192001875000 -6.36780584375000 -2.33138509062500 
 C -0.919001018750004 -6.87486384375000 -1.74283909062500 
 C -2.85604501875000 -2.57679184375000 -2.57196309062500 
 C -1.60366701875000 -2.90548284375000 -1.90484209062500 
 N 0.123086981249996 -6.99479584375000 -2.60329309062500 
 N -2.08669901875000 -6.04256784375000 -3.62220809062500 
 N -2.73000901875000 -6.68884984375000 0.148261909375000 
 N -0.566654018750004 -2.94516184375000 -2.70639209062500 
 N -2.74955301875000 -2.33539284375000 -3.85317109062500 
 N -3.35733601875000 -2.85152384375000 -1.910209062499968E-002
 S -0.586032018750004 -6.49869484375000 -4.06873609062500 
 S -3.47845201875000 -6.17564984375000 -1.21028109062500 
 S -1.10011801875000 -7.13974084375000 -3.431809062499980E-002
 S -1.16923101875000 -2.54927884375000 -4.26268909062500 
 S -4.18898401875000 -2.38253484375000 -1.40156809062500 
 S -1.75754901875000 -3.28120884375000 -0.188705090625000 
