16

 C -2.39745256250001 -6.36567330312500 -2.56795556875000 
 C -1.28720256250001 -6.79655630312500 -1.79089856875000 
 C -2.35382556250001 -2.61492630312500 -2.43225756875000 
 C -1.24544756250001 -3.24241630312500 -1.81137456875000 
 N -0.189830562500010 -6.94292630312500 -2.52780156875000 
 N -2.18658456250001 -6.21329730312500 -3.90128656875000 
 N -3.26681556250001 -6.69369130312500 -0.166948568750000 
 N -0.264843562500009 -3.68321830312500 -2.60958956875000 
 N -2.11458556250001 -2.34323830312500 -3.71012256875000 
 N -2.98738956250001 -2.83647830312500 5.379543124999975E-002
 S -0.648053562500009 -6.67853730312500 -4.05359456875000 
 S -3.86778956250001 -6.13865530312500 -1.60136756875000 
 S -1.57985956250001 -6.90721830312500 -0.104914568750000 
 S -0.683038562500010 -3.05219530312500 -4.13067456875000 
 S -3.67571456250001 -2.26557630312500 -1.36610056875000 
 S -1.42254156250001 -3.35222730312500 -6.582956875000012E-002
