16

 C -2.51000257812500 -6.17347851562500 -2.42310933750000 
 C -1.26483557812500 -6.64274751562500 -1.82368033750000 
 C -2.44238357812500 -3.08282451562500 -2.55510433750000 
 C -1.20525257812500 -3.34245151562500 -1.86233133750000 
 N -0.323402578124997 -6.87043951562500 -2.76462633750000 
 N -2.48798357812500 -6.09475351562500 -3.76640133750000 
 N -2.96717957812500 -6.29536151562500 6.345366249999995E-002
 N -8.956857812499663E-002 -3.56763451562500 -2.59242933750000 
 N -2.25099757812500 -2.96930951562500 -3.88190633750000 
 N -3.00276257812500 -2.88125051562500 -6.635233750000014E-002
 S -0.923724578124997 -6.47159551562500 -4.24765533750000 
 S -3.81322557812500 -5.90862051562500 -1.25347033750000 
 S -1.35482657812500 -6.77378351562500 -0.167506337500000 
 S -0.625536578124996 -3.30634451562500 -4.21056433750000 
 S -3.82477057812500 -2.83120051562500 -1.52085933750000 
 S -1.39643057812500 -3.24007351562500 -8.622333750000011E-002
