16

 C -2.53394242187500 -6.26767934687501 -2.38566941875000 
 C -1.39456542187500 -6.92516334687501 -1.88267441875000 
 C -2.64544842187500 -2.93211334687501 -2.34895741875000 
 C -1.44917042187500 -3.32341734687501 -1.64352641875000 
 N -0.453581421874997 -7.18545534687501 -2.76198941875000 
 N -2.51882542187500 -6.14400734687501 -3.70144741875000 
 N -2.96847842187500 -6.67880334687501 3.078258125000177E-002
 N -0.411249421874997 -3.59228834687501 -2.41031341875000 
 N -2.48385242187500 -2.90460534687501 -3.64896841875000 
 N -3.27317342187500 -2.71118534687501 6.615258125000167E-002
 S -1.05870742187500 -6.75050634687500 -4.24164641875000 
 S -3.77796842187500 -6.05404334687501 -1.25528841875000 
 S -1.46882142187500 -7.26116234687501 -0.239683418749998 
 S -0.912796421874997 -3.35353734687501 -3.97298841875000 
 S -4.00965942187500 -2.46329334687501 -1.38237541875000 
 S -1.75236742187500 -3.42943334687501 3.847858125000170E-002
