16

 C -2.47178878124999 -6.46726352812500 -2.32432088750000 
 C -1.19905078125000 -6.86340652812500 -1.72695688750000 
 C -2.54646878125000 -2.81517052812500 -2.37289188750000 
 C -1.34797078124999 -3.25239052812500 -1.71682188750000 
 N -0.174078781249995 -7.02708852812500 -2.58276188750000 
 N -2.43282078124999 -6.38081152812500 -3.66819288750000 
 N -2.97228278125000 -6.92299352812500 0.176444112499999 
 N -0.258849781249995 -3.37607352812500 -2.44587888750000 
 N -2.40779778124999 -2.74906352812500 -3.69539888750000 
 N -3.08119978125000 -2.91547952812500 0.168903112499999 
 S -0.870547781249995 -6.64872552812500 -4.09437788750000 
 S -3.75672878125000 -6.49811952812500 -1.21612488750000 
 S -1.30982878124999 -7.21199452812500 3.129111249999883E-002
 S -0.842107781249995 -3.09714252812500 -4.09792288750000 
 S -3.83749678125000 -2.48855652812500 -1.22815688750000 
 S -1.52553178125000 -3.50772452812500 -2.645588750000138E-002
