16

 C -2.45389186875000 -6.44130777812500 -2.34619165312500 
 C -1.21065986875000 -6.82822577812500 -1.74767765312500 
 C -2.50040386875000 -2.92725377812500 -2.55233265312500 
 C -1.22368486875000 -3.29994577812500 -1.97782465312500 
 N -0.180617868750000 -6.76298177812500 -2.56214565312500 
 N -2.35390786875000 -6.12345177812500 -3.64238765312500 
 N -2.89685486875000 -6.86267777812500 0.202980346875001 
 N -0.227892868750000 -3.32714277812500 -2.85598065312500 
 N -2.46008286875000 -2.56535877812500 -3.85979065312500 
 N -2.93866486875000 -3.22142677812500 -6.556365312499901E-002
 S -0.744832868750000 -6.48738577812500 -4.08803465312500 
 S -3.77886586875000 -6.50328477812500 -1.17952865312500 
 S -1.26530986875000 -7.10804977812500 -3.037365312499896E-002
 S -0.860438868750000 -2.76398377812500 -4.30542865312500 
 S -3.81409686875000 -2.93515577812500 -1.42276865312500 
 S -1.30019986875000 -3.51696477812500 -0.269304653124999 
