16

 C -2.42176635000000 -6.56790878125000 -2.48481630312500 
 C -1.13953635000000 -6.86188978125000 -1.84263330312500 
 C -2.43484535000000 -2.68544078125000 -2.38441930312500 
 C -1.29202135000000 -3.03494378125000 -1.62063230312500 
 N -7.611235000000072E-002 -6.84196778125000 -2.65681730312500 
 N -2.31091035000000 -6.36562378125000 -3.77690730312500 
 N -2.94291435000000 -6.98010178125000 -3.955330312499994E-002
 N -0.242457350000000 -3.31804878125000 -2.40045230312500 
 N -2.24392135000000 -2.62846078125000 -3.68557230312500 
 N -3.22662135000000 -2.71568078125000 8.805669687499984E-002
 S -0.686316350000001 -6.51271578125000 -4.18394030312500 
 S -3.69548135000000 -6.57210078125000 -1.42059030312500 
 S -1.37108535000000 -7.29302378125000 -0.161103303125000 
 S -0.661231350000000 -3.04354078125000 -3.98759030312500 
 S -3.82865535000000 -2.32375378125000 -1.44679330312500 
 S -1.67332135000000 -3.19153678125000 5.063569687499991E-002
