16

 C -2.26033360000000 -6.79799469062499 -2.40861960312500 
 C -1.12811960000000 -7.44528869062499 -1.78289760312500 
 C -2.54245260000000 -2.65028369062499 -2.58848760312500 
 C -1.37698860000000 -3.02943069062499 -1.86948060312500 
 N -0.182958599999996 -7.78422269062499 -2.63348060312500 
 N -2.11943260000000 -6.62545269062499 -3.71445860312500 
 N -2.73917360000000 -6.92392869062499 3.834239687500096E-002
 N -0.296348599999996 -3.35756069062499 -2.60828360312500 
 N -2.44623760000000 -2.82941169062499 -3.90143960312500 
 N -3.35362960000000 -2.84652969062499 -0.117516603124999 
 S -0.634762599999996 -7.22939669062499 -4.09309260312500 
 S -3.53965160000000 -6.36411669062499 -1.31925860312500 
 S -1.17323360000000 -7.60757869062499 -9.521360312499905E-002
 S -0.856172599999995 -3.16665869062499 -4.18756660312500 
 S -3.94930060000000 -2.39527369062499 -1.56315060312500 
 S -1.68617760000000 -3.07663669062499 -0.152778603124999 
