16

 C -2.61691264687500 -6.69485467187500 -2.27460761562500 
 C -1.36144764687500 -7.02080667187500 -1.61648061562500 
 C -2.68527664687500 -2.39947367187500 -2.32217061562500 
 C -1.53552264687500 -2.96449467187500 -1.71344061562500 
 N -0.347019646874998 -7.06515767187500 -2.48220761562500 
 N -2.49763764687500 -6.44740567187500 -3.58340061562500 
 N -3.24274664687500 -6.78634667187500 0.175873384374997 
 N -0.510686646874997 -3.20776267187500 -2.51557161562500 
 N -2.52215564687500 -2.23152167187500 -3.61977261562500 
 N -3.46058264687500 -2.84918567187500 4.125638437499735E-002
 S -0.911763646874997 -6.65625467187500 -4.00408161562500 
 S -4.00917764687500 -6.53144267187500 -1.24124861562500 
 S -1.60734264687500 -7.16843567187500 0.108927384374997 
 S -0.972138646874997 -2.76201467187500 -4.06539661562500 
 S -4.06726564687500 -2.05556067187500 -1.27796961562500 
 S -1.84093364687500 -3.31152967187500 -7.176156250026100E-004
