16

 C -2.32167617812499 -6.03599471875000 -2.27415659375000 
 C -1.17356217812500 -6.72463871875000 -1.81942359375000 
 C -2.69663617812499 -2.40117171875000 -2.68937459375000 
 C -1.50382317812500 -2.88739871875000 -2.07418759375000 
 N -0.284753178124995 -7.10403071875000 -2.71032859375000 
 N -2.27898917812499 -5.89257571875000 -3.58999159375000 
 N -2.71788017812499 -6.36421071875000 0.236205406250001 
 N -0.516324178124995 -3.09841971875000 -2.88086259375000 
 N -2.64561417812499 -2.37113571875000 -4.01272659375000 
 N -3.13988917812499 -2.38686371875000 -0.219358593749999 
 S -0.861135178124995 -6.56418871875000 -4.14926459375000 
 S -3.51550217812500 -5.75954271875000 -1.05747659375000 
 S -1.21642717812500 -7.07972471875000 -0.120555593749999 
 S -1.07744817812500 -2.75791571875000 -4.43311859375000 
 S -4.00740017812499 -2.15174871875000 -1.60013859375000 
 S -1.54913017812499 -2.86495471875000 -0.372144593749999 
