16

 C -2.50897898750000 -6.35350034687500 -2.26546922187500 
 C -1.22236498750000 -6.71285334687500 -1.69842222187500 
 C -2.42151398750000 -2.60292434687500 -2.84499822187500 
 C -1.15552898750000 -2.79334034687500 -2.20139622187500 
 N -0.167503987500002 -6.72625434687500 -2.53135422187500 
 N -2.40663498750000 -6.12221734687500 -3.54500822187500 
 N -3.04533798750000 -6.88218634687500 0.107384778125001 
 N -0.125637987500002 -2.79249934687500 -3.05693022187500 
 N -2.37299798750000 -2.54219534687500 -4.17797522187500 
 N -3.01106898750000 -3.01045834687500 -0.409951221874999 
 S -0.812979987500002 -6.30781934687500 -4.02314122187500 
 S -3.78443798750000 -6.25870434687500 -1.18144422187500 
 S -1.35004398750000 -7.00191434687500 2.489077812500096E-002
 S -0.782538987500002 -2.60754834687500 -4.57998122187500 
 S -3.87632898750000 -2.68344034687500 -1.83239122187500 
 S -1.37399298750000 -3.04896134687500 -0.523146221874999 
