16

 C -2.41558565312500 -6.33949131875000 -2.50286576875000 
 C -1.15824865312500 -6.54779831875000 -1.82464676875000 
 C -2.47153665312500 -2.19839331875000 -2.77509076875000 
 C -1.52861465312500 -2.92165631875000 -2.00894576875000 
 N -8.557565312499893E-002 -6.63942031875000 -2.60539976875000 
 N -2.21741265312500 -6.36396731875000 -3.78915576875000 
 N -3.02815365312500 -6.65354531875000 -4.185576874999963E-002
 N -0.433577653124999 -3.22319631875000 -2.66959576875000 
 N -2.10965865312500 -1.90862131875000 -4.01989476875000 
 N -3.43737465312500 -2.59849831875000 -0.314756768750000 
 S -0.588812653124999 -6.65947831875000 -4.19138176875000 
 S -3.78743465312500 -6.39139931875000 -1.45760376875000 
 S -1.29920465312500 -6.76502531875000 -9.637876874999951E-002
 S -0.585901653124999 -2.52151631875000 -4.10692676875000 
 S -3.89310865312500 -1.95559931875000 -1.78257476875000 
 S -2.02755965312500 -3.44591731875000 -0.431773768749999 
