16

 C -2.43945764999999 -6.53571999374999 -2.34022614375000 
 C -1.20265264999999 -7.15957599374999 -1.85968514375000 
 C -2.57255664999999 -2.47011199375000 -2.38471714375000 
 C -1.64067364999998 -3.30116199374999 -1.64274414375000 
 N -0.284490649999985 -7.34761199374999 -2.78813214375000 
 N -2.41917664999999 -6.18717399374999 -3.61134114375000 
 N -2.87373664999999 -7.07168099374999 8.624685624999917E-002
 N -0.635405649999985 -3.77310399375000 -2.37719814375000 
 N -2.34242064999999 -2.34218299375000 -3.70873314375000 
 N -3.43454564999999 -2.56831099374999 4.196285624999918E-002
 S -0.901883649999985 -6.66447199374999 -4.19900814375000 
 S -3.71865064999999 -6.44994399375000 -1.20365314375000 
 S -1.25272264999999 -7.49129999374999 -5.716414375000101E-002
 S -1.00134764999999 -3.24262199374999 -3.93511914375000 
 S -4.00061664999999 -2.02468899374999 -1.44063614375000 
 S -1.88459364999999 -3.29013399375000 7.024985624999913E-002
