16

 C -2.24620818437501 -6.68384010625001 -2.22070656562500 
 C -0.974599184375011 -7.04846510625001 -1.62832656562500 
 C -2.52233318437501 -2.62844810625001 -2.49906356562500 
 C -1.18502518437501 -2.89293510625001 -1.82997956562500 
 N 6.732881562498960E-002 -7.04208110625001 -2.46207156562500 
 N -2.12476618437501 -6.43700810625001 -3.51757956562500 
 N -2.70096218437501 -6.72682210625001 0.248973434375000 
 N -0.169814184375011 -3.02281510625001 -2.67876856562500 
 N -2.44284618437501 -2.57632510625001 -3.83291756562500 
 N -2.97898918437501 -2.79922110625001 5.343543437499987E-002
 S -0.521767184375011 -6.55036110625001 -3.92688756562500 
 S -3.55645518437501 -6.50354010625001 -1.14390256562500 
 S -1.13557118437501 -7.31963310625001 0.102244434375000 
 S -0.877550184375011 -2.85506710625001 -4.19712156562500 
 S -3.83720218437501 -2.47675710625001 -1.34892056562500 
 S -1.35019418437501 -3.11702910625001 -0.131967565625000 
