16

 C -2.59304333125001 -6.58347270312500 -2.34338911562500 
 C -1.35719333125001 -6.94898170312500 -1.69711211562500 
 C -2.61521133125001 -2.84603870312500 -2.46478211562500 
 C -1.34926633125001 -3.23187270312500 -1.88821811562500 
 N -0.328779331250011 -7.18204070312500 -2.48988211562500 
 N -2.45841933125001 -6.52710870312500 -3.65273711562500 
 N -3.19426333125001 -6.47828270312500 0.125656884374999 
 N -0.325999331250011 -3.39153770312500 -2.74500511562500 
 N -2.59443833125001 -2.60410470312500 -3.78750911562500 
 N -3.02518233125001 -2.89456870312500 9.712388437499953E-002
 S -0.880493331250011 -6.85394870312500 -4.02348411562500 
 S -3.91577133125001 -6.18611770312500 -1.33159411562500 
 S -1.58225733125001 -6.82905570312500 2.793888437499947E-002
 S -1.05940733125001 -3.05773270312500 -4.23402511562500 
 S -3.91436533125001 -2.51315770312500 -1.29763611562500 
 S -1.43455133125001 -3.36512270312500 -0.199286115625001 
