16

 C -2.43578759062500 -6.39772718750000 -2.44128868437500 
 C -1.16221359062500 -6.60926618750000 -1.72450668437500 
 C -2.26083359062500 -2.82078618750000 -2.41068968437500 
 C -0.956639590625005 -3.22239218750000 -1.78007268437500 
 N -6.926659062500473E-002 -6.75361818750000 -2.48553268437500 
 N -2.27412359062500 -6.37830918750000 -3.74745168437500 
 N -3.10315859062500 -6.44774618750000 -5.121684374999491E-003
 N 1.381340937499509E-002 -3.34354318750000 -2.65150668437500 
 N -2.21498459062501 -2.75087118750000 -3.75257068437500 
 N -2.59506759062501 -3.25892618750000 0.174082315625001 
 S -0.624378590625005 -6.55859718750000 -4.03748168437500 
 S -3.85137559062500 -6.19319218750000 -1.45642668437500 
 S -1.41100759062500 -6.84753018750000 -2.788268437499952E-002
 S -0.615066590625005 -2.93639018750000 -4.15693468437500 
 S -3.55389359062500 -2.83076318750000 -1.19068868437500 
 S -0.957735590625004 -3.55094318750000 -6.564668437499943E-002
