16

 C -2.52042240000000 -6.47509779062501 -2.12678175312500 
 C -1.33260040000000 -6.98028579062501 -1.51228275312500 
 C -2.27421540000000 -2.56492279062501 -2.46091875312500 
 C -1.13566640000000 -3.13869179062501 -1.88620975312500 
 N -0.250685399999997 -7.04255979062501 -2.30852275312500 
 N -2.32867640000000 -6.10750979062501 -3.39772875312500 
 N -3.20473540000000 -7.08339179062501 0.264959246875000 
 N -0.192180399999997 -3.42237379062501 -2.76397375312500 
 N -2.18918240000000 -2.26012079062501 -3.75548675312500 
 N -2.84090940000000 -2.98864379062501 3.881524687500004E-002
 S -0.803790399999997 -6.49799979062501 -3.76624775312500 
 S -3.91727040000000 -6.70160079062501 -1.17465275312500 
 S -1.57746440000000 -7.42958779062501 0.211712246875000 
 S -0.701555399999997 -2.83976879062501 -4.23158775312500 
 S -3.60982740000000 -2.36171779062501 -1.29883675312500 
 S -1.22710240000000 -3.44196779062501 -0.148453753125000 
