16

 C -2.37507941875000 -6.25827104375000 -2.40121635625000 
 C -1.30274741875000 -6.97036404375000 -1.69694735625000 
 C -2.46378241875000 -2.32274004375000 -2.44160135625000 
 C -1.34908741875000 -2.92727204375000 -1.82248735625000 
 N -0.252080418750004 -7.13561204375000 -2.45859535625000 
 N -2.13230941875000 -5.92065004375000 -3.65675935625000 
 N -3.14827441875000 -6.55066204375000 3.570864374999783E-002
 N -0.398396418750004 -3.33524404375000 -2.63560235625000 
 N -2.27737941875000 -2.11051804375000 -3.76794035625000 
 N -3.07022141875000 -2.36175604375000 3.440064374999796E-002
 S -0.628513418750004 -6.56906004375000 -4.02237335625000 
 S -3.75447841875000 -5.97927104375000 -1.38176735625000 
 S -1.60096041875000 -7.23453104375000 -1.450335625000232E-002
 S -0.787919418750004 -2.81428704375000 -4.10016735625000 
 S -3.79508941875000 -2.04837904375000 -1.43659635625000 
 S -1.57455241875000 -3.02821404375000 -6.776035625000221E-002
