16

 C -2.43047653749999 -6.46715371250000 -2.58416106875000 
 C -1.23863253749999 -6.88725171250000 -1.84945106875000 
 C -2.71920953749999 -2.84645471250000 -2.50332706875000 
 C -1.61333853749999 -3.50139271250000 -1.87921706875000 
 N -0.186533537499994 -6.99624871250000 -2.62615906875000 
 N -2.24288453749999 -6.24099071250000 -3.90476506875000 
 N -3.14031953749999 -6.68858871250000 -8.395068750001400E-003
 N -0.535172537499994 -3.68224071250000 -2.63916006875000 
 N -2.58117053749999 -2.65152271250000 -3.80226306875000 
 N -3.38738953749999 -3.22228671250000 -2.674206875000129E-002
 S -0.637465537499994 -6.67791171250000 -4.24405906875000 
 S -3.88221353749999 -6.29632971250000 -1.50586206875000 
 S -1.58779953749999 -7.15936771250000 -0.168694068750001 
 S -1.06011653749999 -3.12032271250000 -4.14346606875000 
 S -3.98713153749999 -2.54862971250000 -1.40682706875000 
 S -1.84942953749999 -3.83227971250000 -0.194592068750001 
