16

 C -2.69632448750001 -6.67482771250000 -2.33392587812500 
 C -1.48216148750001 -7.14809171250000 -1.76952187812500 
 C -2.24920048750001 -2.97001871250000 -2.30770087812500 
 C -1.00107348750001 -3.38990671250000 -1.67003587812500 
 N -0.488424487500011 -7.43714571250000 -2.61085387812500 
 N -2.65802948750001 -6.55576571250000 -3.65065087812500 
 N -3.11846748750001 -6.95885871250000 0.249091121875002 
 N 6.457851249998825E-002 -3.55044771250000 -2.45147787812500 
 N -2.14862248750001 -2.83273971250000 -3.63408387812500 
 N -2.88623848750001 -3.22367871250000 0.220465121875002 
 S -1.09565148750001 -7.01238971250000 -4.13257687812500 
 S -3.95124548750001 -6.45356571250000 -1.07299287812500 
 S -1.55024648750001 -7.33935171250000 2.880112187500172E-002
 S -0.573406487500011 -3.25031271250000 -3.97441487812500 
 S -3.56053948750001 -2.64026571250000 -1.16111287812500 
 S -1.28418048750001 -3.70462271250000 5.216512187500189E-002
