16

 C -2.55953184687500 -6.11921446250000 -2.71756349375000 
 C -1.36641784687500 -6.57306846250000 -2.03600649375000 
 C -2.42720484687500 -2.73059346250000 -2.48384349375000 
 C -1.20108484687500 -2.96999846250000 -1.85110449375000 
 N -0.293019846874999 -6.68155746250000 -2.83657049375000 
 N -2.38346084687500 -5.99094146250000 -4.03487949375000 
 N -3.18530584687500 -6.64622946250000 -0.231783493750001 
 N -0.178936846874999 -3.19011046250000 -2.68155149375000 
 N -2.35126884687500 -2.64692446250000 -3.81005649375000 
 N -3.02005184687500 -2.80166846250000 -6.410749375000124E-002
 S -0.808399846874999 -6.42212946250000 -4.35512949375000 
 S -3.92598184687500 -6.17420746250000 -1.65223649375000 
 S -1.53862184687500 -6.93982846250000 -0.311991493750001 
 S -0.772408846874999 -2.95478846250000 -4.20668049375000 
 S -3.84527084687500 -2.71833946250000 -1.45404549375000 
 S -1.40423984687500 -3.17169546250000 -0.139032493750002 
