16

 C -2.62236117187500 -6.48598755000000 -2.48931257500000 
 C -1.47169317187500 -6.98542455000000 -1.79561557500000 
 C -2.25105117187500 -2.84009255000000 -2.38423557500000 
 C -1.00716417187500 -3.34862455000000 -1.74340257500000 
 N -0.413200171875002 -7.17332055000000 -2.59025357500000 
 N -2.42847817187500 -6.18830055000000 -3.76854057500000 
 N -3.35209617187500 -6.79036855000000 -4.455757500000046E-002
 N -1.317817187500214E-002 -3.55024955000000 -2.58089457500000 
 N -2.08833217187500 -2.61889255000000 -3.67642757500000 
 N -2.84015317187500 -3.25743755000000 4.595042499999957E-002
 S -0.916805171875002 -6.69501955000000 -4.14571757500000 
 S -4.02911717187500 -6.26809255000000 -1.49973657500000 
 S -1.74715417187500 -7.28100355000000 -0.163261575000001 
 S -0.524643171875002 -3.01443455000000 -4.10092557500000 
 S -3.56482217187500 -2.75868955000000 -1.31090557500000 
 S -1.20295517187500 -3.63306355000000 -3.736757500000043E-002
