16

 C -2.55110583750001 -6.62481344687500 -2.50123755312500 
 C -1.26439983750001 -7.05224444687500 -1.97521255312500 
 C -2.57729783750001 -2.66495544687500 -2.21565155312500 
 C -1.33840483750001 -3.11508844687500 -1.56122955312500 
 N -0.267452837500006 -7.14115944687500 -2.90144855312500 
 N -2.60304883750001 -6.46304344687500 -3.84289955312500 
 N -2.87226783750001 -6.70532444687500 -5.979553124998205E-003
 N -0.400828837500006 -3.40357644687500 -2.45988455312500 
 N -2.53567583750001 -2.64169744687500 -3.55695855312500 
 N -3.14247983750001 -3.00093844687500 0.247695446875002 
 S -1.05736783750001 -6.80124044687500 -4.31198155312500 
 S -3.78886383750001 -6.41170044687500 -1.31886855312500 
 S -1.22330483750001 -7.05419344687500 -0.219957553124998 
 S -0.995871837500006 -3.06847044687500 -3.96661055312500 
 S -3.91265183750001 -2.54642644687500 -1.14564855312500 
 S -1.58664683750001 -3.65272144687500 8.981544687500187E-002
