16

 C -2.25604921875000 -6.35808080625000 -2.44017832500000 
 C -1.14157221875000 -6.85661480625000 -1.73603432500000 
 C -2.73775921875000 -2.51894880625000 -2.50451932500000 
 C -1.48813721875000 -2.85387680625000 -1.85560032500000 
 N -4.494121874999735E-002 -6.96238780625000 -2.46728732500000 
 N -2.04356521875000 -6.14867180625000 -3.71761932500000 
 N -2.98989021875000 -6.47956380625000 -1.031132500000043E-002
 N -0.479178218749998 -2.85362980625000 -2.73064332500000 
 N -2.68660721875000 -2.30804780625000 -3.81041132500000 
 N -3.29772521875000 -2.90418480625000 2.424674999999432E-003
 S -0.453651218749997 -6.61504980625000 -4.02052232500000 
 S -3.69877321875000 -6.17677280625000 -1.47391332500000 
 S -1.43991621875000 -7.07102480625000 -6.202432500000032E-002
 S -1.04099021875000 -2.52126580625000 -4.18559632500000 
 S -4.11017321875000 -2.46406780625000 -1.39538132500000 
 S -1.66881121875000 -2.93775880625000 -7.605132500000034E-002
