16

 C -2.33951802812499 -6.58423694687500 -2.16966950312500 
 C -1.12340202812499 -7.03859094687500 -1.58321050312500 
 C -2.25109502812499 -2.72781194687500 -2.68581450312500 
 C -1.05637702812499 -3.14391694687500 -1.95640750312500 
 N -0.118721028124993 -6.97052794687500 -2.42789050312500 
 N -2.24127302812499 -6.02045894687500 -3.35309550312500 
 N -2.89204302812499 -7.11906094687500 0.295262496875000 
 N 2.650697187500661E-002 -3.37482694687500 -2.72480050312500 
 N -2.13331202812499 -2.73319294687500 -4.01059050312500 
 N -2.86621802812499 -2.51195094687500 -0.150719503125000 
 S -0.729927028124993 -6.27641194687500 -3.82496850312500 
 S -3.65360902812499 -6.33129694687500 -1.06009150312500 
 S -1.27013802812499 -7.38044894687500 0.115549496875000 
 S -0.523481028124992 -3.06033094687500 -4.27873150312500 
 S -3.59448202812499 -2.35055694687500 -1.61860750312500 
 S -1.33766902812499 -3.23926494687500 -0.192881503125000 
