16

 C -2.24567439375000 -6.69054379062500 -2.22472494687500 
 C -0.999707393750001 -7.11103979062500 -1.63517894687500 
 C -2.46808239375000 -2.64300079062500 -2.47619894687500 
 C -1.20404839375000 -2.83755779062500 -1.85253894687500 
 N 5.708460625000011E-002 -7.00977579062500 -2.45067694687500 
 N -2.11757039375000 -6.40992479062500 -3.50350794687500 
 N -2.74395739375000 -6.76515979062500 0.274231053125000 
 N -0.170700393750000 -3.06331079062500 -2.69399394687500 
 N -2.41179139375000 -2.61977879062500 -3.81863094687500 
 N -2.94021239375000 -2.83997679062500 6.999305312499993E-002
 S -0.562833393750000 -6.51187979062500 -3.90075094687500 
 S -3.59397039375000 -6.52944879062500 -1.14314694687500 
 S -1.18575839375000 -7.32563679062500 0.122308053125000 
 S -0.852212393750000 -2.84986679062500 -4.19820494687500 
 S -3.79800739375000 -2.46771479062500 -1.33052094687500 
 S -1.35333739375000 -3.14318379062500 -0.172705946875000 
