16

 C -2.46738972500000 -6.48498685937500 -2.31274400312500 
 C -1.28912072500000 -7.00176185937500 -1.69670500312500 
 C -2.49287172500000 -2.77219685937500 -2.50585800312500 
 C -1.31223772500000 -3.11105785937500 -1.80582800312500 
 N -0.210114724999997 -7.19995185937500 -2.49247500312500 
 N -2.35166072500000 -6.27326685937500 -3.62504800312500 
 N -3.16699272500000 -6.68311585937500 0.126403996874999 
 N -0.281895724999997 -3.26007885937500 -2.59882400312500 
 N -2.35273372500000 -2.45523885937500 -3.78302000312500 
 N -3.17663572500000 -3.09300685937500 -4.724500312500135E-002
 S -0.814852724999997 -6.74176485937500 -4.03090900312500 
 S -3.84516272500000 -6.41281685937500 -1.34129200312500 
 S -1.58204572500000 -7.19917585937500 2.543599687499865E-002
 S -0.707428724999997 -2.83745285937500 -4.11155300312500 
 S -3.89044472500000 -2.71579185937500 -1.47813000312500 
 S -1.54238072500000 -3.35836485937500 -0.143118003125001 
