16

 C -2.64053264374999 -6.62263880000001 -2.33408853125000 
 C -1.40567264375000 -6.98509480000001 -1.64739453125000 
 C -2.70409064375000 -2.40463180000001 -2.39626053125000 
 C -1.49857564375000 -2.94079080000001 -1.72083353125000 
 N -0.347437643749995 -7.03993180000001 -2.45002153125000 
 N -2.53058764375000 -6.41213880000001 -3.63114353125000 
 N -3.23712564375000 -6.75012080000001 0.204452468750001 
 N -0.448638643749995 -3.22954080000001 -2.51441053125000 
 N -2.49084964375000 -2.16473580000001 -3.69094353125000 
 N -3.38682364375000 -2.89077080000001 2.456746875000104E-002
 S -0.869229643749995 -6.62134380000001 -3.99134753125000 
 S -4.06580764375000 -6.55403180000001 -1.28843353125000 
 S -1.57805764374999 -7.12010080000001 0.111459468750001 
 S -1.02093464375000 -2.74880580000001 -4.05652753125000 
 S -4.06445564375000 -2.07855480000001 -1.27034653125000 
 S -1.78526064375000 -3.28127380000001 -4.971531249998939E-003
