16

 C -2.59550147187500 -6.69319040000000 -2.39760375000000 
 C -1.35824847187500 -7.12093640000000 -1.72233775000000 
 C -2.47606347187500 -2.85655040000000 -2.36202675000000 
 C -1.23665847187500 -3.36343440000000 -1.80455975000000 
 N -0.283167471874999 -7.19738540000000 -2.50358575000000 
 N -2.45167147187500 -6.49400440000000 -3.73259575000000 
 N -3.06987347187500 -6.90907940000000 0.168933250000003 
 N -0.302588471874999 -3.61049740000000 -2.67006575000000 
 N -2.47656747187500 -2.64967140000000 -3.68007375000000 
 N -2.95250747187500 -3.16613840000000 0.168701250000003 
 S -0.828643471874999 -6.77046340000000 -4.02850675000000 
 S -3.93056147187500 -6.52137740000000 -1.24233575000000 
 S -1.48332047187500 -7.26238940000000 -1.767474999999674E-002
 S -0.951473471874999 -3.12895740000000 -4.15515375000000 
 S -3.75798847187500 -2.64575240000000 -1.17186075000000 
 S -1.35354947187500 -3.51767940000000 -6.040474999999690E-002
