16

 C -2.63918414375000 -6.22812895937500 -2.64768594062500 
 C -1.37584114375000 -6.57754995937500 -2.03664794062500 
 C -2.46443514375000 -2.74852395937500 -2.48694794062500 
 C -1.27323514375000 -3.07995195937500 -1.87196094062500 
 N -0.341682143750004 -6.68923895937500 -2.85820594062500 
 N -2.53395314375000 -6.06845595937500 -3.96823094062500 
 N -3.25754614375000 -6.87144195937500 -0.322774940625002 
 N -0.214307143750004 -3.21299695937500 -2.66286594062500 
 N -2.37892814375000 -2.66170595937500 -3.80955994062500 
 N -2.90619714375000 -2.92219695937500 9.773705937499844E-002
 S -0.977704143750004 -6.33242395937500 -4.38370094062500 
 S -4.00835714375000 -6.21630095937500 -1.65548694062500 
 S -1.61233714375000 -6.93412095937500 -0.377342940625002 
 S -0.782919143750004 -3.00017195937500 -4.23073094062500 
 S -3.76725514375000 -2.69298895937500 -1.34556194062500 
 S -1.26684314375000 -3.14913395937500 -0.140762940625002 
