16

 C -2.41789695937500 -6.47146669687499 -2.29486821562500 
 C -1.16855395937500 -6.81475869687499 -1.74344521562500 
 C -2.55235395937500 -2.80818169687499 -2.39605521562500 
 C -1.33639995937500 -3.21485069687499 -1.74944921562500 
 N -0.189447959374998 -6.92335869687499 -2.63598021562500 
 N -2.38042295937500 -6.23968469687499 -3.61986721562500 
 N -2.81663795937500 -6.88084869687499 0.211259784374999 
 N -0.291357959374998 -3.40038069687499 -2.55012321562500 
 N -2.42551895937500 -2.71361769687499 -3.71772021562500 
 N -3.15781895937500 -2.92734669687499 0.138302784375000 
 S -0.810973959374998 -6.62905569687499 -4.10951021562500 
 S -3.74406995937500 -6.47617369687499 -1.14575321562500 
 S -1.22092395937500 -7.18138869687499 -7.647721562500065E-002
 S -0.800326959374997 -3.06833369687499 -4.01103821562500 
 S -3.85079995937500 -2.43394669687499 -1.30911321562500 
 S -1.61095395937500 -3.46736769687499 7.230784374999466E-003
