16

 C -2.31130604375000 -6.41941767500000 -2.44797425312500 
 C -1.11550404375000 -7.01211667500000 -1.84286025312500 
 C -2.34219804375000 -3.06321067500000 -2.36629225312500 
 C -1.16478604375000 -3.41326967500000 -1.68657425312500 
 N -0.104785043750000 -7.22694067500000 -2.65869025312500 
 N -2.17478804375000 -6.26995267500000 -3.75916725312500 
 N -2.76110204375000 -6.73021467500000 7.132674687500029E-002
 N -0.135866043750000 -3.55282767500000 -2.58683925312500 
 N -2.26504904375000 -2.85808067500000 -3.67637625312500 
 N -2.95920804375000 -3.21509067500000 0.190823746875000 
 S -0.558080043750000 -6.62011767500000 -4.13067925312500 
 S -3.58838504375000 -6.22918567500000 -1.28167625312500 
 S -1.25748304375000 -7.43059467500000 -0.211256253125000 
 S -0.670355043750000 -3.19067767500000 -4.04082625312500 
 S -3.72229104375000 -2.79450767500000 -1.26599925312500 
 S -1.38486904375000 -3.60918367500000 3.758774687500033E-002
