16

 C -2.54588599375000 -6.24288900937500 -2.52049265312500 
 C -1.41602199375000 -7.00924000937500 -2.00608065312500 
 C -2.53521299375000 -2.68565000937500 -2.44237865312500 
 C -1.33683599375000 -3.20524300937500 -1.78247965312500 
 N -0.456694993749998 -7.20783000937500 -2.90632065312500 
 N -2.40713699375000 -5.90364500937500 -3.80986165312500 
 N -3.08459899375000 -6.84274000937500 -3.799265312500055E-002
 N -0.287324993749998 -3.30277300937500 -2.57127065312500 
 N -2.37099199375000 -2.45954700937500 -3.73662065312500 
 N -3.10937399375000 -2.77369300937500 3.769334687499937E-002
 S -0.945792993749998 -6.46025000937500 -4.25310565312500 
 S -3.82722199375000 -6.04368200937500 -1.29844265312500 
 S -1.57987799375000 -7.59795900937500 -0.392933653125001 
 S -0.837038993749998 -2.96440600937500 -4.12289765312500 
 S -3.71062699375000 -2.21808400937500 -1.33716265312500 
 S -1.58965999375000 -3.48928300937500 -7.075765312500049E-002
