16

 C -2.30504216562499 -6.06014634999999 -2.00012722187500 
 C -1.10125616562499 -6.70048134999999 -1.45592622187500 
 C -2.33649016562499 -2.67173934999999 -2.29826122187500 
 C -1.19582016562499 -3.15292934999999 -1.58340722187500 
 N -0.129968165624993 -6.88095434999999 -2.34512622187500 
 N -2.22333116562499 -5.76141634999999 -3.29945722187500 
 N -2.85577316562499 -6.84466634999999 0.368288778125000 
 N -0.131787165624993 -3.42291234999999 -2.33961222187500 
 N -2.12185716562499 -2.45942734999999 -3.58110622187500 
 N -3.10898116562499 -2.90816234999999 7.137077812500037E-002
 S -0.672572165624993 -6.22846834999999 -3.78574322187500 
 S -3.60911016562499 -6.15228034999999 -0.916217221875000 
 S -1.20962816562499 -7.26900034999999 0.169065778125000 
 S -0.583416165624993 -3.04967534999999 -3.87233622187500 
 S -3.72255616562499 -2.41614934999999 -1.34909522187500 
 S -1.50677816562499 -3.29481434999999 8.091577812500050E-002
