16

 C -2.59604576250000 -6.51370234375000 -2.35495095937500 
 C -1.42197176250000 -6.98164434375000 -1.66865995937500 
 C -2.62169176250000 -2.76464434375000 -2.42971295937500 
 C -1.31576876250000 -3.16544534375000 -1.88472695937500 
 N -0.360669762499999 -7.22862134375000 -2.47329195937500 
 N -2.52294576250000 -6.47311034375000 -3.69049395937500 
 N -3.20331576250000 -6.49043634375000 0.161327040624998 
 N -0.361228762499999 -3.36084434375000 -2.76706795937500 
 N -2.54166376250000 -2.58572334375000 -3.72876095937500 
 N -2.96480176250000 -2.90216334375000 9.354804062499800E-002
 S -0.906898762499999 -6.87465634375000 -4.02034295937500 
 S -3.93551976250000 -6.19132534375000 -1.29466295937500 
 S -1.60333676250000 -6.83476634375000 6.007104062499802E-002
 S -1.04168076250000 -3.11505134375000 -4.25837195937500 
 S -3.89566576250000 -2.55747034375000 -1.30086495937500 
 S -1.38444476250000 -3.36985834375000 -0.160698959375002 
