16

 C -2.49598618750000 -6.44713003750000 -2.42921097187500 
 C -1.31854918750000 -6.88705603750000 -1.75752997187500 
 C -2.66338618750000 -2.90789903750000 -2.45768897187500 
 C -1.42806318750000 -3.37627003750000 -1.83300897187500 
 N -0.346589187500001 -7.13124503750000 -2.60068397187500 
 N -2.44473418750000 -6.24623803750000 -3.75145997187500 
 N -3.11966318750000 -6.68569403750000 7.933602812500018E-002
 N -0.399833187500001 -3.51161503750000 -2.66208997187500 
 N -2.55820018750000 -2.76237803750000 -3.76076197187500 
 N -3.16556418750000 -3.07900603750000 1.762028125000148E-003
 S -0.855597187500001 -6.62728903750000 -4.06648997187500 
 S -3.80796018750000 -6.13110303750000 -1.30566497187500 
 S -1.44894218750000 -6.99022703750000 -4.953697187499984E-002
 S -0.943098187500001 -3.14280203750000 -4.17561897187500 
 S -4.03833318750000 -3.01317003750000 -1.42048197187500 
 S -1.57147318750000 -3.66574103750000 -0.140809971875000 
