16

 C -2.56292617500000 -6.31267179687500 -2.24725868437500 
 C -1.37426817500000 -6.85626179687500 -1.57201568437500 
 C -2.50398717500000 -3.10713379687500 -2.31845668437500 
 C -1.23930117500000 -3.28465979687500 -1.67165368437500 
 N -0.393345175000004 -7.05193079687500 -2.43952368437500 
 N -2.51773717500000 -6.18453979687500 -3.58024068437500 
 N -3.05162017500000 -6.58328179687500 0.277656315625000 
 N -0.192992175000003 -3.42640479687500 -2.50398968437500 
 N -2.43740917500000 -3.01230579687500 -3.64099568437500 
 N -3.02555617500000 -3.17101779687500 0.160008315625000 
 S -0.923420175000003 -6.61066579687500 -3.95625868437500 
 S -3.82674017500000 -6.16525079687500 -1.09676268437500 
 S -1.52154417500000 -7.09971479687500 7.935131562500009E-002
 S -0.903866175000004 -3.20744479687500 -4.01864468437500 
 S -3.82277617500000 -2.88204979687500 -1.25914068437500 
 S -1.35479717500000 -3.36826979687500 6.935531562500019E-002
