16

 C -2.48497533749999 -6.66069452812500 -2.42376546250000 
 C -1.22886833749999 -6.91221852812500 -1.78713246250000 
 C -2.09760133749999 -2.91465352812500 -2.37967446250000 
 C -0.946023337499993 -3.27093852812500 -1.61205346250000 
 N -0.190780337499993 -6.91026452812500 -2.58162246250000 
 N -2.38792133749999 -6.53405852812500 -3.73706146250000 
 N -2.95484433749999 -7.00556352812500 5.176653750000093E-002
 N 0.154889662500008 -3.35900352812500 -2.34056046250000 
 N -1.89172533749999 -2.70088452812500 -3.67180546250000 
 N -2.97254633749999 -3.10953552812500 3.375653750000107E-002
 S -0.784375337499992 -6.59646052812500 -4.04791246250000 
 S -3.80810933749999 -6.76548852812500 -1.30533446250000 
 S -1.28451733749999 -7.28058552812500 -8.251546249999908E-002
 S -0.304828337499992 -3.05481252812500 -3.97235946250000 
 S -3.51029333749999 -2.48695452812500 -1.40523146250000 
 S -1.33572533749999 -3.68871652812500 5.905153750000092E-002
