16

 C -2.48541425312501 -6.58751670937501 -2.44810063437500 
 C -1.17525525312501 -6.95151670937500 -1.92984163437500 
 C -2.62458625312501 -2.78012470937500 -2.49631763437500 
 C -1.48056225312501 -3.24779970937501 -1.81466863437500 
 N -0.247106253125006 -6.94270970937501 -2.86661563437500 
 N -2.59056425312501 -6.35247070937501 -3.73307163437500 
 N -2.86139025312501 -6.88087370937501 7.610236562499884E-002
 N -0.391681253125006 -3.52986970937501 -2.52064263437500 
 N -2.42197225312501 -2.73736770937500 -3.79757863437500 
 N -3.28677925312501 -2.67732370937501 -8.033963437500136E-002
 S -1.04801325312501 -6.55527770937501 -4.32637363437500 
 S -3.74012625312501 -6.46473070937501 -1.27429963437500 
 S -1.29748325312501 -7.41064270937501 -0.258191634375001 
 S -0.851050253125006 -3.27777970937501 -4.08234763437500 
 S -3.91364525312501 -2.13159170937501 -1.51774263437500 
 S -1.71581225312501 -3.24096570937501 -6.228863437500110E-002
