16

 C -2.23961074687500 -6.50216385312500 -2.49135078437500 
 C -1.09419374687500 -7.11345185312500 -1.83191778437500 
 C -2.34692174687500 -2.99956485312499 -2.31000878437500 
 C -1.19113274687500 -3.51687985312499 -1.64549478437500 
 N -5.894974687499666E-002 -7.22337985312500 -2.65896178437500 
 N -2.06612774687500 -6.21586685312499 -3.77668378437500 
 N -2.84334774687500 -6.78015485312500 1.673621562499972E-002
 N -0.134021746874996 -3.68183285312500 -2.44877378437500 
 N -2.28503474687500 -2.79079285312500 -3.58479878437500 
 N -2.94885374687500 -2.96618785312500 0.152565215625000 
 S -0.545782746874997 -6.80662885312500 -4.19389278437500 
 S -3.58213874687500 -6.20673285312500 -1.38279778437500 
 S -1.33709874687500 -7.39969585312500 -0.154311784375000 
 S -0.754394746874996 -3.16857885312500 -4.03726678437500 
 S -3.72945774687500 -2.76908485312499 -1.28216078437500 
 S -1.34724174687500 -3.53515385312499 8.400221562499977E-002
