16

 C -2.29000570625000 -6.39094186250000 -2.36164584375000 
 C -1.17338970625000 -7.03450686250000 -1.75189184375000 
 C -2.49711770625000 -3.03777786250000 -2.35398484375000 
 C -1.20479270625000 -3.19304586250000 -1.70852684375000 
 N -0.184043706249997 -7.22138486250000 -2.59695484375000 
 N -2.14767770625000 -6.10930986250000 -3.65911384375000 
 N -2.81479470625000 -6.97601786250000 4.547115625000075E-002
 N -0.175398706249997 -3.30211386250000 -2.51730584375000 
 N -2.43009170625000 -3.10783686250000 -3.66146284375000 
 N -2.93580170625000 -2.68232686250000 0.153699156250001 
 S -0.630748706249997 -6.68631986250000 -4.10364684375000 
 S -3.60922870625000 -6.14430986250000 -1.24986384375000 
 S -1.22657570625000 -7.23797986250000 -0.102292843749999 
 S -0.842139706249997 -3.18923786250000 -4.03783884375000 
 S -3.80093070625000 -2.74193786250000 -1.24914884375000 
 S -1.33042970625000 -3.07091986250000 4.963156250000766E-003
