16

 C -2.61133849687500 -6.45488321250001 -2.31258548125000 
 C -1.40435649687500 -6.90085221250001 -1.67431248125000 
 C -2.46183149687500 -2.92716321250001 -2.44575048125000 
 C -1.16274449687500 -3.36053721250001 -1.79410248125000 
 N -0.425698496874999 -7.12415221250001 -2.54240948125000 
 N -2.55083949687500 -6.28023721250000 -3.64395148125000 
 N -3.14838949687500 -6.46775321250001 0.210560518750001 
 N -0.174572496874998 -3.52982721250001 -2.66170748125000 
 N -2.37921849687500 -2.74187721250000 -3.76613148125000 
 N -2.82390949687500 -2.95060621250001 0.131169518750001 
 S -0.990505496874999 -6.73952721250000 -4.07768348125000 
 S -3.90587449687500 -6.11313221250001 -1.24581248125000 
 S -1.61635549687500 -7.12345221250001 7.921251875000079E-002
 S -0.786059496874999 -3.11235621250001 -4.18389248125000 
 S -3.69400649687500 -2.55461521250001 -1.27873248125000 
 S -1.21271749687500 -3.34248721250001 -5.511248124999923E-002
