16

 C -2.51208095000000 -6.60635007187500 -2.53275070937500 
 C -1.19062395000000 -6.81918707187500 -1.90465570937500 
 C -2.34644595000000 -3.17935307187500 -2.19288470937500 
 C -1.11302195000000 -3.63456607187500 -1.55037270937500 
 N -0.130030950000000 -6.93498707187500 -2.69043970937500 
 N -2.39237295000000 -6.54302207187500 -3.84194070937500 
 N -2.99064695000000 -6.58586607187500 -4.490709374999513E-003
 N -0.114421950000000 -3.90420507187500 -2.37871070937500 
 N -2.23208495000000 -2.90723707187500 -3.51076670937500 
 N -2.87869495000000 -3.52920807187500 0.333448290625000 
 S -0.785633949999999 -6.83606207187500 -4.23079370937500 
 S -3.82646595000000 -6.39471307187500 -1.39996970937500 
 S -1.36222795000000 -6.77851607187500 -0.148577709375000 
 S -0.640086950000000 -3.31437907187500 -3.82959970937500 
 S -3.72514495000000 -3.25864407187500 -1.11197770937500 
 S -1.24524695000000 -3.75575907187500 0.227628290625000 
