16

 C -2.34039802187500 -6.53636512812499 -2.56936161875000 
 C -1.08750402187500 -6.84612912812499 -1.91057461875000 
 C -2.53963902187500 -2.48313612812499 -2.63287161875000 
 C -1.47487302187500 -3.04372312812499 -1.80949761875000 
 N 2.710697812500307E-002 -6.96917812812499 -2.66126961875000 
 N -2.13332602187500 -6.23257912812499 -3.84717961875000 
 N -2.89378802187500 -6.51901612812499 2.879038124999789E-002
 N -0.378087021874997 -3.34165112812499 -2.51608461875000 
 N -2.27983602187500 -2.31250412812499 -3.94284461875000 
 N -3.43036702187500 -2.86152912812499 -0.235466618750002 
 S -0.556764021874996 -6.53808512812499 -4.20146861875000 
 S -3.73382702187500 -6.28834212812499 -1.49408761875000 
 S -1.28586502187500 -6.82675812812499 -7.482961875000216E-002
 S -0.644664021874997 -2.76050712812499 -4.08211661875000 
 S -3.92784402187500 -2.32639412812499 -1.71589961875000 
 S -1.84425202187500 -3.23444212812499 -0.176217618750002 
