16

 C -2.48310219375000 -6.12339860937499 -2.72916142500000 
 C -1.33533019375000 -6.59994360937499 -2.01776042500000 
 C -2.49384519375000 -2.72948860937499 -2.49413042500000 
 C -1.20650219375000 -3.01712260937499 -1.83146042500000 
 N -0.290149193750000 -6.72754360937499 -2.79475942500000 
 N -2.34346819375000 -6.00244360937499 -4.04656742500000 
 N -3.15812519375000 -6.58851060937499 -0.218979424999999 
 N -0.186168193749999 -3.14299760937499 -2.66258042500000 
 N -2.32293819375000 -2.64408660937499 -3.79207542500000 
 N -3.02962119375000 -2.79619660937499 -4.371042499999933E-002
 S -0.753405193750000 -6.41074760937499 -4.36975542500000 
 S -3.89594719375000 -6.14808260937499 -1.62355242500000 
 S -1.55710019375000 -6.92244960937499 -0.314232424999999 
 S -0.760301193750000 -2.94555460937499 -4.23079542500000 
 S -3.84241119375000 -2.71417160937499 -1.50566942500000 
 S -1.42702619375000 -3.17684260937499 -0.135101424999999 
