16

 C -2.44824334375001 -6.32160781562500 -2.40183501250000 
 C -1.22822434375001 -6.80044581562500 -1.80156901250000 
 C -2.50286534375001 -2.48632181562500 -2.31238001250000 
 C -1.35295934375001 -3.04554981562500 -1.71977901250000 
 N -0.241535343750005 -6.94913081562500 -2.68042601250000 
 N -2.31741834375001 -5.98483881562500 -3.67330601250000 
 N -2.96257234375001 -6.32961781562500 7.647398749999912E-002
 N -0.343602343750005 -3.26306981562500 -2.54683401250000 
 N -2.38831134375001 -2.42419681562500 -3.64322201250000 
 N -3.09874634375001 -2.61117381562500 0.157674987499999 
 S -0.844202343750005 -6.44128381562500 -4.15933801250000 
 S -3.76098534375001 -6.07872581562500 -1.34455501250000 
 S -1.44070334375001 -7.03710481562500 -9.048501250000074E-002
 S -0.818981343750005 -2.81785481562500 -4.09533401250000 
 S -3.72871734375000 -1.95221781562500 -1.24766001250000 
 S -1.56104334375001 -3.25154981562500 -2.599501250000080E-002
