16

 C -2.27141862500000 -6.62368166875000 -2.53829655312500 
 C -1.02428762500000 -6.96462266875000 -1.94913955312500 
 C -2.49478962500000 -2.49975166875000 -2.49965555312500 
 C -1.29055862500000 -3.11628466875000 -1.94742555312500 
 N -7.297462500000407E-002 -7.41590466875000 -2.79776555312500 
 N -2.27841962500000 -6.68869166875000 -3.84618155312500 
 N -2.66713962500000 -6.40804366875000 -6.765555312500138E-002
 N -0.393510625000005 -3.37426366875000 -2.87862155312500 
 N -2.53932862500000 -2.49345066875000 -3.85258055312500 
 N -2.96157762500000 -2.90134166875000 5.706844687499868E-002
 S -0.843650625000004 -7.34759066875000 -4.26964355312500 
 S -3.54960762500000 -6.29976766875000 -1.47234655312500 
 S -1.07233762500000 -6.92062766875000 -0.233227553125001 
 S -0.968862625000004 -2.99213666875000 -4.36390255312500 
 S -3.71323462500000 -2.21407466875000 -1.29105155312500 
 S -1.42527662500000 -3.45409066875000 -0.261075553125001 
