16

 C -2.32135608750001 -6.35827786562500 -2.47623099687500 
 C -1.15500008750001 -6.82731586562500 -1.79784799687500 
 C -2.32665508750001 -2.57401286562500 -2.40256199687500 
 C -1.18672108750001 -3.07546286562500 -1.72745399687500 
 N -0.136543087500009 -6.99681386562500 -2.64558499687500 
 N -2.21847708750001 -6.16597186562500 -3.78361699687500 
 N -3.01652008750001 -6.67031686562500 2.076300312500146E-002
 N -0.167177087500009 -3.33730986562500 -2.50222599687500 
 N -2.19113208750001 -2.48939986562500 -3.70093099687500 
 N -3.00560108750001 -2.89293186562500 2.765400312500144E-002
 S -0.699269087500009 -6.58758286562500 -4.17884699687500 
 S -3.71065208750001 -6.29416286562500 -1.50300699687500 
 S -1.42778808750001 -7.06142586562500 -0.127181996874999 
 S -0.621935087500009 -3.02718086562500 -4.07116399687500 
 S -3.67423908750001 -2.37121586562500 -1.43702499687500 
 S -1.39284008750001 -3.13202786562500 -7.920996874998476E-003
