16

 C -2.55492898750000 -6.26414915937500 -2.39400593750000 
 C -1.29641298750000 -6.62941215937500 -1.79252593750000 
 C -2.49044098750000 -2.43425715937500 -2.88107593750000 
 C -1.32156898750000 -2.91803915937500 -2.13440693750000 
 N -0.204718987499997 -6.73770515937500 -2.55198593750000 
 N -2.42459298750000 -6.12067715937500 -3.72252293750000 
 N -3.00901998750000 -6.63242915937500 0.174127062500002 
 N -0.208478987499998 -2.97903515937500 -2.85856893750000 
 N -2.25373098750000 -2.13733615937500 -4.15688193750000 
 N -3.26885898750000 -2.72487615937500 -0.416316937499998 
 S -0.831723987499998 -6.43744415937500 -4.04548693750000 
 S -3.90191798750000 -6.55048615937500 -1.27250793750000 
 S -1.41000698750000 -6.89950615937500 -1.864093749999829E-002
 S -0.651576987499998 -2.53319815937500 -4.43642593750000 
 S -3.94703298750000 -2.23380115937500 -1.87703293750000 
 S -1.61786798750000 -3.13898115937500 -0.515512937499998 
