16

 C -2.28484940937500 -6.38582306562499 -2.46711551562500 
 C -1.11578340937500 -6.76127806562499 -1.72470551562500 
 C -2.57083840937500 -2.67367806562499 -2.44810751562500 
 C -1.34408040937500 -2.91403906562499 -1.78023851562500 
 N -2.461240937500087E-002 -6.90277306562499 -2.51712951562500 
 N -2.15218140937500 -6.45387206562499 -3.77286651562500 
 N -3.07361740937500 -6.41701106562499 -3.170451562500065E-002
 N -0.308930409375002 -3.04889106562499 -2.57060951562500 
 N -2.43359540937500 -2.60745406562499 -3.74779551562500 
 N -3.21567240937500 -2.85893506562499 -2.611051562500077E-002
 S -0.614640409375001 -6.88618406562499 -4.11109751562500 
 S -3.72340140937500 -6.15584406562499 -1.54512651562500 
 S -1.44740440937500 -6.83002206562499 -2.286051562500058E-002
 S -0.817752409375001 -2.75967006562499 -4.14823151562500 
 S -3.98612040937500 -2.65933006562499 -1.47092651562500 
 S -1.57896540937500 -3.20795706562499 -0.101892515625001 
