16

 C -2.30977638750000 -6.65381702187500 -2.49738167500000 
 C -1.13528338750000 -7.12267002187500 -1.83007167500000 
 C -2.39585438750000 -2.93292602187500 -2.50165467500000 
 C -1.22324138750000 -3.49840702187500 -1.80140967500000 
 N -8.964238750000053E-002 -7.11959902187500 -2.66674167500000 
 N -2.17391238750000 -6.28703702187500 -3.77543667500000 
 N -2.98154338750000 -6.90617302187500 -4.121367500000028E-002
 N -0.140404387500000 -3.60086902187500 -2.59537367500000 
 N -2.19983538750000 -2.81309402187500 -3.80580767500000 
 N -3.06773238750000 -3.20994602187500 -8.106867500000003E-002
 S -0.596825387500001 -6.60998302187500 -4.13786267500000 
 S -3.67753538750000 -6.53555002187500 -1.45721467500000 
 S -1.36300838750000 -7.38219902187500 -0.100517675000000 
 S -0.651141387500001 -3.21713902187500 -4.19812467500000 
 S -3.73540638750000 -2.63104002187500 -1.44705667500000 
 S -1.46369838750000 -3.73770602187500 -0.128391675000000 
