16

 C -2.51004671875000 -6.27315586250000 -2.48613285625000 
 C -1.32529771875000 -6.65406086250000 -1.80759685625000 
 C -2.43364971875000 -2.34146886250000 -2.33453085625000 
 C -1.30279271875000 -2.95603486250000 -1.73911085625000 
 N -0.288940718750000 -6.96351586250000 -2.52584985625000 
 N -2.32718671875000 -6.22630586250000 -3.78585085625000 
 N -3.06569071875000 -6.56215686250000 4.017414374999917E-002
 N -0.317684718750000 -3.08239686250000 -2.60448185625000 
 N -2.30148771875000 -2.04453786250000 -3.63561285625000 
 N -3.04899171875000 -2.91056986250000 4.897614374999915E-002
 S -0.717079718750000 -6.59731486250000 -4.07703885625000 
 S -3.81509471875000 -5.90095586250000 -1.36430685625000 
 S -1.46050571875000 -6.89087286250000 -8.237785625000082E-002
 S -0.807941718750000 -2.65489186250000 -4.11681185625000 
 S -3.70836471875000 -2.10200086250000 -1.23984885625000 
 S -1.37537471875000 -3.21087386250000 -4.168585625000087E-002
