16

 C -2.44433850625000 -6.47333704374999 -2.60901275000000 
 C -1.17748850625000 -6.95859004374999 -2.01458675000000 
 C -2.30406150625000 -2.57793204374999 -2.49577075000000 
 C -1.14180050625000 -3.23961404374999 -2.02432375000000 
 N -0.224463506249999 -7.27338704374999 -2.87721475000000 
 N -2.34249450625000 -6.36018404374999 -3.93107275000000 
 N -2.91753950625000 -6.50366504374999 -3.927875000000092E-002
 N -0.146334506249999 -3.20958904374999 -2.93165575000000 
 N -2.25448150625000 -2.06648404374999 -3.73696575000000 
 N -2.66146450625000 -3.16275404374999 6.783249999998908E-003
 S -0.775838506249999 -6.82944304374999 -4.41618475000000 
 S -3.75330350625000 -6.28462204374999 -1.44738175000000 
 S -1.37039350625000 -7.24066904374999 -0.281985750000001 
 S -0.762789506249999 -2.44606204374999 -4.23323075000000 
 S -3.52540050625000 -2.52253404374999 -1.26746675000000 
 S -1.09862850625000 -3.62958704374999 -0.346721750000001 
