16

 C -2.65233754375000 -6.41044447500000 -2.31971410625000 
 C -1.46244654375000 -6.91561547500000 -1.64242410625000 
 C -2.47959154375000 -2.71239847500000 -2.42603010625000 
 C -1.24601454375000 -3.09002447500000 -1.87875610625000 
 N -0.472874543750003 -7.21222947500000 -2.45005310625000 
 N -2.54231954375000 -6.30348447500000 -3.63534310625000 
 N -3.17931254375000 -6.46402147500000 0.186937893750001 
 N -0.282341543750003 -3.48746547500000 -2.73084210625000 
 N -2.49686354375000 -2.63015647500000 -3.76467010625000 
 N -2.90908054375000 -2.92401747500000 0.152347893750001 
 S -1.00380154375000 -6.90408547500000 -3.98990710625000 
 S -4.02027354375000 -6.17456047500000 -1.24532410625000 
 S -1.58123854375000 -6.95990647500000 4.819789375000139E-002
 S -0.957881543750004 -3.14864647500000 -4.23746310625000 
 S -3.75394454375000 -2.63027747500000 -1.28311010625000 
 S -1.31921354375000 -3.34226547500000 -0.116084106249999 
