16

 C -2.25792757500000 -6.27585800000000 -2.15003673125000 
 C -1.00376657500000 -6.76791100000000 -1.60543473125000 
 C -2.49312957500000 -2.76468600000000 -2.45078073125000 
 C -1.27358057500000 -3.15547600000000 -1.77019373125000 
 N -0.123598575000003 -6.85499200000000 -2.61534073125000 
 N -2.31961457500000 -6.10341700000000 -3.49231273125000 
 N -2.65830957500000 -6.67174800000000 0.459636268750001 
 N -0.191112575000004 -3.42950600000000 -2.48947273125000 
 N -2.29337257500000 -2.70588400000000 -3.77761173125000 
 N -3.00907357500000 -2.72928800000000 5.050626875000086E-002
 S -0.809994575000004 -6.37063500000000 -4.04286173125000 
 S -3.50142857500000 -6.11421300000000 -0.871815731249999 
 S -1.13707957500000 -7.19806000000000 0.119601268750001 
 S -0.669539575000003 -3.06854800000000 -4.01147173125000 
 S -3.75055857500000 -2.32907900000000 -1.39086273125000 
 S -1.53074157500000 -3.41465700000000 -7.248573124999913E-002
