16

 C -2.35165164062501 -6.04095127500001 -2.19422114375000 
 C -1.14485264062501 -6.64282527500001 -1.62535414375000 
 C -2.63934164062501 -2.49374527500001 -2.54641314375000 
 C -1.37573564062501 -2.84926427500001 -1.89741514375000 
 N -0.202376640625006 -6.95116027500001 -2.50931114375000 
 N -2.29208064062501 -5.84553327500001 -3.50242814375000 
 N -2.78199564062501 -6.21827327500001 0.342052856249998 
 N -0.350352640625006 -3.13055427500001 -2.71531714375000 
 N -2.51653364062501 -2.40140827500001 -3.87789314375000 
 N -3.15072764062501 -2.38931727500001 -1.548314375000226E-002
 S -0.826944640625006 -6.43067527500001 -3.96918914375000 
 S -3.63651164062501 -5.87222527500001 -1.00097314375000 
 S -1.23070864062501 -6.86849927500001 9.607985624999782E-002
 S -0.976385640625006 -2.79650027500001 -4.33217014375000 
 S -3.91292164062501 -2.07133627500001 -1.44171114375000 
 S -1.54151264062501 -2.93605827500001 -0.148947143750002 
