16

 C -2.34204884375000 -6.53088965625000 -2.43217328437500 
 C -1.12330084375000 -6.88110165625000 -1.74155228437500 
 C -2.49142384375000 -3.19784565625000 -2.28950828437500 
 C -1.23081584375000 -3.49100165625000 -1.64640828437500 
 N -7.141884375000362E-002 -6.96821065625000 -2.52937028437500 
 N -2.22316284375000 -6.44113865625000 -3.74370128437500 
 N -3.05819584375000 -6.68672865625000 7.702715624999801E-003
 N -0.241732843750003 -3.63987565625000 -2.48012528437500 
 N -2.40517284375000 -3.16034265625000 -3.63856128437500 
 N -2.96480084375000 -3.33692265625000 0.253012715625000 
 S -0.672002843750003 -6.82964965625000 -4.11085228437500 
 S -3.71955184375000 -6.34633165625000 -1.43471628437500 
 S -1.39098184375000 -6.95035365625000 1.023171562499980E-002
 S -0.797808843750003 -3.43369265625000 -4.02245028437500 
 S -3.86525184375000 -3.35781865625000 -1.18480928437500 
 S -1.29923284375000 -3.56345365625000 6.161071562499987E-002
