16

 C -2.18040883437500 -6.51456497812500 -2.53000797500000 
 C -1.03675683437500 -7.03380797812500 -1.83271497500000 
 C -2.64027783437500 -2.36523897812500 -2.39752197500000 
 C -1.55004683437500 -2.97638897812500 -1.78090397500000 
 N -9.561834374995470E-003 -7.31631797812500 -2.62407397500000 
 N -2.05876583437500 -6.36055897812500 -3.84359797500000 
 N -2.71209183437500 -6.53988697812500 1.074302500000002E-002
 N -0.527476834374996 -3.22204997812500 -2.58632397500000 
 N -2.50458783437500 -2.18118797812500 -3.70109797500000 
 N -3.22312683437500 -2.63300897812500 4.453802500000004E-002
 S -0.485641834374996 -6.83929397812500 -4.15142097500000 
 S -3.46530183437500 -6.11266797812500 -1.40448497500000 
 S -1.27503483437500 -7.34218497812500 -0.124993975000000 
 S -0.998873834374995 -2.87331897812500 -4.12914797500000 
 S -3.87541683437500 -1.85581597812500 -1.31718497500000 
 S -1.69264083437500 -3.19030997812500 -3.580897500000013E-002
