16

 C -2.70243959687500 -6.33961863750000 -2.39743216875000 
 C -1.50749859687500 -6.99235563750000 -1.85636416875000 
 C -2.42699459687500 -2.79755963750000 -2.24792416875000 
 C -1.37783759687500 -3.48883763750000 -1.66620216875000 
 N -0.573557596874998 -7.16748663750000 -2.75966016875000 
 N -2.61007659687500 -5.91948663750000 -3.65681916875000 
 N -3.10113259687500 -6.77606363750000 0.171848831249997 
 N -0.338738596874999 -3.73546263750000 -2.44302516875000 
 N -2.30116059687500 -2.64824063750000 -3.55412116875000 
 N -3.15026959687500 -3.19158263750000 0.179954831249997 
 S -1.12146359687500 -6.49761363750000 -4.20977116875000 
 S -3.82813959687500 -6.00718363750000 -1.12077816875000 
 S -1.58269259687500 -7.30251463750000 -0.154316168750003 
 S -0.767730596874999 -3.17017663750000 -3.99743916875000 
 S -3.73300059687500 -2.44480563750000 -1.20296716875000 
 S -1.61889759687500 -3.79284363750000 3.558383124999742E-002
