16

 C -2.56280773125000 -6.30113906562500 -2.45452037812500 
 C -1.29938173125000 -6.59187506562500 -1.80457037812500 
 C -2.76844673125000 -2.61682006562500 -2.58661837812500 
 C -1.52077373125000 -3.03638206562500 -2.01623937812500 
 N -0.264583731250002 -6.72734606562500 -2.63474637812500 
 N -2.47788273125000 -6.16261106562500 -3.78167637812500 
 N -3.14675473125000 -6.58581006562500 9.328621875002607E-003
 N -0.525163731250002 -3.06740906562500 -2.87898537812500 
 N -2.69966773125000 -2.50015306562500 -3.89388437812500 
 N -3.20863473125000 -3.12226106562500 -5.930537812499725E-002
 S -0.888996731250002 -6.42518706562500 -4.17558537812500 
 S -3.94515573125000 -6.42281506562500 -1.46529337812500 
 S -1.53066573125000 -6.89498406562500 -0.103148378124998 
 S -1.08572073125000 -2.74810906562500 -4.31458737812500 
 S -4.02374773125000 -2.43855006562500 -1.32818237812500 
 S -1.55730673125000 -3.36658306562500 -0.270985378124998 
