16

 C -2.39983167499999 -6.54581429374999 -2.37127553125000 
 C -1.14768867499999 -6.93624629374999 -1.71607353125000 
 C -2.18715167499999 -2.53468229374999 -2.20262853125000 
 C -1.09148367499999 -3.35480529374999 -1.66207153125000 
 N -0.167190674999994 -7.12715629374999 -2.56174453125000 
 N -2.33502267499999 -6.38051229374999 -3.68998153125000 
 N -2.91503167499999 -6.69408229374999 8.648746874999746E-002
 N -5.786567499999418E-002 -3.45573729374999 -2.49399953125000 
 N -1.92817067499999 -2.05659729374999 -3.42838353125000 
 N -2.81199167499999 -3.20849129374999 0.221910468749998 
 S -0.755141674999994 -6.66034629374999 -4.06949653125000 
 S -3.75762567499999 -6.46761929374999 -1.39094653125000 
 S -1.32646967499999 -7.14114329374999 -8.181531250002427E-003
 S -0.404343674999994 -2.68350429374999 -3.86091953125000 
 S -3.60559567499999 -2.55217329374999 -1.13781753125000 
 S -1.24073667499999 -3.73397229374999 2.218046874999757E-002
