16

 C -2.42545966250000 -6.43445550312500 -2.61476925000000 
 C -1.19623366250000 -6.95978350312500 -1.98759025000000 
 C -2.33799866250000 -2.68952250312500 -2.54704525000000 
 C -1.07929366250000 -3.16823750312500 -2.09436825000000 
 N -0.174227662500002 -7.15887450312500 -2.81623125000000 
 N -2.27448066250000 -6.30207950312499 -3.94639225000000 
 N -2.89361866250000 -6.56987350312500 -0.162344250000001 
 N -0.103540662500001 -3.08646350312500 -3.01059425000000 
 N -2.27465766250000 -2.15266550312500 -3.77952925000000 
 N -2.66583766250000 -3.21943350312500 -7.806825000000095E-002
 S -0.801238662500001 -6.86409250312500 -4.30271925000000 
 S -3.67946666250000 -6.19970950312500 -1.55747025000000 
 S -1.31452566250000 -7.11651550312500 -0.262554250000001 
 S -0.658348662500002 -2.34526250312500 -4.33170125000000 
 S -3.60348366250000 -2.55346250312500 -1.26492725000000 
 S -1.10428766250000 -3.62525250312500 -0.455520250000001 
