16

 C -2.48882356250001 -6.37018173124999 -2.27890734375000 
 C -1.30568556250001 -6.90588373124999 -1.69722934375000 
 C -2.64415656250001 -3.13290273124999 -2.52810534375000 
 C -1.40110056250001 -3.36473273124999 -1.81925834375000 
 N -0.306486562500009 -7.08474173124999 -2.53440134375000 
 N -2.45242756250001 -6.16769173124999 -3.56889934375000 
 N -3.05169556250001 -6.59676673124999 0.156515656250000 
 N -0.316277562500009 -3.38738173124999 -2.59371834375000 
 N -2.47623256250001 -2.86541973124999 -3.84177834375000 
 N -3.12488156250001 -3.06226173124999 0.126878656250000 
 S -0.935795562500009 -6.65937573124999 -4.06049934375000 
 S -3.85532956250001 -6.13031073124999 -1.22960434375000 
 S -1.47750756250001 -7.04603473124999 6.254656249999879E-003
 S -0.900225562500009 -3.16647473124999 -4.15090134375000 
 S -3.90877856250001 -3.00648873124999 -1.28370034375000 
 S -1.54748256250001 -3.54050473124999 -8.026134374999994E-002
