16

 C -2.29696893437500 -6.46176789687500 -2.24391328750000 
 C -1.07916593437500 -6.99474389687500 -1.61961328750000 
 C -2.34982193437500 -2.62047789687500 -2.49816828750000 
 C -1.13702793437500 -3.23947589687500 -2.02577728750000 
 N -0.133529934375000 -7.19645889687500 -2.54216928750000 
 N -2.29317793437500 -6.21337989687500 -3.54439428750000 
 N -2.83080293437500 -6.68105289687500 0.329333712500000 
 N -0.161178934375000 -3.40276789687500 -2.95638028750000 
 N -2.29060093437500 -2.26496189687500 -3.79818928750000 
 N -2.74611093437500 -3.15086989687500 3.506712500000342E-003
 S -0.758197934375000 -6.74367189687500 -4.01737728750000 
 S -3.59862393437500 -6.44441989687500 -1.14117928750000 
 S -1.23260193437500 -7.16745789687500 7.992771250000019E-002
 S -0.889793934375000 -2.78780589687500 -4.36069228750000 
 S -3.50815293437500 -2.42547489687500 -1.21630328750000 
 S -1.15195393437500 -3.48968989687500 -0.249195287500000 
