16

 C -2.43596542812500 -6.26426968437500 -2.29642305937500 
 C -1.30369842812500 -6.88708968437500 -1.64813905937500 
 C -2.36294142812500 -2.29652168437500 -2.52961805937500 
 C -1.20485342812500 -2.83293668437500 -1.86765005937500 
 N -0.256752428125002 -7.09225068437500 -2.44570705937500 
 N -2.26086542812500 -6.15548668437500 -3.59968705937500 
 N -3.13207342812500 -6.64006968437500 0.128484940625002 
 N -0.227665428125002 -3.09761968437500 -2.71461005937500 
 N -2.29722542812500 -2.16392568437500 -3.85033105937500 
 N -2.93413642812500 -2.41252368437500 -9.200593749980612E-004
 S -0.676877428125001 -6.56919768437500 -3.99100605937500 
 S -3.75411442812500 -5.95043368437500 -1.28582905937500 
 S -1.60572542812500 -7.22415068437500 2.709094062500217E-002
 S -0.716201428125002 -2.73266468437500 -4.16829505937500 
 S -3.63452742812500 -1.83709468437500 -1.39890605937500 
 S -1.40319542812500 -3.01598468437500 -0.154950059374998 
