16

 C -2.53163173437500 -6.60871508125000 -2.43016860937500 
 C -1.22821073437500 -6.97353308125000 -1.95912160937500 
 C -2.57228173437500 -2.74514508125000 -2.56050160937500 
 C -1.41534973437500 -3.27030708125000 -1.77495660937500 
 N -0.243132734374998 -6.99439008125000 -2.87438460937500 
 N -2.57088273437500 -6.34128308125000 -3.72791260937500 
 N -2.92965373437500 -6.93599608125000 7.138539062499949E-002
 N -0.317218734374998 -3.48822508125000 -2.51235660937500 
 N -2.40816773437500 -2.75267808125000 -3.90783860937500 
 N -3.28666873437500 -2.70804608125000 -3.590560937500031E-002
 S -1.02153773437500 -6.58156408125000 -4.29047560937500 
 S -3.74774673437500 -6.47774308125000 -1.26673160937500 
 S -1.37884673437500 -7.31074008125000 -0.245465609375001 
 S -0.855677734374998 -3.18520908125000 -4.10357960937500 
 S -3.91330273437500 -2.25733008125000 -1.50339160937500 
 S -1.70742273437500 -3.23819608125000 -0.101945609375000 
