16

 C -2.53263030625000 -6.63993941250000 -2.31678532187500 
 C -1.25899030625000 -6.80202441249999 -1.66448532187500 
 C -2.38957030625000 -2.60733841249999 -2.44793432187500 
 C -1.21672830625000 -3.23791641249999 -1.73386832187500 
 N -0.264125306250001 -6.82323541249999 -2.57095432187500 
 N -2.47218430625000 -6.57918041249999 -3.65792732187500 
 N -3.03074130625000 -6.86705841250000 0.192389678125000 
 N -0.140414306250001 -3.50135041249999 -2.48077732187500 
 N -2.14276830625000 -2.50337441250000 -3.74481732187500 
 N -3.19852830625000 -3.08630341250000 -7.853321875000319E-003
 S -0.925510306250001 -6.76616441249999 -4.06136932187500 
 S -3.86946530625000 -6.77646541250000 -1.22928132187500 
 S -1.40336930625000 -7.12497441249999 -2.227321875000410E-003
 S -0.617032306250001 -2.97172941249999 -3.98792332187500 
 S -3.76209830625000 -2.36360141249999 -1.40324232187500 
 S -1.60071730625000 -3.56480041250000 -6.304932187500034E-002
