16

 C -2.51178375625000 -6.50205181875000 -2.56734573437500 
 C -1.32642175625000 -6.77189681875000 -1.85981773437500 
 C -2.47819275625000 -2.55128481875000 -2.38859073437500 
 C -1.24903575625000 -3.03959881875000 -1.77470073437500 
 N -0.192640756250000 -6.75240781875000 -2.56350773437500 
 N -2.27572975625000 -6.33063581875000 -3.85528573437500 
 N -3.13647675625000 -6.61110081875001 -3.738973437499959E-002
 N -0.270977756250001 -3.23551381875000 -2.63313573437500 
 N -2.39772275625000 -2.55692281875000 -3.70717473437500 
 N -2.98145475625000 -2.71100481875000 9.494326562500044E-002
 S -0.656384756250000 -6.45160581875001 -4.12742373437500 
 S -3.95215175625000 -6.34940181875000 -1.50611373437500 
 S -1.49581375625000 -6.97988981875000 -0.164612734375000 
 S -0.779652756250000 -2.92492281875001 -4.18440873437500 
 S -3.80258275625000 -2.22564581875000 -1.32486273437500 
 S -1.38534775625000 -3.19096881875000 -7.273073437499966E-002
