16

 C -2.65111876562500 -6.39119901874999 -2.51987982187500 
 C -1.39319276562500 -6.91586601874999 -1.99276482187500 
 C -2.67930176562500 -2.95500101874999 -2.38801082187500 
 C -1.46996176562500 -3.28634101874999 -1.61007782187500 
 N -0.502475765625004 -7.07896501874999 -2.95274082187500 
 N -2.62336776562500 -6.13618801874999 -3.81688582187500 
 N -2.99358876562500 -6.77259501874999 6.129417812500337E-002
 N -0.389323765625003 -3.55840901874999 -2.35277182187500 
 N -2.51532876562500 -3.01942901874999 -3.71474782187500 
 N -3.38390776562500 -2.81290901874999 0.121779178125003 
 S -1.08597076562500 -6.52638701874999 -4.41772382187500 
 S -3.77652776562500 -5.98250901874999 -1.17763182187500 
 S -1.35016076562500 -7.20615101874999 -0.277459821874997 
 S -0.919572765625004 -3.49330501874999 -3.93742082187500 
 S -4.02158476562500 -2.65194701874999 -1.38392582187500 
 S -1.81342676562500 -3.43312601874999 0.109173178125003 
