16

 C -2.35179315000000 -6.36972360000000 -2.53893984062500 
 C -1.14352815000000 -6.82627560000000 -1.84342184062500 
 C -2.29379415000000 -2.94016360000000 -2.43275384062500 
 C -1.01399915000000 -3.19732160000000 -1.85023384062500 
 N -2.861114999999614E-002 -6.93531760000000 -2.57596884062500 
 N -2.15573115000000 -6.27446260000000 -3.85185584062500 
 N -2.94721115000000 -6.51536160000000 -2.042384062499880E-002
 N -6.284114999999613E-002 -3.40795660000000 -2.73793284062500 
 N -2.31467315000000 -2.84002560000000 -3.75475984062500 
 N -2.71035215000000 -2.89414560000000 6.193715937500133E-002
 S -0.546935149999997 -6.66719460000000 -4.17605084062500 
 S -3.65932015000000 -6.06540760000000 -1.44490484062500 
 S -1.27538215000000 -6.74751760000000 -0.102801840624999 
 S -0.741324149999997 -3.09443760000000 -4.27050084062500 
 S -3.59791415000000 -2.74216460000000 -1.27229284062500 
 S -1.14006215000000 -3.37521760000000 -0.115060840624999 
