16

 C -2.29789040937500 -6.56661761562500 -2.50581955312500 
 C -1.00206840937500 -6.94744361562501 -1.94420855312500 
 C -2.49626240937500 -2.51632761562500 -2.52577255312500 
 C -1.30862540937500 -3.08820961562500 -1.93921255312500 
 N -9.325540937499799E-002 -7.35690661562500 -2.77979455312500 
 N -2.30053940937500 -6.58085961562500 -3.82937755312500 
 N -2.67933040937500 -6.36976661562500 -5.406355312500000E-002
 N -0.373024409374999 -3.38232861562500 -2.83332955312500 
 N -2.45730440937500 -2.40755861562501 -3.84955955312500 
 N -2.98172840937500 -2.95116061562500 8.194446874999928E-003
 S -0.876231409374999 -7.31902061562500 -4.26432555312500 
 S -3.53358140937500 -6.31960761562500 -1.44592455312500 
 S -1.04107740937500 -6.91458761562500 -0.224501553125000 
 S -0.986573409374999 -3.03183161562500 -4.34529355312500 
 S -3.73767340937500 -2.21901661562501 -1.28585055312500 
 S -1.37827740937500 -3.47822661562500 -0.243645553125000 
