16

 C -2.67720907187500 -6.66448148125000 -2.35904969375000 
 C -1.46483507187500 -7.16897448125000 -1.74537469375000 
 C -2.21909807187500 -2.98317548125000 -2.29713069375000 
 C -1.01848507187500 -3.37114848125000 -1.65953769375000 
 N -0.468485071875000 -7.37962648125000 -2.61977369375000 
 N -2.64891307187500 -6.56270448125000 -3.71370969375000 
 N -3.09242907187500 -6.92848448125000 0.228634306250001 
 N 6.613792812500030E-002 -3.57034548125000 -2.43044069375000 
 N -2.16254007187500 -2.88571048125000 -3.63575169375000 
 N -2.88042907187500 -3.25244048125000 0.240891306250001 
 S -1.07191507187500 -7.01929948125000 -4.14808569375000 
 S -3.99807807187500 -6.45189548125000 -1.08975469375000 
 S -1.53489207187500 -7.29704948125000 2.841306250000786E-003
 S -0.557162071874999 -3.25367548125000 -3.94794369375000 
 S -3.55598807187500 -2.67483848125000 -1.17472269375000 
 S -1.29762707187500 -3.74752748125000 7.005930625000079E-002
