16

 C -2.44282397500000 -6.53927436562500 -2.32428407187500 
 C -1.29022397500000 -7.01867336562500 -1.58287307187500 
 C -2.48480397500000 -2.80070436562500 -2.42314307187500 
 C -1.22152097500000 -3.17919936562500 -1.75536307187500 
 N -0.194475974999998 -7.17343636562500 -2.29281707187500 
 N -2.21948497500000 -6.39838836562500 -3.61117507187500 
 N -3.10311397500000 -6.61123336562500 0.180687928125001 
 N -0.194492974999998 -3.15244536562500 -2.61061807187500 
 N -2.30651297500000 -2.47844536562500 -3.69048907187500 
 N -3.11991297500000 -3.30671936562500 -1.741407187499866E-002
 S -0.613678974999998 -6.76757236562500 -3.86049507187500 
 S -3.81668897500000 -6.26121136562500 -1.27847207187500 
 S -1.56009197500000 -7.24514136562500 0.130256928125001 
 S -0.664629974999998 -2.69203736562500 -4.09524007187500 
 S -3.84429397500000 -2.73073136562500 -1.40986007187500 
 S -1.44082797500000 -3.49690636562500 -8.887307187499882E-002
