16

 C -2.56851797500000 -6.27596290937500 -2.36768951250000 
 C -1.43483097500000 -6.81090490937500 -1.68424251250000 
 C -2.51961197500000 -3.05265190937500 -2.40252051250000 
 C -1.23233697500000 -3.25953490937500 -1.77843951250000 
 N -0.556511975000004 -7.31048090937500 -2.53799151250000 
 N -2.52194297500000 -6.25884290937500 -3.67725251250000 
 N -3.24097297500000 -6.39460790937500 9.899548750000053E-002
 N -0.213663975000004 -3.40799990937500 -2.60175851250000 
 N -2.47292997500000 -3.07719290937500 -3.71908951250000 
 N -2.86038197500000 -3.04846290937500 0.183843487500000 
 S -1.13347997500000 -7.02172790937500 -4.06272451250000 
 S -3.96331197500000 -6.03627090937500 -1.33120851250000 
 S -1.57297797500000 -6.84819390937500 2.103948750000040E-002
 S -0.854149975000004 -3.17217090937500 -4.12962751250000 
 S -3.77916697500000 -3.24128790937500 -1.17881251250000 
 S -1.24334497500000 -3.23140990937500 -5.720551249999950E-002
