16

 C -2.45363776875000 -6.56202241562500 -2.32726938437500 
 C -1.17004076875000 -6.73350841562501 -1.67339638437500 
 C -2.62845676875000 -2.82039741562500 -2.63256938437500 
 C -1.33079976875000 -3.14825141562500 -2.08538338437500 
 N -0.190460768749997 -6.72349141562500 -2.57829338437500 
 N -2.45847776875000 -6.41957041562500 -3.63883438437500 
 N -2.99670376875000 -6.74752741562500 0.133332615625000 
 N -0.346964768749997 -3.18037841562500 -2.97384438437500 
 N -2.59495676875000 -2.44478841562500 -3.88089438437500 
 N -2.97029976875000 -3.17889541562500 -6.214638437500009E-002
 S -0.850518768749997 -6.32083541562500 -4.07033038437500 
 S -3.81127076875000 -6.47546241562500 -1.31388338437500 
 S -1.36500376875000 -7.00473341562500 2.491615624999888E-003
 S -0.984823768749997 -2.69870541562500 -4.38836838437500 
 S -3.89157576875000 -2.80615241562500 -1.38183638437500 
 S -1.33241176875000 -3.38599741562500 -0.340094384375000 
