16

 C -2.31524052500000 -6.44208943750000 -2.44894313125000 
 C -1.08046852500000 -6.72617443750000 -1.76988813125000 
 C -2.54827152500000 -2.64125343750000 -2.57752213125000 
 C -1.40183352500000 -3.13911343750000 -1.78996513125000 
 N -6.706852500000160E-002 -6.91666243750000 -2.58193313125000 
 N -2.20063352500000 -6.31358643750000 -3.76050113125000 
 N -2.85603552500000 -6.69901143750000 5.549386875000151E-002
 N -0.437654525000002 -3.55702443750000 -2.60802013125000 
 N -2.34454352500000 -2.66243343750000 -3.91500413125000 
 N -3.28809252500000 -2.93870643750000 -5.866613124999831E-002
 S -0.642242525000002 -6.67163843750000 -4.12588313125000 
 S -3.64601552500000 -6.27932243750000 -1.37288613125000 
 S -1.19632052500000 -6.89232843750000 -1.270913124999851E-002
 S -0.834032525000001 -3.25063743750000 -4.17290613125000 
 S -3.94888552500000 -2.45882043750000 -1.54856313125000 
 S -1.68447852500000 -3.38991843750000 -9.731413124999855E-002
