16

 C -2.39550976562501 -6.37453665625000 -2.32837914062500 
 C -1.08564076562501 -6.74989165625000 -1.73042514062500 
 C -2.53416676562501 -2.72014465625000 -2.41413214062500 
 C -1.44709176562501 -3.39762765625000 -1.74496214062500 
 N -0.140051765625006 -6.94592765625000 -2.66957414062500 
 N -2.36958576562501 -6.09084065625000 -3.60945614062500 
 N -2.88406076562501 -6.74598565625000 0.178967859375001 
 N -0.391118765625006 -3.70214265625000 -2.51243514062500 
 N -2.26085676562501 -2.43658365625000 -3.68978214062500 
 N -3.30840976562501 -2.91583365625000 -1.688114062499912E-002
 S -0.836004765625005 -6.50318065625000 -4.10651214062500 
 S -3.66352376562501 -6.47371465625000 -1.24209414062500 
 S -1.29017876562501 -7.20994765625000 -1.730414062499896E-002
 S -0.765064765625006 -3.12494765625000 -4.00923214062500 
 S -4.01717776562501 -2.58209865625000 -1.45627114062500 
 S -1.75261176562501 -3.58381865625000 -6.846414062499906E-002
