16

 C -2.29790579375000 -6.31178395000001 -2.57974841250000 
 C -1.04801879375000 -6.56449195000001 -1.93243941250000 
 C -2.79497379375000 -2.81004095000001 -2.33937441250000 
 C -1.59797579375000 -3.23245895000001 -1.72695541250000 
 N -0.109559793749998 -6.83579795000001 -2.81951141250000 
 N -2.33867579375000 -6.36888095000001 -3.90123941250000 
 N -2.76484779375000 -6.36621395000001 -2.818641249999976E-002
 N -0.560650793749999 -3.47756295000001 -2.53448041250000 
 N -2.69256679375000 -2.64787695000001 -3.65342041250000 
 N -3.29767479375000 -2.81993295000001 0.186563587500000 
 S -0.798015793749999 -6.75845295000001 -4.32593241250000 
 S -3.61682679375000 -6.06802895000001 -1.43014941250000 
 S -1.16450279375000 -6.73074195000001 -0.224435412500000 
 S -1.13680379375000 -3.04475995000001 -4.05029941250000 
 S -4.13026779375000 -2.49783495000001 -1.22786141250000 
 S -1.70831679375000 -3.21143895000001 6.028058750000032E-002
