16

 C -2.36285985937500 -6.54841746562501 -2.47912151875000 
 C -1.21805985937500 -7.01060646562501 -1.75174151875000 
 C -2.32997785937500 -2.90304046562501 -2.51903951875000 
 C -1.20391785937500 -3.37616146562501 -1.85833951875000 
 N -9.802885937500427E-002 -7.18841146562501 -2.44754451875000 
 N -2.09056985937500 -6.41249746562501 -3.76247351875000 
 N -3.15328685937500 -6.82110646562501 -3.463251875000051E-002
 N -0.105507859375004 -3.46509546562501 -2.59427451875000 
 N -2.22945085937500 -2.75719046562501 -3.82708851875000 
 N -2.98746185937500 -3.12543346562501 -8.885551875000042E-002
 S -0.514517859375005 -6.84639646562501 -3.99068151875000 
 S -3.74616085937500 -6.33302646562501 -1.47224551875000 
 S -1.57027885937500 -7.33382246562501 -0.100581518750001 
 S -0.658244859375005 -3.10990246562501 -4.17971651875000 
 S -3.66817385937500 -2.67459046562501 -1.47576651875000 
 S -1.41895385937501 -3.68071546562501 -0.215631518750000 
