16

 C -2.24610404375001 -6.38956019375000 -2.14506360312500 
 C -1.04445304375001 -6.95339319375000 -1.52918460312500 
 C -2.35328004375001 -2.70653519375000 -2.26526160312500 
 C -1.23243204375001 -3.30723219375000 -1.72728660312500 
 N -1.539204375000569E-002 -7.24851619375000 -2.32319060312500 
 N -2.09779004375001 -6.18427119375000 -3.43611760312500 
 N -2.86090604375001 -6.75682519375000 0.296860396875000 
 N -0.234450043750006 -3.38113719375000 -2.59254960312500 
 N -2.30498404375001 -2.29274819375000 -3.51594060312500 
 N -2.93746304375001 -3.13817119375000 0.195717396875000 
 S -0.576056043750006 -6.79735619375000 -3.85374060312500 
 S -3.61057704375001 -6.39968719375000 -1.12140360312500 
 S -1.26338404375001 -7.25955319375000 0.151408396875000 
 S -0.742863043750006 -2.77435719375000 -4.04245460312500 
 S -3.70228004375001 -2.61594819375000 -1.19655160312500 
 S -1.36649004375001 -3.62008219375000 -5.195260312499994E-002
