16

 C -2.48612723750001 -6.79816329687500 -2.21637121562500 
 C -1.16984623750001 -7.12969229687500 -1.64484721562500 
 C -2.58837723750001 -2.81984929687500 -2.39188821562500 
 C -1.29442923750001 -3.25671429687500 -1.80189521562500 
 N -0.191225237500007 -7.30108229687500 -2.52560921562500 
 N -2.46302023750001 -6.73072529687500 -3.56078921562500 
 N -2.81312823750001 -7.11250929687500 0.306768784375000 
 N -0.295114237500007 -3.40727329687500 -2.68354721562500 
 N -2.57110423750001 -2.59275629687500 -3.71148721562500 
 N -2.95612923750001 -2.95922329687500 0.123312784375000 
 S -0.925372237500008 -7.01528629687500 -3.98261221562500 
 S -3.69391023750001 -6.65575429687500 -1.02333121562500 
 S -1.19729923750001 -7.34088629687500 0.101011784375000 
 S -1.01630823750001 -2.91153129687500 -4.15050421562500 
 S -3.83178323750001 -2.51920829687500 -1.25351821562500 
 S -1.37402423750001 -3.44000629687500 -0.102227215625000 
