16

 C -2.16468515312500 -6.39672926875000 -2.41286553750000 
 C -0.947065153125000 -6.80458326875000 -1.77587353750000 
 C -2.59771415312500 -2.88087026875000 -2.53657953750000 
 C -1.39995715312500 -3.26534826875000 -1.81151253750000 
 N 4.485684687500058E-002 -6.80516426875000 -2.64895853750000 
 N -2.13630415312500 -6.23606426875000 -3.71847853750000 
 N -2.61233215312500 -6.67549626875000 0.105592462500000 
 N -0.257589153124999 -3.45083426875000 -2.52350753750000 
 N -2.37839515312500 -2.77309126875000 -3.85847953750000 
 N -3.21938515312500 -2.82986726875000 -1.649953749999966E-002
 S -0.566561153125000 -6.47509626875000 -4.12806853750000 
 S -3.48373315312500 -6.40418926875000 -1.28720953750000 
 S -1.02500115312500 -7.07041726875000 -9.751053749999961E-002
 S -0.769407153125000 -3.06225426875000 -4.06231453750000 
 S -3.92331815312500 -2.46784526875000 -1.48997853750000 
 S -1.66670915312500 -3.37577526875000 -3.426953749999995E-002
