16

 C -2.15133110312500 -6.37712661250001 -2.33960982187500 
 C -0.949184103125003 -6.89772061250001 -1.71843082187500 
 C -2.89389110312500 -2.59630961250001 -2.54351582187500 
 C -1.64241310312500 -2.88498861250001 -1.87307382187500 
 N 7.528889687499696E-002 -6.99224861250001 -2.57664982187500 
 N -2.06905210312500 -6.05809661250001 -3.63474882187500 
 N -2.73578610312500 -6.69571361250001 0.127860178125001 
 N -0.576177103125002 -2.91801361250001 -2.68363482187500 
 N -2.73848010312500 -2.32093661250001 -3.83601882187500 
 N -3.34031110312500 -2.82880761250001 -5.446382187499932E-002
 S -0.560403103125003 -6.49938661250001 -4.05982682187500 
 S -3.49183210312500 -6.16748361250001 -1.24379882187500 
 S -1.12869310312500 -7.12015961250001 -2.590282187499948E-002
 S -1.18106410312500 -2.53174161250001 -4.26638182187500 
 S -4.17363110312500 -2.40897361250001 -1.40583982187500 
 S -1.74768310312500 -3.23754761250001 -0.215649821875000 
