16

 C -2.47704705937499 -6.62574090625000 -2.44018433437500 
 C -1.20064005937499 -6.67929890625000 -1.78571433437500 
 C -2.43336305937499 -2.16149690625000 -2.72519533437500 
 C -1.43344005937499 -2.92739090625000 -2.03059733437500 
 N -0.146865059374994 -6.64308890625000 -2.57792433437500 
 N -2.34070905937499 -6.52400390625000 -3.75720433437500 
 N -3.06983305937499 -6.51657390625000 1.856266562500020E-002
 N -0.323533059374994 -3.14074390625000 -2.76828033437500 
 N -2.05757405937499 -1.75976890625000 -3.96484433437500 
 N -3.47993905937499 -2.68450890625000 -0.475632334375000 
 S -0.715294059374994 -6.42887890625000 -4.14971133437500 
 S -3.76740505937499 -6.37968790625000 -1.43402533437500 
 S -1.35404405937499 -6.78971990625000 -6.786833437499973E-002
 S -0.617931059374994 -2.52174990625000 -4.27080033437500 
 S -3.95018905937499 -1.84891090625000 -1.83930533437500 
 S -1.96785705937499 -3.33778190625000 -0.444119334375000 
