16

 C -2.35302341250000 -6.40305236875000 -2.41347390312500 
 C -1.11084341250000 -6.74645636875000 -1.75962990312500 
 C -2.52623341250000 -2.66699736875000 -2.58912890312500 
 C -1.38207741250000 -3.09938836875000 -1.85610890312500 
 N -6.806141250000142E-002 -6.87104836875000 -2.58764390312500 
 N -2.22347641250000 -6.38656236875000 -3.73686690312500 
 N -2.89690541250000 -6.62455936875000 4.886809687499882E-002
 N -0.385346412500001 -3.56137436875000 -2.60691790312500 
 N -2.41553641250000 -2.62252636875000 -3.92155290312500 
 N -3.29301741250000 -2.92863036875000 -3.999790312500107E-002
 S -0.651366412500002 -6.72171436875000 -4.11893890312500 
 S -3.70821841250000 -6.26572536875000 -1.37686890312500 
 S -1.24697141250000 -6.89939336875000 -1.343690312500123E-002
 S -0.880412412500001 -3.23069436875000 -4.16694890312500 
 S -3.94724541250000 -2.46240036875000 -1.52364090312500 
 S -1.67523941250000 -3.41178736875000 -0.104443903125001 
