16

 C -2.23749885312500 -6.45307700312500 -2.16906362812500 
 C -1.07250485312500 -6.99770200312500 -1.49126162812500 
 C -2.38013385312501 -2.71067400312500 -2.36405762812500 
 C -1.19302185312501 -3.17238000312500 -1.75877662812500 
 N -4.354085312500544E-002 -7.22868600312500 -2.32362662812500 
 N -2.09643085312501 -6.26682100312500 -3.48528062812500 
 N -2.99777185312501 -6.75210200312500 0.287637371874998 
 N -0.101510853125006 -3.28518300312500 -2.54465262812500 
 N -2.25387685312501 -2.35208100312500 -3.64651462812500 
 N -2.94614585312500 -3.14922000312500 0.153263371874998 
 S -0.569617853125005 -6.77279300312500 -3.84234662812500 
 S -3.64668485312500 -6.30497500312500 -1.20074862812500 
 S -1.42446685312501 -7.22925300312500 0.254681371874999 
 S -0.706940853125005 -2.70151700312500 -4.03083662812500 
 S -3.78386585312500 -2.65888900312500 -1.21492962812500 
 S -1.38150285312501 -3.68617600312500 -5.269562812500150E-002
