16

 C -2.39534277187500 -6.44412808125000 -2.26059812812500 
 C -1.11579377187500 -6.84832608125000 -1.67734712812500 
 C -2.33594777187500 -2.56357408125000 -2.37863712812500 
 C -1.19078477187500 -3.14300308125000 -1.77698212812500 
 N -7.002877187499834E-002 -6.95064108125000 -2.50870112812500 
 N -2.27123777187500 -6.24939108125000 -3.56739312812500 
 N -2.86662277187500 -6.61186408125000 0.214580871874998 
 N -0.171838771874998 -3.39823608125000 -2.61831012812500 
 N -2.29636477187500 -2.38387508125000 -3.71083312812500 
 N -3.00378277187500 -3.07902808125000 6.421287187499836E-002
 S -0.705540771874999 -6.58306908125000 -3.98787012812500 
 S -3.72235077187500 -6.35118608125000 -1.16006612812500 
 S -1.32993077187500 -7.34393808125000 6.904871874998442E-003
 S -0.717070771874998 -2.77268908125000 -4.11129412812500 
 S -3.73461577187500 -2.40654008125000 -1.28713212812500 
 S -1.41579377187500 -3.49675808125000 -0.131605128125001 
