16

 C -2.52415292500000 -6.51837397812500 -2.51054116875000 
 C -1.39441492500000 -6.87355797812500 -1.70262816875000 
 C -2.49238992500000 -2.83539897812500 -2.37844016875000 
 C -1.23777292500000 -3.21342097812500 -1.70646416875000 
 N -0.319448924999996 -7.07639797812500 -2.45294916875000 
 N -2.34368492500000 -6.44210697812500 -3.84219216875000 
 N -3.26944592500000 -6.18442097812500 -0.110481168750001 
 N -0.122963924999997 -3.30872197812500 -2.44229916875000 
 N -2.31196092500000 -2.92235697812500 -3.68370716875000 
 N -3.01240092500000 -2.98332797812500 0.116808831249999 
 S -0.758393924999996 -6.88155397812500 -4.05802616875000 
 S -3.86762392500000 -5.92495897812500 -1.60725716875000 
 S -1.67863392500000 -6.69510297812500 -5.212516875000106E-002
 S -0.665437924999996 -3.17350897812500 -4.04101616875000 
 S -3.82450892500000 -2.58111797812500 -1.26807316875000 
 S -1.41299492500000 -3.51337997812500 -3.244916875000103E-002
