16

 C -2.31648153750000 -6.31161662500000 -2.32973792812500 
 C -1.24933753750000 -6.93639462499999 -1.66225492812500 
 C -2.51279753750000 -2.58485962500000 -2.49632692812500 
 C -1.27981353750000 -3.04601462500000 -1.98531992812500 
 N -0.139721537500002 -7.18411562500000 -2.37161992812500 
 N -2.04928453750000 -6.16437362500000 -3.63880392812500 
 N -2.91614453750000 -6.24541462500000 0.143757071875001 
 N -0.283776537500003 -3.03810762499999 -2.84687392812500 
 N -2.44144153750000 -2.30008762500000 -3.76202692812500 
 N -2.92916353750000 -2.85291062500000 -2.329592812499937E-002
 S -0.517705537500003 -6.69973862499999 -3.92596492812500 
 S -3.65518253750000 -5.90440862499999 -1.35955892812500 
 S -1.41503653750000 -6.93437862500000 3.319107187500081E-002
 S -0.855599537500003 -2.49452362499999 -4.30062392812500 
 S -3.77946753750000 -2.37060162500000 -1.33298092812500 
 S -1.37602053750000 -3.39163362500000 -0.316792928124999 
