16

 C -2.52305398437500 -6.27408910312500 -2.50080951250000 
 C -1.44974398437500 -7.07074210312500 -2.03275851250000 
 C -2.56327298437500 -2.55871910312500 -2.32539851250000 
 C -1.43402098437500 -3.20068910312500 -1.77194051250000 
 N -0.512888984375000 -7.23957710312500 -2.97728851250000 
 N -2.45996598437500 -5.84138710312500 -3.76370051250000 
 N -3.12839898437500 -7.03851910312500 -9.109051249999789E-002
 N -0.432935984375000 -3.46763810312500 -2.57475651250000 
 N -2.43680698437500 -2.27808510312500 -3.62800651250000 
 N -3.18186798437500 -3.02326410312500 0.101443487500002 
 S -1.11117098437500 -6.53324910312500 -4.32908551250000 
 S -3.73472698437500 -5.97959510312500 -1.25127451250000 
 S -1.57735398437500 -7.62511910312500 -0.379641512499998 
 S -0.904073984375000 -2.81715610312500 -4.07251551250000 
 S -3.88773098437500 -2.37260010312500 -1.19297651250000 
 S -1.55774698437500 -3.42733410312500 -5.199151249999767E-002
