16

 C -2.21353916875000 -6.12412902187500 -2.21726774062500 
 C -1.05860116875000 -6.76441102187500 -1.66656974062500 
 C -2.72718116875000 -2.34319602187500 -2.65694674062500 
 C -1.48359716875000 -2.81408902187500 -2.04602974062500 
 N -0.183172168750001 -6.98343802187500 -2.61464374062500 
 N -2.20336816875000 -5.90227302187500 -3.51927774062500 
 N -2.68249216875000 -6.37890802187500 0.289556259375000 
 N -0.494445168750000 -3.00830502187500 -2.91495174062500 
 N -2.63414316875000 -2.33451302187500 -3.99710674062500 
 N -3.21905616875000 -2.46830302187500 -0.165616740625000 
 S -0.749798168750001 -6.46111702187500 -4.07909774062500 
 S -3.44068016875000 -5.73132602187500 -1.05961274062500 
 S -1.13101116875000 -6.98518902187500 6.898725937500005E-002
 S -1.07745316875000 -2.77163802187500 -4.48109874062500 
 S -4.05824116875000 -2.11148702187500 -1.56922074062500 
 S -1.61265916875000 -2.82191402187500 -0.296796740625000 
