16

 C -2.49253055000001 -6.61902249062500 -2.33858674062500 
 C -1.20128055000001 -7.00614249062500 -1.76476074062500 
 C -2.15510955000001 -3.17066249062500 -2.22717774062500 
 C -0.961348550000010 -3.66851649062500 -1.64730574062500 
 N -0.271795550000010 -7.16341949062500 -2.67240774062500 
 N -2.44673155000001 -6.54670049062500 -3.67187574062500 
 N -2.81037355000001 -6.74424249062500 0.209317259375000 
 N 3.538644999999008E-002 -3.91166749062500 -2.52684974062500 
 N -2.09339855000001 -3.05446649062500 -3.59425174062500 
 N -2.77356755000001 -3.29540849062500 0.256253259375000 
 S -0.921479550000010 -7.04179749062500 -4.15854074062500 
 S -3.74799355000001 -6.38430749062500 -1.14370574062500 
 S -1.21269355000001 -7.00326249062500 -6.539774062499948E-002
 S -0.553305550000010 -3.55898549062500 -3.96232574062500 
 S -3.51474055000001 -3.05029049062500 -1.21460074062500 
 S -1.15092555000001 -3.69494749062500 0.129150259375000 
