16

 C -2.34019300000000 -6.27068629687501 -2.38476806562500 
 C -1.10684500000000 -6.86166229687501 -1.76083206562500 
 C -2.62483600000000 -2.73241229687501 -2.64810906562500 
 C -1.38981900000000 -3.02232229687501 -1.95820006562500 
 N -0.123856999999996 -7.19255729687501 -2.55958706562500 
 N -2.22023700000000 -6.25488929687501 -3.70117106562500 
 N -2.71705800000000 -6.17865729687501 0.145980934375000 
 N -0.312687999999995 -3.08944729687501 -2.76262506562500 
 N -2.54389800000000 -2.64439829687501 -3.99705206562500 
 N -3.17481700000000 -2.82664329687501 -7.748906562499980E-002
 S -0.661645999999996 -6.76828029687501 -4.05934206562500 
 S -3.62521200000000 -6.04456329687501 -1.30716106562500 
 S -1.24289800000000 -6.98404429687501 4.178093437500019E-002
 S -0.939991999999996 -3.01807529687501 -4.27054706562500 
 S -3.89416800000000 -2.36963729687501 -1.50639506562500 
 S -1.54509700000000 -3.19496529687501 -0.183767065625000 
