16

 C -2.59666321250000 -6.23411428437500 -2.67030635000000 
 C -1.36441121250000 -6.54984928437500 -2.00340135000000 
 C -2.49304621250000 -2.71310728437500 -2.50120835000000 
 C -1.24239221250000 -3.04963128437500 -1.87743535000000 
 N -0.331660212499998 -6.68414828437500 -2.83294235000000 
 N -2.53152821250000 -6.03149828437500 -3.97554135000000 
 N -3.25089121250000 -6.83674328437500 -0.310771350000001 
 N -0.175738212499999 -3.22685528437500 -2.66569135000000 
 N -2.38181321250000 -2.66402528437500 -3.84029435000000 
 N -2.92121121250000 -2.89852628437500 9.012364999999889E-002
 S -0.963877212499999 -6.35811028437500 -4.37757235000000 
 S -4.00749821250000 -6.20859928437500 -1.67229135000000 
 S -1.57750821250000 -6.93720128437500 -0.381506350000001 
 S -0.786265212499998 -2.99127228437500 -4.21488935000000 
 S -3.78634221250000 -2.70242128437500 -1.36874135000000 
 S -1.29587421250000 -3.15021028437500 -0.141440350000001 
