16

 C -2.67847611875001 -6.66237225000000 -2.36480717500000 
 C -1.45651111875001 -7.17286825000000 -1.73811517500000 
 C -2.21661411875001 -2.98415825000000 -2.29224117500000 
 C -1.02472811875001 -3.37135625000000 -1.64133717500000 
 N -0.464269118750011 -7.35964825000000 -2.62425217500000 
 N -2.64133011875001 -6.56512925000000 -3.72481317500000 
 N -3.08931111875001 -6.91689325000000 0.222199824999997 
 N 5.585788124998992E-002 -3.57478425000000 -2.42462017500000 
 N -2.16145911875001 -2.90411225000000 -3.63073517500000 
 N -2.87582511875001 -3.26230525000000 0.244870824999997 
 S -1.06463011875001 -7.02106425000000 -4.15112717500000 
 S -4.00972211875001 -6.45145725000000 -1.09954517500000 
 S -1.52624011875001 -7.28213425000000 -8.473175000002886E-003
 S -0.550491118750011 -3.25438525000000 -3.94375617500000 
 S -3.55425511875001 -2.68724525000000 -1.18093117500000 
 S -1.30100011875001 -3.76086925000000 7.534682499999712E-002
