16

 C -2.25482210625000 -6.68631857500000 -2.22434634375000 
 C -0.990824106250003 -7.09968057500000 -1.64130534375000 
 C -2.48393510625000 -2.64177157500000 -2.48352134375000 
 C -1.19381010625000 -2.84500957500000 -1.83617734375000 
 N 6.101889374999736E-002 -7.01554257500000 -2.45681034375000 
 N -2.11239210625000 -6.42117457500000 -3.50057134375000 
 N -2.73313310625000 -6.75430257500000 0.267648656249999 
 N -0.164672106250002 -3.05702857500000 -2.69206034375000 
 N -2.41324310625000 -2.61138757500000 -3.83169434375000 
 N -2.94646610625000 -2.83108657500000 6.899865624999912E-002
 S -0.555177106250002 -6.51914557500000 -3.90495234375000 
 S -3.58566810625000 -6.52386657500000 -1.14401834375000 
 S -1.17494210625000 -7.32485857500000 0.119651656249999 
 S -0.862372106250002 -2.85046357500000 -4.19572734375000 
 S -3.80872410625000 -2.47010457500000 -1.33408734375000 
 S -1.35436610625000 -3.13716557500000 -0.166653343750001 
