16

 C -2.42354945937500 -6.52010902187499 -2.31006258750000 
 C -1.22433945937500 -7.01108602187499 -1.69878458750000 
 C -2.40540345937500 -2.57556402187499 -2.37104858750000 
 C -1.32421945937500 -3.25003102187499 -1.77206058750000 
 N -0.175864459375002 -7.09355602187499 -2.45740458750000 
 N -2.23959445937500 -6.34209002187499 -3.62806758750000 
 N -2.83779745937500 -6.75884502187499 0.224640412500002 
 N -0.282870459375002 -3.46492102187499 -2.60392958750000 
 N -2.17613045937500 -2.21747702187499 -3.65313558750000 
 N -3.01740245937500 -2.95801702187499 0.130929412500002 
 S -0.656150459375002 -6.67416402187499 -4.00072158750000 
 S -3.71840745937500 -6.41403902187499 -1.22289058750000 
 S -1.33328945937500 -7.33787702187499 -3.214458749999771E-002
 S -0.733465459375002 -2.92551602187499 -4.05013358750000 
 S -3.66418845937500 -2.22029502187499 -1.21649258750000 
 S -1.45271745937500 -3.59730502187499 -6.635558749999770E-002
