16

 C -2.43702685937500 -6.26677633437500 -2.29282962187500 
 C -1.30609585937500 -6.89221933437500 -1.64193562187500 
 C -2.35856785937500 -2.29031533437500 -2.53954662187500 
 C -1.20591685937500 -2.83091633437500 -1.87107662187500 
 N -0.258656859375003 -7.08632633437500 -2.45174162187500 
 N -2.26339085937500 -6.15166533437500 -3.60065062187500 
 N -3.13293885937500 -6.64362433437500 0.132203378124999 
 N -0.222423859375003 -3.09253233437500 -2.70928562187500 
 N -2.29957985937500 -2.16902333437500 -3.85174762187500 
 N -2.93358385937500 -2.41404633437500 -1.476218750009473E-004
 S -0.682673859375003 -6.56993733437500 -3.99158362187500 
 S -3.75351285937500 -5.95036033437500 -1.28715962187500 
 S -1.60532485937500 -7.22407633437500 3.047637812499904E-002
 S -0.714516859375003 -2.73122133437500 -4.16723262187500 
 S -3.62980285937500 -1.83616133437500 -1.39630262187500 
 S -1.40052685937500 -3.01956933437500 -0.158929621875001 
