16

 C -2.59208189375000 -6.44518684375000 -2.48067984375000 
 C -1.35502089375000 -6.90557684375000 -1.83701084375000 
 C -2.62647989375000 -2.88434784375000 -2.46697484375000 
 C -1.39882689375000 -3.34184384375000 -1.84193884375000 
 N -0.285270893750003 -7.08054384375000 -2.62311584375000 
 N -2.37324589375000 -6.28538084375000 -3.76933484375000 
 N -3.10648189375000 -6.74002484375000 7.374515624999778E-002
 N -0.423237893750003 -3.64284484375000 -2.69206484375000 
 N -2.51942789375000 -2.71136884375000 -3.78285384375000 
 N -3.24072889375000 -3.16532284375000 -3.990484375000225E-002
 S -0.747434893750003 -6.63603684375000 -4.21276784375000 
 S -3.87017589375000 -6.11617684375000 -1.33198484375000 
 S -1.48600189375000 -6.97649684375000 -3.020784375000218E-002
 S -1.02794589375000 -3.10153684375000 -4.17370484375000 
 S -4.08832589375000 -2.96603784375000 -1.45124584375000 
 S -1.63316989375000 -3.71248684375000 -0.168349843750002 
