16

 C -2.29212525625000 -6.33784252812500 -2.34941447812500 
 C -1.10580125625000 -6.78942952812500 -1.75096247812500 
 C -2.54094425625000 -2.74327452812500 -2.47423947812500 
 C -1.45421625625000 -3.41312352812500 -1.75059147812500 
 N -0.152279256249999 -6.94217952812500 -2.65898547812500 
 N -2.34299225625000 -6.14093152812500 -3.69436547812500 
 N -2.94123325625000 -6.65900152812500 0.178784521875003 
 N -0.354023256249999 -3.65442852812500 -2.48386047812500 
 N -2.24836725625000 -2.37344052812500 -3.72105647812500 
 N -3.30919225625000 -2.92034052812500 2.253852187500271E-002
 S -0.776083256249999 -6.46977452812500 -4.17091447812500 
 S -3.68391725625000 -6.48837652812500 -1.29299047812500 
 S -1.31992225625000 -7.11774452812500 1.152521875002810E-003
 S -0.787920256249999 -3.09240152812500 -4.01037547812500 
 S -4.02742125625000 -2.61933652812500 -1.44834447812500 
 S -1.79022525625000 -3.55974652812500 -5.132478124997286E-003
