16

 C -2.47153704062500 -6.52575287187500 -2.31703671875000 
 C -1.18834504062500 -6.83716087187500 -1.72556171875000 
 C -2.31631304062500 -2.95194787187500 -2.27347671875000 
 C -1.06946504062500 -3.37713687187500 -1.71206171875000 
 N -0.217803040624997 -7.05626787187500 -2.60985771875000 
 N -2.43390504062500 -6.34527087187500 -3.63643371875000 
 N -2.91204504062500 -6.73826887187500 0.201939281250001 
 N -8.830904062499645E-002 -3.47509487187500 -2.59077971875000 
 N -2.28562404062500 -2.68902287187500 -3.57339471875000 
 N -2.70103004062500 -3.40360387187500 0.267856281250001 
 S -0.871830040624997 -6.68363887187500 -4.06630971875000 
 S -3.79709304062500 -6.33068587187500 -1.22261271875000 
 S -1.28302704062500 -7.00798687187500 -2.347371874999937E-002
 S -0.705980040624996 -3.07782187187500 -4.04878571875000 
 S -3.61333904062500 -3.01748687187500 -1.05850871875000 
 S -1.07536604062500 -3.68116887187500 1.230228125000066E-002
