16

 C -2.25735750000000 -6.35090018749999 -2.45562763125000 
 C -1.08871450000000 -6.83191418749999 -1.73657063125000 
 C -2.82585750000001 -2.57022318749999 -2.51875863125000 
 C -1.56134450000001 -2.81073518749999 -1.87730563125000 
 N 2.377249999999531E-002 -7.03049918749999 -2.47937263125000 
 N -2.00925550000000 -6.13883418749999 -3.75908463125000 
 N -2.91736550000001 -6.55385118749999 7.475436874999852E-002
 N -0.513089500000005 -2.91735418749999 -2.67996463125000 
 N -2.68007350000001 -2.31799818749999 -3.78171863125000 
 N -3.34899050000000 -2.88232718749999 -2.601463125000159E-002
 S -0.437988500000005 -6.55799518749999 -4.02211063125000 
 S -3.65695950000000 -6.16764218749999 -1.36596763125000 
 S -1.34654450000000 -7.07618418749999 -4.799563125000139E-002
 S -1.11533350000000 -2.46787918749999 -4.27035663125000 
 S -4.16662450000000 -2.47890718749999 -1.39747463125000 
 S -1.68201450000000 -2.98885118749999 -0.129305631250002 
