16

 C -2.63439438125000 -6.65761754375000 -2.14046100000000 
 C -1.42437038125000 -7.29415654375000 -1.64746100000000 
 C -2.26274238125000 -2.77663054375000 -2.37343900000000 
 C -1.11371538125000 -3.33903654375000 -1.76163600000000 
 N -0.518271381250002 -7.53168454375000 -2.58975300000000 
 N -2.60933038125000 -6.34807654375000 -3.41477000000000 
 N -3.01403638125000 -7.02858254375000 0.309412999999999 
 N -0.177305381250002 -3.72283154375000 -2.60159600000000 
 N -2.21712338125000 -2.58057854375000 -3.70262000000000 
 N -2.84544738125000 -3.03697054375000 0.153187999999999 
 S -1.19789338125000 -6.97885954375000 -4.01999500000000 
 S -3.91502338125000 -6.43811154375000 -0.946861000000000 
 S -1.43874738125000 -7.50548354375000 7.338099999999947E-002
 S -0.690431381250002 -3.11679154375000 -4.06800500000000 
 S -3.56954238125000 -2.51304854375000 -1.23736100000000 
 S -1.20991838125000 -3.47151954375000 3.141999999999534E-003
