16

 C -2.32157872499999 -6.35893378750000 -2.51795214687500 
 C -1.17439572499999 -6.79391178750000 -1.74900214687500 
 C -2.67783972499999 -2.52015078750000 -2.45292814687500 
 C -1.43877072499999 -2.78198078750000 -1.76193714687500 
 N -6.259872499999286E-002 -7.03354378750000 -2.45118514687500 
 N -2.09231372499999 -6.20384278750000 -3.80976514687500 
 N -3.10087472499999 -6.47246278750000 -5.860014687500126E-002
 N -0.373456724999993 -2.86741778750000 -2.53675814687500 
 N -2.55241772499999 -2.33959578750000 -3.74396014687500 
 N -3.26517172499999 -2.81252178750000 2.481485312499854E-002
 S -0.531098724999993 -6.63566478750000 -4.02616314687500 
 S -3.75147272499999 -6.16881878750000 -1.58786614687500 
 S -1.53310672499999 -7.05903178750000 -6.755146875001561E-003
 S -0.998018724999993 -2.59917678750000 -4.13388414687500 
 S -4.02011672499999 -2.42166178750000 -1.39113514687500 
 S -1.59817872499999 -2.96583778750000 -0.117834146875001 
