16

 C -2.07053191875000 -6.44657885625000 -2.35448864687500 
 C -0.912303918749998 -7.00954985625000 -1.69899264687500 
 C -2.71128391875000 -2.53572785625000 -2.48888964687500 
 C -1.41424191875000 -2.97255685625000 -1.81667864687500 
 N 4.481008125000319E-002 -7.27444285625000 -2.60464364687500 
 N -2.02796891875000 -6.37234985625000 -3.69714364687500 
 N -2.68124191875000 -6.74107385625000 0.130068353124997 
 N -0.401457918749997 -3.15523785625000 -2.64421964687500 
 N -2.50094991875000 -2.31243285625000 -3.77601364687500 
 N -3.12019491875000 -2.68900585625000 7.829435312499666E-002
 S -0.528875918749997 -6.88112985625000 -4.09858164687500 
 S -3.41154591875000 -6.26296785625000 -1.28121064687500 
 S -1.06610491875000 -7.18406485625000 4.441353124996716E-003
 S -0.995251918749997 -2.80376785625000 -4.15181264687500 
 S -3.95590591875000 -2.23842485625000 -1.31530664687500 
 S -1.48057191875000 -3.04489485625000 -5.288864687500339E-002
