16

 C -2.49098434375001 -6.42633382812500 -2.52978001250000 
 C -1.25415034375001 -6.81966182812500 -1.86015001250000 
 C -2.69888334375001 -2.91545282812500 -2.52624501250000 
 C -1.57582834375001 -3.54083682812500 -1.89769201250000 
 N -0.177969343750008 -6.98102582812500 -2.64886001250000 
 N -2.32176534375001 -6.28129282812500 -3.83479501250000 
 N -3.18348334375001 -6.66999382812500 -4.136401250000321E-002
 N -0.528433343750008 -3.60355582812500 -2.69612501250000 
 N -2.56715534375001 -2.54884382812500 -3.79345701250000 
 N -3.34878034375001 -3.30796982812500 9.171987499996703E-003
 S -0.754939343750007 -6.67935082812500 -4.15609401250000 
 S -3.84054834375001 -6.17798682812500 -1.44933301250000 
 S -1.55120434375001 -7.00074182812500 -0.151176012500003 
 S -0.996649343750008 -3.12023582812500 -4.21480701250000 
 S -4.00213834375001 -2.82123782812500 -1.40274901250000 
 S -1.76893334375001 -3.75922382812500 -0.169046012500003 
