16

 C -2.39604274374999 -6.64443229687500 -2.28380600312500 
 C -1.16070974374999 -6.92931629687500 -1.66760100312500 
 C -2.41501674374999 -2.68410929687500 -2.49127700312500 
 C -1.22620074374999 -3.21373529687501 -1.88533600312500 
 N -0.138957743749994 -7.06072429687501 -2.51027600312500 
 N -2.37594974375000 -6.46560529687500 -3.59246400312500 
 N -2.88932774374999 -6.71668429687501 0.250461996875001 
 N -0.269782743749995 -3.60205929687501 -2.74087700312500 
 N -2.30999174375000 -2.50155829687500 -3.82620500312500 
 N -3.03441774374999 -2.98535129687501 5.466199687500128E-002
 S -0.777639743749995 -6.73696929687500 -4.02765700312500 
 S -3.72306074375000 -6.59309529687500 -1.16634000312500 
 S -1.30244874374999 -6.91352529687500 0.130717996875001 
 S -0.866342743749994 -3.04721829687500 -4.26228400312500 
 S -3.72905474374999 -2.39443929687500 -1.38129000312500 
 S -1.45658974375000 -3.41310129687500 -0.147355003124999 
