16

 C -2.41424828125000 -6.63410168750000 -2.45131058125000 
 C -1.24723328125000 -7.19484368750000 -1.84568558125000 
 C -2.73682928125000 -2.77129768750000 -2.52293258125000 
 C -1.59107628125000 -3.32144368750000 -1.84795358125000 
 N -0.249678281249998 -7.26231568750000 -2.71274158125000 
 N -2.29676628125000 -6.25105868750000 -3.74368958125000 
 N -3.05189828125000 -6.88615568750000 5.204741874999952E-002
 N -0.562368281249998 -3.69608768750000 -2.59648158125000 
 N -2.53310728125000 -2.63419168750000 -3.82486658125000 
 N -3.45375028125000 -3.17045768750000 -0.140220581250000 
 S -0.759738281249998 -6.66960868750000 -4.16166058125000 
 S -3.79027028125000 -6.38010268750000 -1.35071158125000 
 S -1.41271428125000 -7.49661068750000 -0.144090581250000 
 S -0.959490281249998 -3.17078268750000 -4.08595758125000 
 S -4.06044828125000 -2.48378768750000 -1.52525458125000 
 S -1.82756428125000 -3.53940468750000 -0.177432581250001 
