16

 C -2.55570664375000 -6.66766864687501 -2.37455612812500 
 C -1.35546764375000 -7.09169064687501 -1.69868412812500 
 C -2.48509564375000 -2.86460464687501 -2.37166612812500 
 C -1.30072364375000 -3.48293664687501 -1.82394212812500 
 N -0.340380643749998 -7.32393364687501 -2.51511612812500 
 N -2.45823964375000 -6.49013564687501 -3.68410612812500 
 N -3.10703364375000 -6.78991664687501 0.162268871875000 
 N -0.325759643749998 -3.66885264687501 -2.68857812812500 
 N -2.41912464375000 -2.65441664687501 -3.65559512812500 
 N -2.89733464375000 -3.33018464687501 0.167268871875000 
 S -0.889950643749998 -6.87522464687501 -4.05715312812500 
 S -3.93579764375000 -6.59243964687501 -1.27837412812500 
 S -1.54041964375000 -7.30887064687501 -1.850128124999628E-003
 S -0.946871643749998 -3.15538764687501 -4.24393012812500 
 S -3.73389364375000 -2.69902064687501 -1.14061612812500 
 S -1.21924364375000 -3.59271464687501 -0.107563128125000 
