16

 C -2.22629764375000 -6.39804606250000 -2.39075243437500 
 C -0.946339643749997 -6.75485306250000 -1.79661843437500 
 C -2.50304964375000 -2.63935006250000 -2.41840543437500 
 C -1.32061764375000 -2.98671306250000 -1.71238943437500 
 N 8.936935625000242E-002 -6.73195206250000 -2.63667543437500 
 N -2.11521464375000 -6.28549406250000 -3.69894443437500 
 N -2.65495864375000 -6.82039206250000 0.126657565625000 
 N -0.285204643749998 -3.21919006250000 -2.52066243437500 
 N -2.44466364375000 -2.61547306250000 -3.76873343437500 
 N -3.15551564375000 -2.97764406250000 9.934456562499960E-002
 S -0.551448643749997 -6.50766806250000 -4.14827243437500 
 S -3.50007864375000 -6.33472206250000 -1.23454443437500 
 S -1.01683464375000 -7.07769306250000 -5.674343437500018E-002
 S -0.869658643749998 -2.98553206250000 -4.06090843437500 
 S -3.91453564375000 -2.52513306250000 -1.31026143437500 
 S -1.55733764375000 -3.37419306250000 1.749356562499971E-002
