16

 C -2.44799047812500 -6.22606066250000 -2.38559904375000 
 C -1.28103547812500 -6.91032966250000 -1.85656004375000 
 C -2.60043847812500 -2.41714766250000 -2.63874704375000 
 C -1.39174147812500 -2.89618966250000 -2.02222304375000 
 N -0.381333478124998 -7.13707966250000 -2.80109304375000 
 N -2.40825047812500 -5.93711966250000 -3.69616304375000 
 N -2.85226347812500 -6.30939366250000 0.170792956250001 
 N -0.371099478124997 -3.08433566250000 -2.79020804375000 
 N -2.53369047812500 -2.42797166250000 -3.94714204375000 
 N -3.08851247812500 -2.48238166250000 -0.103659043749999 
 S -0.992283478124998 -6.57322366250000 -4.25001304375000 
 S -3.61989747812500 -5.77716366250000 -1.17902704375000 
 S -1.37986247812500 -7.08809266250000 -0.125980043749999 
 S -0.995343478124997 -2.88008466250000 -4.39570904375000 
 S -3.81198947812500 -2.06558666250000 -1.51638204375000 
 S -1.51414047812500 -2.94736066250000 -0.286777043749999 
