16

 C -2.47453229999999 -6.67397165937500 -2.19845629375000 
 C -1.18796229999999 -7.11435565937500 -1.62468929375000 
 C -2.24637929999999 -2.43435365937500 -2.51134429375000 
 C -1.08970029999999 -2.97302365937500 -1.82081129375000 
 N -0.279158299999993 -7.34935065937500 -2.54933129375000 
 N -2.40588729999999 -6.46805465937500 -3.49964629375000 
 N -3.01820829999999 -6.84558665937500 0.286189706249999 
 N -3.096729999999326E-002 -3.16049065937500 -2.59839529375000 
 N -1.97698629999999 -2.17036065937500 -3.77370029375000 
 N -2.99627029999999 -2.84763165937500 -0.115004293750001 
 S -0.839868299999993 -6.76327065937500 -4.01447929375000 
 S -3.70142029999999 -6.25562765937500 -1.10404229375000 
 S -1.32942129999999 -7.25598865937500 0.142232706249999 
 S -0.476711299999993 -2.77545165937500 -4.16979129375000 
 S -3.66802529999999 -2.42041365937500 -1.60517629375000 
 S -1.37664929999999 -3.13410665937500 -0.152187293750001 
