16

 C -2.32401596562500 -6.72498263437500 -2.40465966562500 
 C -1.12737996562500 -7.23238363437500 -1.72202166562500 
 C -2.55955696562500 -2.64957363437500 -2.32132866562500 
 C -1.55202696562500 -3.52182463437500 -1.76437066562500 
 N -1.112696562500304E-002 -7.46556363437500 -2.46976966562500 
 N -2.13579696562500 -6.70370063437500 -3.70593966562500 
 N -3.06073496562500 -6.91139463437500 9.540833437499940E-002
 N -0.710563965625003 -4.03052963437500 -2.63970966562500 
 N -2.54633596562500 -2.46045063437500 -3.63879166562500 
 N -3.10310596562500 -2.86079663437500 0.232881334374999 
 S -0.529369965625003 -7.14642563437500 -4.01427466562500 
 S -3.71540496562500 -6.51052663437500 -1.35776266562500 
 S -1.46914296562500 -7.52233363437500 -5.700665625000489E-003
 S -1.13473396562500 -3.25144563437500 -4.09865866562500 
 S -3.75508696562500 -2.14471463437500 -1.13969266562500 
 S -1.77077496562500 -3.78822963437500 -0.134436665625000 
