16

 C -2.33793884375000 -6.23887266250000 -2.28592331875000 
 C -1.14721184375000 -6.84522666249999 -1.66650731875000 
 C -2.50533784375000 -2.76460966249999 -2.64265531875000 
 C -1.22123984375000 -2.96761966249999 -2.05399331875000 
 N -0.145922843750002 -7.02569066249999 -2.54692031875000 
 N -2.23463484375000 -5.81787366249999 -3.54832131875000 
 N -2.93775284375000 -6.82376966249999 0.207540681250002 
 N -0.133910843750003 -2.98365166249999 -2.83447831875000 
 N -2.40072284375000 -2.56590466250000 -3.95681331875000 
 N -2.88589184375000 -3.05690066250000 -0.135668318749997 
 S -0.682027843750002 -6.34107066249999 -3.93456331875000 
 S -3.68880784375000 -6.15576566250000 -1.07766431875000 
 S -1.23583684375000 -7.06643766249999 3.162068125000261E-002
 S -0.751084843750002 -2.56486966249999 -4.37327031875000 
 S -3.85040484375000 -2.92461966249999 -1.52059831875000 
 S -1.25632484375000 -3.38134366249999 -0.319255318749998 
