16

 C -2.26001986249999 -6.45385682500000 -2.16987700625000 
 C -1.08196286249999 -7.00746282500000 -1.49630200625000 
 C -2.38658486249999 -2.71515482500000 -2.37255200625000 
 C -1.18010886249999 -3.16232382500000 -1.74446700625000 
 N -3.612486249999414E-002 -7.22935082500000 -2.31769900625000 
 N -2.10787786249999 -6.27289982500000 -3.49248000625000 
 N -3.00846386249999 -6.75254182500000 0.280192993750003 
 N -0.113509862499995 -3.27819882500000 -2.54091100625000 
 N -2.26065986249999 -2.35903982500000 -3.65513400625000 
 N -2.94772186249999 -3.15582282500000 0.153365993750003 
 S -0.562074862499994 -6.77157482500000 -3.84444300625000 
 S -3.65538286249999 -6.29371082500000 -1.20694500625000 
 S -1.42778586249999 -7.22945982500000 0.264352993750003 
 S -0.697844862499994 -2.69541382500000 -4.03516200625000 
 S -3.78822586249999 -2.66120682500000 -1.22208900625000 
 S -1.38114386249999 -3.68884082500000 -5.428600624999680E-002
