16

 C -2.38904180312500 -6.54665964687499 -2.37343897812500 
 C -1.20627980312500 -7.14665064687499 -1.84668397812500 
 C -2.70299580312500 -2.77544264687499 -2.61788797812500 
 C -1.58692380312500 -3.36206564687499 -1.86324197812500 
 N -0.221186803125003 -7.35217664687499 -2.67964997812500 
 N -2.30856880312500 -6.28593364687499 -3.70646297812500 
 N -2.90989280312500 -6.97546064687499 0.157296021875000 
 N -0.451911803125004 -3.54049364687499 -2.57189797812500 
 N -2.39438280312500 -2.58450264687499 -3.90859497812500 
 N -3.42274780312500 -2.89701264687499 -5.955897812500033E-002
 S -0.782884803125003 -6.82963764687499 -4.19537497812500 
 S -3.67785380312500 -6.45518564687499 -1.20085197812500 
 S -1.43788880312500 -7.63505964687499 -0.178666978125000 
 S -0.906051803125004 -3.17521664687499 -4.17739197812500 
 S -4.11943280312500 -2.55593164687499 -1.57737997812500 
 S -1.84935180312500 -3.43745864687499 -8.803497812500027E-002
