16

 C -2.52913695000001 -6.25732586875001 -2.50005308750000 
 C -1.33505295000001 -6.70844386875001 -1.89307608750000 
 C -2.37238795000000 -3.06394286875001 -2.55401308750000 
 C -1.19837095000001 -3.40935486875001 -1.88133108750000 
 N -0.289321950000005 -6.94765186875001 -2.73821608750000 
 N -2.41526495000001 -5.98172586875001 -3.80081908750000 
 N -2.93782895000001 -6.26208986875001 0.161904912499999 
 N -0.104501950000005 -3.46521086875001 -2.62343408750000 
 N -2.21424895000001 -2.90305686875001 -3.86758908750000 
 N -2.99269795000001 -2.91861086875001 -4.789208750000085E-002
 S -0.896759950000005 -6.50352386875001 -4.23107908750000 
 S -3.74068295000001 -5.93166686875001 -1.29693108750000 
 S -1.41002695000001 -6.70975186875001 -0.112250087500001 
 S -0.638158950000006 -3.26878986875001 -4.12966408750000 
 S -3.75195095000000 -2.89924186875001 -1.47962108750000 
 S -1.36634895000001 -3.32114286875001 -0.221548087500001 
