16

 C -2.60033953125000 -6.33361310312500 -2.57604562812500 
 C -1.42593253125000 -6.90030010312500 -1.88852962812500 
 C -2.69732453125000 -2.58075810312500 -2.48605662812500 
 C -1.61861953125000 -3.17103510312500 -1.80049762812500 
 N -0.370244531249998 -6.89325610312500 -2.68033162812500 
 N -2.44908653125000 -6.03745510312500 -3.85497362812500 
 N -3.22063153125000 -6.59520410312500 -5.398262812500354E-002
 N -0.500653531249998 -3.37266510312500 -2.57610362812500 
 N -2.45491653125000 -2.34102510312500 -3.77463962812500 
 N -3.41523353125000 -2.79771910312500 3.521371874996237E-003
 S -0.881087531249999 -6.47833410312500 -4.23320962812500 
 S -3.91286953125000 -6.03504210312500 -1.46945962812500 
 S -1.63406253125000 -7.18438310312500 -0.215551628125004 
 S -0.853371531249999 -2.84110610312500 -4.04858762812500 
 S -4.12244453125000 -2.50419110312500 -1.46412162812500 
 S -1.89022953125000 -3.44356110312500 -0.107564628125004 
