16

 C -2.39229934999999 -6.53226454375000 -2.35419804687500 
 C -1.20308834999999 -7.14993654375000 -1.81087804687500 
 C -2.62667934999999 -2.81503254375000 -2.55114404687500 
 C -1.47486834999999 -3.24496754375000 -1.82005104687500 
 N -0.259207349999993 -7.44274154375000 -2.69602104687500 
 N -2.29313434999999 -6.37163554375000 -3.69012204687500 
 N -2.85017834999999 -7.02509854375000 0.116308953125000 
 N -0.440623349999993 -3.54089454375000 -2.62888704687500 
 N -2.47496434999999 -2.68520654375000 -3.86913504687500 
 N -3.41677734999999 -2.71399754375000 -0.123802046875000 
 S -0.815495349999993 -6.91411554375000 -4.12040004687500 
 S -3.68120834999999 -6.40527854375000 -1.23266704687500 
 S -1.27816034999999 -7.74934654375000 -0.148915046875000 
 S -0.843434349999993 -3.12216054375000 -4.18576504687500 
 S -4.11795434999999 -2.56353354375000 -1.60179304687500 
 S -1.86575234999999 -3.37895354375000 -0.112865046875000 
