16

 C -2.52644784999999 -6.36218287187500 -2.28407962500000 
 C -1.32270484999999 -6.90389787187500 -1.72746662500000 
 C -2.64733884999999 -3.11160687187500 -2.53971262500000 
 C -1.42725584999999 -3.37148187187500 -1.82254462500000 
 N -0.300341849999993 -7.10516587187500 -2.54566962500000 
 N -2.44378484999999 -6.19788187187500 -3.57787862500000 
 N -3.03006084999999 -6.61660387187500 0.124217375000000 
 N -0.350111849999994 -3.38626387187500 -2.60537462500000 
 N -2.49415884999999 -2.81331887187500 -3.84861662500000 
 N -3.11623784999999 -3.05617087187500 0.118454375000000 
 S -0.938838849999994 -6.65027387187500 -4.03815462500000 
 S -3.81742184999999 -6.13829987187500 -1.26981062500000 
 S -1.48080584999999 -7.02778387187500 -2.092762499999989E-002
 S -0.906306849999994 -3.17242087187500 -4.15658762500000 
 S -3.91773384999999 -3.01824487187500 -1.30937462500000 
 S -1.56794684999999 -3.56694487187500 -9.637662499999999E-002
