16

 C -2.48092505937500 -6.51397994687500 -2.41788404375000 
 C -1.37281205937500 -7.09120894687500 -1.69514804375000 
 C -2.28180905937500 -2.73745494687500 -2.54710604375000 
 C -1.12373705937500 -3.30849294687500 -1.89424204375000 
 N -0.277664059375001 -7.41907594687500 -2.42022404375000 
 N -2.28326905937500 -6.42191194687500 -3.74170504375000 
 N -3.32495405937500 -6.59828494687500 1.933956250000923E-003
 N -9.140505937499999E-002 -3.50949794687500 -2.67745604375000 
 N -2.17349505937500 -2.49789294687500 -3.87014204375000 
 N -2.97657905937500 -2.99515194687500 -1.743204374999907E-002
 S -0.737961059375000 -6.95735194687500 -3.99599404375000 
 S -3.84226705937500 -6.06134194687500 -1.45978004375000 
 S -1.76615505937500 -7.07219594687500 4.260995625000086E-002
 S -0.610842059375001 -2.99935194687500 -4.17029704375000 
 S -3.67819205937500 -2.69423794687500 -1.49124804375000 
 S -1.42110505937500 -3.38832094687500 -0.137620043749999 
