16

 C -2.50534378437500 -6.36471456874999 -2.53379724687500 
 C -1.34862878437499 -6.99190956874999 -1.99051724687500 
 C -2.37551878437499 -2.61061556874999 -2.44052324687500 
 C -1.22513878437499 -3.13452656874999 -1.78185424687500 
 N -0.269828784374995 -7.08395156874999 -2.77275724687500 
 N -2.30161878437499 -6.01152156874999 -3.81444024687500 
 N -3.20137678437499 -6.76690856874999 -6.835324687499877E-002
 N -0.260933784374995 -3.54974056874999 -2.60828524687500 
 N -2.26423678437499 -2.48629556874999 -3.74923924687500 
 N -3.01742078437499 -2.64522156874999 3.202675312500136E-002
 S -0.787495784374995 -6.46624756874999 -4.19959524687500 
 S -3.80463578437499 -6.10836856874999 -1.45297224687500 
 S -1.59996578437499 -7.30677556874999 -0.214966246874999 
 S -0.742537784374995 -2.99539756874999 -4.18985024687500 
 S -3.73551278437500 -2.15786356874999 -1.35531624687500 
 S -1.51020678437499 -3.46962856874999 -0.111066246874999 
