16

 C -2.55073608750000 -6.47760279687499 -2.38754113437500 
 C -1.35236608750000 -6.94854179687499 -1.75177313437500 
 C -2.30223708750000 -2.88873679687499 -2.39464913437500 
 C -1.08689508750000 -3.36538579687499 -1.77894113437500 
 N -0.320360087500000 -7.10571679687499 -2.56099213437500 
 N -2.39664308750000 -6.24718079687499 -3.66502513437500 
 N -3.06706008750000 -6.62160279687499 0.109548865625001 
 N -4.509108749999946E-002 -3.51593379687499 -2.61564213437500 
 N -2.30011708750000 -2.79946679687499 -3.72849213437500 
 N -2.75470008750000 -2.91621979687499 0.128078865625001 
 S -0.827189087500000 -6.62025779687499 -4.05128413437500 
 S -3.80413508750000 -6.07109079687499 -1.26855813437500 
 S -1.51739308750000 -7.19713079687499 -8.744413437499854E-002
 S -0.725439087500000 -3.13727979687499 -4.14436913437500 
 S -3.60472008750000 -2.56894879687499 -1.24097413437500 
 S -1.23009808750000 -3.45694079687499 -6.396213437499854E-002
