16

 C -2.30015571562500 -6.52521840312500 -2.39021421875000 
 C -1.13109171562500 -7.12196840312500 -1.79684321875000 
 C -2.48993471562500 -2.85707940312500 -2.35795421875000 
 C -1.19377371562500 -3.06893140312500 -1.69783221875000 
 N -0.125683715625000 -7.36576740312500 -2.66042621875000 
 N -2.15537071562500 -6.17098740312500 -3.68000621875000 
 N -2.91927171562500 -6.78690540312500 0.157371781250001 
 N -0.257405715625000 -3.37742540312500 -2.55642121875000 
 N -2.48011471562500 -2.93063840312500 -3.67386821875000 
 N -2.89898171562500 -2.73762340312500 0.247978781250001 
 S -0.640153715625000 -6.69585240312500 -4.09269521875000 
 S -3.62105971562500 -6.24077040312500 -1.22179921875000 
 S -1.23749571562500 -7.26492840312500 -2.747821874999912E-002
 S -0.884867715625000 -3.28198840312500 -4.07074421875000 
 S -3.72561171562500 -2.80242540312500 -1.16638821875000 
 S -1.26270271562500 -3.12444740312500 6.466678125000103E-002
