16

 C -2.51785217499999 -6.52879482187500 -2.44622141250000 
 C -1.21032717499999 -6.97077582187500 -1.93593441250000 
 C -2.56323917499999 -2.55153382187500 -2.48156241250000 
 C -1.54724317499999 -3.25581982187500 -1.74884841250000 
 N -0.228835174999993 -7.01321382187500 -2.84243941250000 
 N -2.52939917499999 -6.25007082187500 -3.76508541250000 
 N -2.74213017499999 -6.93137082187500 0.108956587500000 
 N -0.500209174999993 -3.75153382187500 -2.45132241250000 
 N -2.40790417499999 -2.62648582187500 -3.81924641250000 
 N -3.41206017499999 -2.63027482187500 -9.900412499999733E-003
 S -0.919439174999993 -6.59287482187500 -4.28644441250000 
 S -3.70015617499999 -6.47674882187500 -1.13518541250000 
 S -1.24645317499999 -7.47665582187500 -0.311324412500000 
 S -0.951259174999993 -3.35499482187500 -4.02891141250000 
 S -3.87093117499999 -2.03898582187500 -1.45541941250000 
 S -1.83599017499999 -3.21042282187500 1.850658750000034E-002
