16

 C -2.49027426250001 -6.44376445312500 -2.42481205000000 
 C -1.31715326250001 -6.88726045312500 -1.75350605000000 
 C -2.66555926250001 -2.91679145312500 -2.46051605000000 
 C -1.43077026250001 -3.37877545312500 -1.83394805000000 
 N -0.348059262500006 -7.13179645312500 -2.59910105000000 
 N -2.44600226250001 -6.24435045312500 -3.74424005000000 
 N -3.11612226250001 -6.68081245312500 7.889694999999919E-002
 N -0.400558262500006 -3.50002345312500 -2.65953805000000 
 N -2.55855726250001 -2.76309845312500 -3.76278305000000 
 N -3.15915026250001 -3.07543745312500 9.904949999999246E-003
 S -0.864322262500006 -6.62764545312500 -4.05681805000000 
 S -3.80413026250001 -6.13277945312500 -1.30432005000000 
 S -1.44950526250001 -6.99146445312500 -5.158205000000082E-002
 S -0.937487262500006 -3.14646045312500 -4.17503605000000 
 S -4.03064026250001 -3.01531945312500 -1.41664305000000 
 S -1.57094426250001 -3.66078845312500 -0.138517050000001 
