16

 C -2.31782588750001 -6.62759992500000 -2.31973335937500 
 C -1.10217888750001 -7.01501092500000 -1.69371635937500 
 C -2.88605488750001 -3.22524192500000 -2.22002835937500 
 C -1.65131688750001 -3.59015992500000 -1.53742935937500 
 N -0.104909887500011 -7.33609692500000 -2.50582435937500 
 N -2.21738488750001 -6.58009892500000 -3.64290935937500 
 N -2.95310888750001 -6.95041792500000 8.486564062500035E-002
 N -0.602362887500011 -3.75033092500000 -2.34374935937500 
 N -2.81874588750001 -3.03713492500000 -3.52534335937500 
 N -3.51262388750001 -3.35758092500000 0.239082640625000 
 S -0.702134887500010 -7.12084392500000 -4.04409035937500 
 S -3.67816388750001 -6.52484692500000 -1.33206135937500 
 S -1.31252488750001 -7.22191592500000 5.181764062500038E-002
 S -1.23175388750001 -3.37472192500000 -3.88927635937500 
 S -4.26566788750001 -3.05043592500000 -1.17906035937500 
 S -1.93254188750001 -3.73025692500000 0.137935640625000 
