16

 C -2.60992834687500 -6.26300006250001 -2.44282144375000 
 C -1.45273534687500 -6.78602406250000 -1.77109844375000 
 C -2.42539434687500 -3.03826606250000 -2.35591844375000 
 C -1.20108234687500 -3.33914906250000 -1.65308544375000 
 N -0.463456346875000 -7.30063806250000 -2.53038944375000 
 N -2.42904034687500 -6.36239806250000 -3.77146044375000 
 N -3.29328734687500 -6.28510406250000 2.612455625000099E-002
 N -0.182186346875000 -3.31544806250000 -2.51093644375000 
 N -2.41194034687500 -2.92045506250000 -3.67491844375000 
 N -3.00115234687500 -3.12665706250000 0.155447556250001 
 S -0.945744346874999 -7.02578006250000 -4.09084444375000 
 S -3.90861934687500 -5.81858506250000 -1.38755044375000 
 S -1.64041134687500 -6.74914206250000 -9.254443749998842E-003
 S -0.842557346874999 -3.20987106250000 -4.09423244375000 
 S -3.78703534687500 -3.04812606250000 -1.30070644375000 
 S -1.36092834687500 -3.31412306250000 8.373655625000098E-002
