16

 C -2.60632682500000 -6.45449754374999 -2.51417917812500 
 C -1.46853282500000 -7.00584454374999 -1.82351717812500 
 C -2.26571482500000 -2.83782754374999 -2.40230117812500 
 C -0.995052824999997 -3.30320254375000 -1.75467817812500 
 N -0.402080824999996 -7.11773654375000 -2.61054417812500 
 N -2.45219082500000 -6.15023054374999 -3.82372017812500 
 N -3.34675582500000 -6.76800854374999 -4.958417812500171E-002
 N 2.741017500000353E-002 -3.54410054374999 -2.60147617812500 
 N -2.13751982500000 -2.64202354374999 -3.72228717812500 
 N -2.79398382500000 -3.22792754374999 7.554782187499831E-002
 S -0.910890824999997 -6.66211654374999 -4.18385417812500 
 S -4.03983082500000 -6.29324454374999 -1.50980317812500 
 S -1.78213182500000 -7.29234754374999 -0.150261178125001 
 S -0.563471824999996 -3.01685754374999 -4.08721017812500 
 S -3.58420082500000 -2.74497554374999 -1.27917117812500 
 S -1.19563282500000 -3.61786854374999 -5.555617812500158E-002
