16

 C -2.39730852187500 -6.48035733125000 -2.27807892500000 
 C -1.10924152187500 -6.84713633125000 -1.69864892500000 
 C -2.33910352187500 -2.55796833125000 -2.37488692500000 
 C -1.20805952187500 -3.16167133125000 -1.75973092500000 
 N -5.608152187499815E-002 -6.98410533125000 -2.50156392500000 
 N -2.29239352187500 -6.25288233125000 -3.60419892500000 
 N -2.87130652187500 -6.60865533125000 0.185147075000000 
 N -0.196587521874998 -3.42923833125000 -2.58560592500000 
 N -2.29356252187500 -2.35130333125000 -3.69610392500000 
 N -2.98492352187500 -3.06146733125000 6.575007499999996E-002
 S -0.703862521874998 -6.60827133125000 -3.95850992500000 
 S -3.73933952187500 -6.36606933125000 -1.16076892500000 
 S -1.31932352187500 -7.36025233125000 -1.060792499999996E-002
 S -0.712048521874999 -2.80117833125000 -4.09575592500000 
 S -3.70503752187500 -2.37614633125000 -1.25843992500000 
 S -1.44605552187500 -3.50070733125000 -0.141618925000000 
