16

 C -2.48989918750000 -6.57450335312500 -2.14690097812500 
 C -1.28144918750000 -7.11591835312500 -1.69951597812500 
 C -2.49124618750000 -2.82860235312500 -2.44970397812500 
 C -1.29563718750000 -3.35356035312500 -1.78310997812500 
 N -0.295089187499999 -7.17368535312500 -2.62535397812500 
 N -2.51153618750000 -6.30988435312500 -3.45472597812500 
 N -2.84557018750000 -7.05028735312500 0.364058021874998 
 N -0.251509187499999 -3.53360535312500 -2.58035197812500 
 N -2.31641318750000 -2.68840135312500 -3.76853397812500 
 N -3.19373218750000 -3.10971335312500 -3.405978125001763E-003
 S -0.975602187499999 -6.57085935312500 -4.02679697812500 
 S -3.61640618750000 -6.37997335312500 -0.883150978125002 
 S -1.28977318750000 -7.46611035312500 5.276202187499823E-002
 S -0.793689187499998 -3.17019435312500 -4.13873697812500 
 S -3.76287318750000 -2.29648635312500 -1.37614297812500 
 S -1.61248218750000 -3.59833835312500 -0.107717978125002 
