16

 C -2.45854076250000 -6.76870481874999 -2.39507754062500 
 C -1.19397376250000 -7.00025181874999 -1.71043054062500 
 C -2.17247776250000 -2.80115281874999 -2.43068954062500 
 C -0.999123762499997 -3.26250781874999 -1.69399854062500 
 N -0.171133762499998 -6.91677481874999 -2.56503554062500 
 N -2.43848676250000 -6.52909681874999 -3.69716954062500 
 N -2.97739076250000 -7.07243781874999 0.119017459375002 
 N 9.427823750000197E-002 -3.46944181874999 -2.41294354062500 
 N -1.96309976250000 -2.83782381874999 -3.75075254062500 
 N -2.84658976250000 -3.08523181874999 4.031045937500188E-002
 S -0.820191762499998 -6.52839981874999 -4.07640554062500 
 S -3.81667276250000 -6.82074381874999 -1.34320754062500 
 S -1.34729376250000 -7.23657981874999 -4.386754062499820E-002
 S -0.307866762499997 -3.13040781874999 -3.95482454062500 
 S -3.52334376250000 -2.57227581874999 -1.42600254062500 
 S -1.31567776250000 -3.61674181874999 7.890459375001768E-003
