16

 C -2.42569072812500 -6.23261184062500 -2.43299357812500 
 C -1.21757272812500 -6.61518284062500 -1.80114657812500 
 C -2.22069172812500 -2.92548684062499 -2.46537157812500 
 C -0.988617728125000 -3.26910384062499 -1.86303057812500 
 N -0.143235728124999 -6.88238184062500 -2.57788357812500 
 N -2.32090172812500 -6.14950884062499 -3.77416857812500 
 N -3.10306172812500 -6.42555184062499 4.113842187500039E-002
 N 7.057127187500001E-002 -3.29325284062500 -2.70024157812500 
 N -2.21310172812500 -2.75638784062500 -3.80785357812500 
 N -2.81164672812500 -3.19916584062500 7.213042187500052E-002
 S -0.723486728125000 -6.59734584062500 -4.12504957812500 
 S -3.78843872812500 -6.02365584062500 -1.39518657812500 
 S -1.42897972812500 -6.71726684062499 -6.644957812499963E-002
 S -0.669168728124999 -3.08195984062499 -4.23574057812500 
 S -3.60649372812500 -2.89930684062499 -1.38037657812500 
 S -1.20360472812500 -3.48102684062500 -0.153786578125000 
