16

 C -2.58589957500000 -6.61500362812501 -2.40688480625000 
 C -1.38054557500000 -7.01735462812501 -1.71581780625000 
 C -2.14560257500000 -2.86456762812501 -2.37717580625000 
 C -1.04390857500000 -3.50242162812501 -1.71684080625000 
 N -0.415371575000003 -7.21363962812501 -2.57929780625000 
 N -2.46006957500000 -6.36860962812501 -3.70506280625000 
 N -3.20461957500000 -6.64818262812501 0.175437193750001 
 N 1.707642499999729E-002 -3.69158662812501 -2.48443080625000 
 N -1.86295657500000 -2.60503062812501 -3.63114980625000 
 N -2.87725057500000 -3.32171762812501 3.637619375000090E-002
 S -0.923908575000002 -6.85094462812501 -4.12388480625000 
 S -3.90309857500000 -6.21161062812501 -1.28675980625000 
 S -1.60474857500000 -7.12150462812501 1.338419375000099E-002
 S -0.286622575000003 -3.02531062812501 -3.96623580625000 
 S -3.57766457500000 -2.81845462812501 -1.41820180625000 
 S -1.35083557500000 -3.87221662812501 -6.677880624999899E-002
