16

 C -2.48016310937500 -6.41866071562500 -2.20237462500000 
 C -1.19212110937500 -6.94608471562500 -1.74551662500000 
 C -2.53200010937500 -2.75791471562500 -2.52675362500000 
 C -1.40020910937500 -3.38481971562500 -1.76776362500000 
 N -0.185451109375001 -6.99504771562500 -2.59568762500000 
 N -2.41346410937500 -6.17021671562500 -3.51295362500000 
 N -2.84899510937500 -7.02480671562500 0.271048375000001 
 N -0.342405109375001 -3.66714071562500 -2.53438662500000 
 N -2.33917310937500 -2.59369471562500 -3.83980462500000 
 N -3.27496510937500 -3.06787471562500 -2.445462499999929E-002
 S -0.864903109375001 -6.55592971562500 -4.04126862500000 
 S -3.74680010937500 -6.37455071562500 -0.997555624999999 
 S -1.18103610937500 -7.35905971562500 -5.417362499999911E-002
 S -0.786095109375001 -3.14541471562500 -4.03810362500000 
 S -3.85052510937500 -2.41266771562500 -1.43140062500000 
 S -1.69640710937500 -3.60957671562500 -3.799062499999928E-002
