16

 C -2.63942614062500 -6.36550078750000 -2.28606259687500 
 C -1.45662714062500 -6.90577478750000 -1.68294659687500 
 C -2.45974214062500 -2.80712178750000 -2.39895359687500 
 C -1.18672614062500 -3.23750978750000 -1.80821059687500 
 N -0.421911140624996 -7.20818778750000 -2.48051359687500 
 N -2.55040314062500 -6.31247878750000 -3.61882759687500 
 N -3.16803114062500 -6.45100978750000 0.197837403125000 
 N -0.279220140624996 -3.45004478750000 -2.74252059687500 
 N -2.38605414062500 -2.65277678750000 -3.70471359687500 
 N -2.88501014062500 -2.93680678750000 0.112902403125000 
 S -1.03939214062500 -6.85539378750000 -3.99105559687500 
 S -3.98063514062500 -6.16728978750000 -1.23198359687500 
 S -1.62569214062500 -7.00676078750000 3.569740312499992E-002
 S -0.910146140624995 -3.15369478750000 -4.21654159687500 
 S -3.75672814062500 -2.60466678750000 -1.26961159687500 
 S -1.28529714062500 -3.31997278750000 -0.141747596875000 
