16

 C -2.24693413437500 -6.53258395000000 -2.52330245937500 
 C -1.02571713437500 -6.93085995000000 -1.88978445937500 
 C -2.51262613437500 -2.54127195000000 -2.53019945937500 
 C -1.31881713437500 -3.07793795000000 -1.95644245937500 
 N -0.125792134375004 -7.32845695000000 -2.79098845937500 
 N -2.30625113437500 -6.54025495000000 -3.83310445937500 
 N -2.64748113437500 -6.36519795000000 -1.172345937500019E-002
 N -0.339254134375004 -3.40496295000000 -2.80676245937500 
 N -2.40723613437500 -2.34531895000000 -3.84084645937500 
 N -2.97964613437500 -2.98216195000000 -3.237445937500016E-002
 S -0.880814134375004 -7.28447795000000 -4.28414545937500 
 S -3.54727613437500 -6.32043195000000 -1.40534845937500 
 S -1.03725013437500 -6.90610895000000 -0.206906459375000 
 S -1.00243813437500 -3.05315495000000 -4.31581345937500 
 S -3.74707513437500 -2.22965695000000 -1.29279545937500 
 S -1.36299213437500 -3.48148295000000 -0.232487459375000 
