16

 C -2.61880758437500 -6.57922208437500 -2.29706112500000 
 C -1.39578858437500 -7.02419508437500 -1.67111112500000 
 C -2.74164858437500 -2.54988408437500 -2.37296012500000 
 C -1.64451858437500 -3.14548908437500 -1.63162112500000 
 N -0.378865584374997 -7.20412208437500 -2.48249612500000 
 N -2.44610658437500 -6.44772708437500 -3.61257412500000 
 N -3.06634258437500 -6.86464808437500 0.206267875000000 
 N -0.600906584374997 -3.33935108437500 -2.38988512500000 
 N -2.50907458437500 -2.29410608437500 -3.64302812500000 
 N -3.41903458437500 -2.58045708437500 7.199287500000007E-002
 S -0.870018584374996 -6.81237608437500 -3.99303312500000 
 S -3.91803358437500 -6.46689308437500 -1.15461812500000 
 S -1.45268258437500 -7.43342808437500 4.268087500000006E-002
 S -0.947255584374997 -2.86035208437500 -3.92570712500000 
 S -4.02687358437500 -2.00397408437500 -1.34851012500000 
 S -1.96861358437500 -3.41897308437500 8.260875000000167E-003
