16

 C -2.30739621249999 -6.69704861875000 -2.59316520000000 
 C -1.04953421249999 -7.08448161875000 -1.95939420000000 
 C -2.55258821249999 -2.68343761874999 -2.52682520000000 
 C -1.28448821249999 -3.15307661875000 -1.97889620000000 
 N -0.106245212499993 -7.51671661874999 -2.79254820000000 
 N -2.24836721249999 -6.92567161875000 -3.90120320000000 
 N -2.71549221249999 -6.50018961875000 -3.331919999999977E-002
 N -0.326955212499993 -3.39925561875000 -2.86496320000000 
 N -2.54349221249999 -2.53036361875000 -3.86766720000000 
 N -2.94333821249999 -2.75926161875000 8.946800000000144E-003
 S -0.681531212499993 -7.38067061875000 -4.37077520000000 
 S -3.56085721249999 -6.23181261874999 -1.44814620000000 
 S -1.12001021249999 -6.94192061874999 -0.193903200000000 
 S -1.02807521249999 -2.91920761875000 -4.33850620000000 
 S -3.69586921249999 -2.21453161875000 -1.31827120000000 
 S -1.45092921249999 -3.40517661875000 -0.262342200000000 
