16

 C -2.50063626250000 -6.79594141250000 -2.42203544062500 
 C -1.20348626250000 -7.11389241249999 -1.96086544062500 
 C -2.57929926250000 -2.89623841250000 -2.45194044062500 
 C -1.39602726250000 -3.38076141250000 -1.78030444062500 
 N -0.275347262500003 -7.16157841250000 -2.89809544062500 
 N -2.57362626250000 -6.62072641250000 -3.76359644062500 
 N -2.62173226250000 -6.99410541250000 0.232074559375001 
 N -0.317054262500004 -3.52941841249999 -2.53880144062500 
 N -2.37835026250000 -2.73935441250000 -3.77956844062500 
 N -3.24574326250000 -3.17676841250000 5.674755937500064E-002
 S -1.02095626250000 -6.84074041250000 -4.31072344062500 
 S -3.61414026250000 -6.78859141250000 -1.06158544062500 
 S -1.04514326250000 -7.36946341249999 -0.217520440624999 
 S -0.811461262500003 -3.10055341250000 -4.15082344062500 
 S -3.91226326250000 -2.57437441249999 -1.34431744062500 
 S -1.67121526250000 -3.71692741250000 -0.100621440624999 
