16

 C -2.37557295937500 -6.62755006562501 -2.48878930312500 
 C -1.14801995937500 -7.07099206562501 -1.91399030312500 
 C -2.41233695937500 -2.95882106562501 -2.51790830312500 
 C -1.23462195937500 -3.47997506562501 -1.80007630312500 
 N -6.473395937500026E-002 -7.13215506562501 -2.69437030312500 
 N -2.24905695937500 -6.26871906562501 -3.76499430312500 
 N -2.85408995937500 -7.02268006562501 2.558569687500101E-002
 N -0.194492959375000 -3.76851006562501 -2.61241330312500 
 N -2.21362895937500 -2.69802106562501 -3.80395930312500 
 N -3.06856295937500 -3.21214306562501 -2.500330312499921E-002
 S -0.662712959375000 -6.58095406562501 -4.16808530312500 
 S -3.69759295937500 -6.62556506562501 -1.39956030312500 
 S -1.25988895937500 -7.35724406562501 -0.227979303124999 
 S -0.675093959375000 -3.27907306562501 -4.06220530312500 
 S -3.73085595937500 -2.67286706562501 -1.49987130312500 
 S -1.50058095937500 -3.70991406562501 -0.153668303124999 
