16

 C -2.32376280000001 -6.29055951875000 -2.20943988437500 
 C -1.13797780000001 -6.74751051875000 -1.57639288437500 
 C -2.30971980000001 -2.48112051875000 -2.11953388437500 
 C -1.14441580000001 -3.15611351875000 -1.63856588437500 
 N -5.499580000000659E-002 -6.92396451875000 -2.36301788437500 
 N -2.14495780000001 -6.08334151874999 -3.51964288437500 
 N -3.08147080000001 -6.51913251875000 0.184730115624999 
 N -9.386580000000677E-002 -3.08578451875000 -2.46837588437500 
 N -2.23061180000001 -2.00948151875000 -3.37219888437500 
 N -2.94343680000001 -3.34783651875000 0.269766115624999 
 S -0.651578800000006 -6.61665651875000 -3.88532888437500 
 S -3.71259380000001 -6.08654651875000 -1.27019088437500 
 S -1.46497380000001 -7.09714351875000 0.141407115624999 
 S -0.642843800000007 -2.46722351875000 -3.85579388437500 
 S -3.64663380000001 -2.48744451875000 -0.934439884375001 
 S -1.34660980000001 -3.75564151875000 -7.829388437500118E-002
