16

 C -2.24041532812499 -6.13735196250000 -2.02832694375000 
 C -1.08812132812499 -6.76795196250001 -1.47874994375000 
 C -2.33776432812499 -2.54979896250001 -2.29811494375000 
 C -1.24289532812499 -3.18870396250000 -1.58400694375000 
 N -0.121304328124989 -6.93272496250000 -2.38167794375000 
 N -2.16955432812499 -5.75547296250000 -3.30982594375000 
 N -2.88989532812499 -6.87853296250000 0.421697056250003 
 N -0.186644328124989 -3.52273396250000 -2.29612894375000 
 N -2.06070032812499 -2.42748396250000 -3.60294594375000 
 N -3.08357332812499 -2.97818896250000 0.134377056250003 
 S -0.627417328124989 -6.16500096250000 -3.80335294375000 
 S -3.62994932812499 -6.15440196250001 -0.928894943749997 
 S -1.32197832812499 -7.21827196250000 0.230752056250003 
 S -0.547897328124988 -2.93562396250000 -3.84925394375000 
 S -3.76214932812499 -2.44399096250000 -1.32882594375000 
 S -1.43909032812499 -3.27738596250000 0.121580056250003 
