16

 C -2.31736009062500 -6.50669695000000 -2.51914550312500 
 C -1.08515009062500 -6.83828495000000 -1.86352750312500 
 C -2.51468809062500 -2.49504495000000 -2.64349150312500 
 C -1.44943509062500 -3.05908095000000 -1.84433150312500 
 N 3.188909374999938E-003 -6.93940795000000 -2.64922150312500 
 N -2.13506909062500 -6.22014895000000 -3.83243650312500 
 N -2.92090909062500 -6.54228395000000 9.635496874998539E-003
 N -0.382327090625000 -3.36188895000000 -2.54624350312500 
 N -2.26974509062500 -2.29586295000000 -3.93507150312500 
 N -3.46499409062500 -2.82789195000000 -0.256113503125001 
 S -0.570801090625000 -6.55894595000000 -4.21711550312500 
 S -3.72292009062500 -6.30899095000000 -1.51802450312500 
 S -1.28706909062500 -6.79232895000000 -8.395950312500156E-002
 S -0.631935090625000 -2.69882295000000 -4.08506050312500 
 S -3.95129409062500 -2.25697095000000 -1.73084850312500 
 S -1.85587909062500 -3.27416195000000 -0.192525503125002 
