16

 C -2.30446757500000 -6.54247030312499 -2.39354445000000 
 C -1.12287357500000 -7.11224530312499 -1.73736045000000 
 C -2.46188357500000 -2.82282330312499 -2.22679645000000 
 C -1.18904257500000 -3.18578830312499 -1.68743745000000 
 N -8.798357500000265E-002 -7.29096430312499 -2.57677145000000 
 N -2.24066957500000 -6.41590230312499 -3.72884445000000 
 N -2.83386157500000 -6.57802430312499 0.119014549999999 
 N -0.220212575000002 -3.47487730312499 -2.58069645000000 
 N -2.48176557500000 -2.66343930312499 -3.56413045000000 
 N -2.87360257500000 -2.97420530312499 0.272331549999999 
 S -0.717332575000002 -6.85175030312499 -4.08376645000000 
 S -3.65970957500000 -6.37960430312499 -1.26294045000000 
 S -1.30473657500000 -7.34560830312499 -1.662645000000107E-002
 S -1.00890657500000 -3.24507530312499 -4.09341545000000 
 S -3.78017957500000 -2.72077830312499 -1.10406345000000 
 S -1.22711557500000 -3.16822830312499 3.443454999999895E-002
