16

 C -2.30807850625000 -6.45079487500000 -2.45316501875000 
 C -1.07869650625000 -6.80560187500000 -1.84189001875000 
 C -2.48909450625000 -3.27424387500000 -2.08987101875000 
 C -1.14502450625000 -3.34422987500000 -1.54824201875000 
 N -4.340506250004594E-003 -6.86761587500000 -2.67180601875000 
 N -2.19955450625000 -6.37702987500000 -3.78041701875000 
 N -2.93814850625000 -6.55462887500000 2.648198124999923E-002
 N -0.225796506250004 -3.37868387500000 -2.49096701875000 
 N -2.51780550625000 -3.36883187500000 -3.43026201875000 
 N -2.70962450625000 -3.57982987500000 0.449581981249999 
 S -0.660316506250004 -6.67897887500000 -4.23174901875000 
 S -3.67703750625000 -6.22646087500000 -1.42165801875000 
 S -1.34409050625000 -6.86708187500000 -7.489101875000093E-002
 S -0.953883506250004 -3.33424487500000 -3.99479701875000 
 S -3.66639250625000 -3.33391687500000 -0.887851018750001 
 S -1.03603150625000 -3.62184287500000 0.156245981249999 
