16

 C -2.65998389375000 -6.20219033437499 -2.28050616562500 
 C -1.41357689375000 -6.68219333437499 -1.70119116562500 
 C -2.37698689375000 -2.55577533437499 -2.49580516562500 
 C -1.21902789375000 -3.02544133437499 -1.77972216562500 
 N -0.387406893749999 -6.97162233437499 -2.51846716562500 
 N -2.59440289375000 -6.11428933437499 -3.60895316562500 
 N -3.12408389375000 -6.45811133437499 0.235620834374998 
 N -0.177386893750000 -3.34592333437499 -2.53804216562500 
 N -2.29283589375000 -2.47962733437499 -3.81178916562500 
 N -3.08651989375000 -2.74513833437499 5.224783437499836E-002
 S -1.02527989375000 -6.54916933437499 -3.99936416562500 
 S -3.87401689375000 -5.84315233437499 -1.08462516562500 
 S -1.49141689375000 -6.86200133437499 -4.971656250016832E-004
 S -0.732129893749999 -2.97952033437499 -4.11366716562500 
 S -3.72822989375000 -2.30466333437499 -1.37692516562500 
 S -1.45761789375000 -3.02244733437499 -3.700316562500161E-002
