16

 C -2.49990138125000 -6.16283143437499 -2.43025197812500 
 C -1.27106438125000 -6.62993443437499 -1.83249297812500 
 C -2.43118438125000 -3.07138043437499 -2.56865297812500 
 C -1.20244038125000 -3.32182343437499 -1.86379597812500 
 N -0.314506381249999 -6.85369243437499 -2.75748397812500 
 N -2.50942138125000 -6.10618543437499 -3.76044197812500 
 N -2.95706138125000 -6.31362543437499 5.636402187499923E-002
 N -9.725538124999922E-002 -3.58331643437499 -2.58928297812500 
 N -2.25741238125000 -2.98866643437499 -3.89315397812500 
 N -3.02449638125000 -2.87302643437499 -6.967897812500068E-002
 S -0.932065381249999 -6.46862343437499 -4.24112997812500 
 S -3.82630738125000 -5.90578043437499 -1.26515397812500 
 S -1.34225138125000 -6.78674543437499 -0.162812978125001 
 S -0.632587381249999 -3.30847343437499 -4.21553997812500 
 S -3.82783438125000 -2.82050443437499 -1.52612397812500 
 S -1.39235038125000 -3.22963943437499 -6.034097812500083E-002
