16

 C -2.43060774062500 -6.57064065937500 -2.30703712187500 
 C -1.14906074062500 -6.87324665937500 -1.71930512187500 
 C -2.53593274062500 -2.59987265937500 -2.42159712187500 
 C -1.42825974062500 -3.22962165937500 -1.80274412187500 
 N -0.132677740624996 -7.03235365937500 -2.55998112187500 
 N -2.37649274062500 -6.54752665937500 -3.63328212187500 
 N -2.84478074062500 -6.65660265937500 0.194918878125001 
 N -0.413324740624996 -3.41001965937500 -2.62869412187500 
 N -2.41400374062500 -2.44876565937500 -3.72033812187500 
 N -3.07695274062500 -2.85774665937500 4.736287812500062E-002
 S -0.784269740624996 -6.83102765937500 -4.10521712187500 
 S -3.75158374062500 -6.38170865937500 -1.25838112187500 
 S -1.21466174062500 -7.02980365937500 3.032878125000638E-003
 S -0.935300740624997 -3.03031765937500 -4.15763712187500 
 S -3.89829074062500 -2.31666765937500 -1.35704212187500 
 S -1.54783574062500 -3.50551165937500 -0.107719121874999 
