16

 C -2.21890390624999 -6.20970838750000 -2.46091999375000 
 C -1.08378890624999 -6.87472538750000 -1.86974299375000 
 C -2.24810990624999 -2.86050938750000 -2.32729499375000 
 C -1.01106290624999 -3.37503238750000 -1.77360299375000 
 N -8.363890624999470E-002 -7.14631138750000 -2.70908999375000 
 N -2.06916090624999 -5.98170138750000 -3.74641499375000 
 N -2.99877790624999 -6.82376638750000 -0.105801993749999 
 N -0.109747906249995 -3.59735238750000 -2.74211799375000 
 N -2.16154590624999 -2.59870438750000 -3.63819299375000 
 N -2.67811590624999 -3.08930938750000 0.194820006250001 
 S -0.643133906249994 -6.58589238750000 -4.18575799375000 
 S -3.60952190624999 -6.11850138750000 -1.46352299375000 
 S -1.37837090624999 -7.16553838750000 -0.168985993749999 
 S -0.678705906249994 -3.06975238750000 -4.17121899375000 
 S -3.54421790624999 -2.68191638750000 -1.16565499375000 
 S -1.11171290624999 -3.67454938750000 -0.132777993749999 
