16

 C -2.31510732812499 -6.26985870937501 -2.35001867187500 
 C -1.06188832812499 -6.76434670937501 -1.77525067187500 
 C -2.58792932812499 -2.54187470937501 -2.53869767187500 
 C -1.53011732812499 -3.16428470937501 -1.82025667187500 
 N -0.146186328124991 -6.96148770937501 -2.69162167187500 
 N -2.29108732812499 -6.09111070937501 -3.63741567187500 
 N -2.89149332812499 -6.76299170937501 3.843732812500145E-002
 N -0.546277328124992 -3.53122470937501 -2.63500967187500 
 N -2.35537932812499 -2.35843470937501 -3.82317567187500 
 N -3.19345532812499 -2.59651770937501 -2.254967187499846E-002
 S -0.790370328124991 -6.47571070937501 -4.14142567187500 
 S -3.56716232812499 -5.94177570937501 -1.24860967187500 
 S -1.21977332812499 -7.08723170937501 -2.052567187499843E-002
 S -0.908134328124992 -3.12012870937501 -4.20803867187500 
 S -3.87526332812499 -2.12939870937501 -1.48760567187500 
 S -1.63479132812499 -3.12129570937501 -8.859067187499847E-002
