16

 C -2.27129823125000 -6.50479382812500 -2.58614816875000 
 C -1.07181223125000 -7.01341882812500 -1.98176616875000 
 C -2.67954123125000 -2.42352582812500 -2.34746316875000 
 C -1.52511623125000 -2.93211782812500 -1.62259916875000 
 N -5.128823125000448E-002 -7.29636882812500 -2.80342316875000 
 N -2.07438723125000 -6.24389482812500 -3.87696016875000 
 N -2.80601323125001 -6.47457382812500 -0.120806168750001 
 N -0.483940231250005 -3.24755382812500 -2.40016716875000 
 N -2.55181123125000 -2.51085682812500 -3.66717916875000 
 N -3.45092623125000 -2.75099082812500 0.100441831249999 
 S -0.596178231250005 -6.78595182812500 -4.30598216875000 
 S -3.59414723125000 -6.11027582812500 -1.53484016875000 
 S -1.23240023125001 -7.00566682812500 -0.227661168750001 
 S -0.998981231250005 -2.92499082812500 -3.95288216875000 
 S -4.12728323125000 -2.20227482812500 -1.30931016875000 
 S -1.81862623125000 -3.08942282812500 7.028183124999887E-002
