16

 C -2.29969724374999 -6.49887644687500 -2.42337619687500 
 C -1.05170124374999 -6.89943044687500 -1.86194119687500 
 C -2.40565624374999 -2.50054744687500 -2.43559019687500 
 C -1.28478224374999 -3.22293944687500 -1.91549219687500 
 N -0.180556243749994 -7.30257744687500 -2.77319819687500 
 N -2.38299524374999 -6.45350444687500 -3.77734719687500 
 N -2.63048624374999 -6.44922044687500 0.192945803125002 
 N -0.369938243749994 -3.60830644687500 -2.79119419687500 
 N -2.36047624374999 -2.37085544687500 -3.76278219687500 
 N -3.05961124374999 -3.02110644687500 3.165803125001698E-003
 S -0.804633243749993 -6.93210944687500 -4.31230819687500 
 S -3.53529324374999 -6.20383844687500 -1.13104819687500 
 S -1.02232924374999 -6.89964744687500 -0.116759196874998 
 S -0.923946243749993 -3.01879744687500 -4.26464419687500 
 S -3.70941824374999 -2.36008344687500 -1.36956819687500 
 S -1.43417924374999 -3.38191944687500 -0.187982196874998 
