16

 C -2.54267825937500 -6.57963613750000 -2.51719457812500 
 C -1.28188325937500 -6.95903113750000 -1.98249357812500 
 C -2.59776925937500 -2.70501313750000 -2.20005557812500 
 C -1.37711825937500 -3.15218913750000 -1.56849057812500 
 N -0.380050259374999 -7.12642813750000 -2.90834457812500 
 N -2.62739025937500 -6.42114513750000 -3.81814157812500 
 N -2.80232525937500 -6.65069813750000 5.736742187499910E-002
 N -0.401693259374999 -3.40853313750000 -2.47552057812500 
 N -2.48625025937500 -2.62248413750000 -3.52410357812500 
 N -3.17653225937500 -3.04152013750000 0.247428421874999 
 S -1.06603125937500 -6.76185813750000 -4.35507457812500 
 S -3.78456625937500 -6.41420113750000 -1.31215357812500 
 S -1.27213625937500 -7.05720813750000 -0.305167578125001 
 S -0.973344259374999 -3.10093213750000 -3.97861657812500 
 S -3.98078225937500 -2.55745613750000 -1.17403457812500 
 S -1.61134325937500 -3.63680113750000 0.114304421874999 
