16

 C -2.42398721875000 -6.65688780625000 -2.23704895625000 
 C -1.12717821875000 -6.78810680625000 -1.61322895625000 
 C -2.32699421875000 -2.73358180625000 -2.55028295625000 
 C -1.02008021875000 -3.13752480625000 -1.99823595625000 
 N -6.524321875000005E-002 -6.76364980625000 -2.43505995625000 
 N -2.34115721875000 -6.58692180625000 -3.56052695625000 
 N -2.96934121875000 -6.94773880625000 0.248470043750000 
 N -0.109047218750000 -3.37156680625000 -2.92768095625000 
 N -2.31491821875000 -2.59217680625000 -3.87325495625000 
 N -2.67686621875000 -2.87483580625000 2.268604375000027E-002
 S -0.715341218750000 -6.57728380625000 -3.98397695625000 
 S -3.82371321875000 -6.64992380625000 -1.18713495625000 
 S -1.34752621875000 -7.07059180625000 0.187104043750000 
 S -0.867554218750000 -3.02253480625000 -4.44400495625000 
 S -3.57836121875000 -2.40741680625000 -1.28981495625000 
 S -1.14777021875000 -3.48113880625000 -0.217110956250000 
