16

 C -2.41435546875000 -6.83688809687500 -2.17221264687500 
 C -1.14722246875000 -7.18546609687500 -1.59346264687500 
 C -2.54571646875000 -2.84247909687500 -2.37336764687500 
 C -1.25812546875000 -3.24007509687500 -1.80589964687500 
 N -0.181526468750001 -7.25269609687500 -2.48556764687500 
 N -2.43402546875000 -6.67431909687500 -3.49245864687500 
 N -2.89776646875000 -7.02822509687500 0.376985353125000 
 N -0.305932468750001 -3.29900809687500 -2.74763464687500 
 N -2.49585446875000 -2.66100109687500 -3.69174764687500 
 N -2.96893046875000 -2.89106009687500 0.159448353125000 
 S -0.835527468750001 -6.93487309687500 -4.00964364687500 
 S -3.66667946875000 -6.65708609687499 -1.03200964687500 
 S -1.25315346875000 -7.35772809687499 0.137382353125000 
 S -0.926554468750001 -2.95217809687500 -4.20828564687500 
 S -3.74807446875000 -2.55208109687500 -1.21084964687500 
 S -1.39303046875000 -3.38159409687499 -9.562364687499958E-002
