16

 C -2.30357723749999 -6.94616305000000 -2.60147380937500 
 C -1.10448123749999 -7.28866605000000 -1.90152880937500 
 C -2.59787523749999 -2.73916205000000 -2.53354780937500 
 C -1.37668823749999 -3.31186705000000 -1.93997280937500 
 N -4.263223749999057E-002 -7.55367005000000 -2.70929880937500 
 N -2.16903323749999 -6.97362705000000 -3.90958080937500 
 N -2.72222823749999 -6.63192005000000 -5.352780937499935E-002
 N -0.386241237499990 -3.36259205000000 -2.82741380937500 
 N -2.53491823749999 -2.50961704999999 -3.84201380937500 
 N -2.92366123749999 -2.66303205000000 -3.070809374999373E-003
 S -0.629083237499991 -7.41797104999999 -4.23925180937500 
 S -3.47473923749999 -6.20438305000000 -1.51125680937500 
 S -1.16864523749999 -7.06743805000000 -0.202742809375000 
 S -0.955445237499990 -2.94026605000000 -4.29949580937500 
 S -3.79726923749999 -2.25324205000000 -1.43125180937500 
 S -1.38173723749999 -3.30828905000000 -0.189069809374999 
