16

 C -2.49799098750001 -6.67075059062500 -2.40942546562500 
 C -1.23463698750001 -6.92005659062500 -1.80322246562500 
 C -2.09752098750001 -2.90863459062500 -2.39523946562500 
 C -0.950676987500007 -3.25833059062500 -1.60079246562500 
 N -0.190341987500006 -6.91609059062500 -2.57885046562500 
 N -2.38304098750001 -6.54750459062500 -3.72492346562500 
 N -2.94665798750001 -7.01714059062500 5.520353437500258E-002
 N 0.133760012499994 -3.37825559062500 -2.34618346562500 
 N -1.91177198750001 -2.72480959062500 -3.69555846562500 
 N -2.95725098750001 -3.10281759062500 2.880853437500264E-002
 S -0.797239987500006 -6.58263759062500 -4.03934146562500 
 S -3.80340698750001 -6.77532059062500 -1.32164246562500 
 S -1.29240298750001 -7.27614859062500 -7.307346562499739E-002
 S -0.300131987500007 -3.06812659062500 -3.97367146562500 
 S -3.51399598750001 -2.49699959062500 -1.41136146562500 
 S -1.32870498750001 -3.68177459062500 5.285853437500254E-002
