16

 C -2.56776779062500 -6.58836484062501 -2.46054247187500 
 C -1.30609179062500 -6.92802984062501 -1.85431647187500 
 C -2.26116479062500 -3.20711984062501 -2.20616747187500 
 C -1.10688279062500 -3.65799584062501 -1.56223447187500 
 N -0.290515790625003 -7.10984584062501 -2.72942547187500 
 N -2.53963979062500 -6.64269384062501 -3.79545947187500 
 N -3.06972879062500 -6.66243884062501 2.849152812500022E-002
 N -1.342379062500232E-002 -3.74730384062501 -2.33978647187500 
 N -2.09800579062500 -2.88477984062501 -3.48121547187500 
 N -2.91267079062500 -3.41349484062501 0.285961528125000 
 S -0.960106790625002 -6.88827484062501 -4.23076947187500 
 S -3.84621379062500 -6.46994084062501 -1.38451147187500 
 S -1.43202079062500 -6.89718584062501 -4.791947187500001E-002
 S -0.522262790625002 -3.29548984062501 -3.86769747187500 
 S -3.66776279062500 -3.02841284062501 -1.17259547187500 
 S -1.33231279062500 -3.83069684062501 0.143493528125000 
