16

 C -2.26428046250000 -6.45664189062500 -2.30949953437500 
 C -1.06000246250000 -7.11653889062500 -1.77147353437500 
 C -2.24394146250000 -2.69964789062500 -2.43804553437500 
 C -1.06899346250000 -3.15400989062500 -1.71517353437500 
 N -0.105243462500002 -7.36939689062500 -2.68879953437500 
 N -2.14605746250000 -6.24448289062500 -3.60787553437500 
 N -2.59271346250000 -6.58604189062500 0.197695465624998 
 N -4.838146250000275E-002 -3.37894289062500 -2.53718953437500 
 N -2.07853246250000 -2.44851189062500 -3.72081053437500 
 N -2.94120746250000 -2.91542689062500 2.882465624998165E-003
 S -0.691711462500002 -6.75141689062500 -4.11607953437500 
 S -3.47170046250000 -6.08385089062500 -1.12881053437500 
 S -1.16188146250000 -7.33587189062500 -4.245353437500188E-002
 S -0.474928462500002 -2.84883489062500 -4.03438153437500 
 S -3.66399646250000 -2.37843489062500 -1.45835753437500 
 S -1.37999346250000 -3.44995889062500 -3.322353437500181E-002
