16

 C -2.31839107812500 -6.38499678125001 -2.56208185000000 
 C -1.10616207812500 -6.81345978125001 -1.83936185000000 
 C -2.29116107812500 -2.94512478125001 -2.42613285000000 
 C -1.05261307812500 -3.20650478125001 -1.85083685000000 
 N -2.539907812499997E-002 -6.95130278125001 -2.60035985000000 
 N -2.11516907812500 -6.27437778125001 -3.85453085000000 
 N -2.96682407812500 -6.54462578125001 -3.531185000000026E-002
 N -0.110081078125000 -3.41458078125001 -2.73101985000000 
 N -2.30982507812500 -2.81905978125001 -3.73437385000000 
 N -2.72057807812500 -2.88746378125001 6.517414999999982E-002
 S -0.509843078125000 -6.64652678125001 -4.18852585000000 
 S -3.66359407812500 -6.02163478125001 -1.45052585000000 
 S -1.28872807812500 -6.73076078125001 -8.937485000000045E-002
 S -0.728216078125000 -3.08385978125001 -4.28522485000000 
 S -3.60055907812500 -2.74932078125001 -1.27856085000000 
 S -1.13802107812500 -3.35142378125001 -0.128132850000000 
