16

 C -2.46903405000000 -6.76350209062500 -2.43555544687500 
 C -1.21775505000000 -7.01655609062500 -1.82877544687500 
 C -2.59437505000000 -2.80683909062500 -2.22566744687500 
 C -1.34665405000000 -3.28077809062500 -1.66380744687500 
 N -0.282360050000002 -7.19314009062500 -2.77636244687500 
 N -2.46974305000000 -6.62915809062500 -3.77435144687500 
 N -2.87640205000000 -6.88899509062500 0.117291553124998 
 N -0.345258050000003 -3.36599709062500 -2.51704344687500 
 N -2.54564705000000 -2.64512509062500 -3.53509744687500 
 N -3.02888205000000 -3.02814409062500 0.310548553124998 
 S -0.904563050000003 -6.90669109062500 -4.31505444687500 
 S -3.73640705000000 -6.39118809062500 -1.34115244687500 
 S -1.27110805000000 -7.09385609062500 -0.114325446875002 
 S -1.00717205000000 -3.02900109062500 -3.98150444687500 
 S -3.79627205000000 -2.49017309062500 -1.05913044687500 
 S -1.49981305000000 -3.52539809062500 1.438555312499812E-002
