16

 C -2.38933803437500 -6.41575173125000 -2.63026015937500 
 C -1.16162803437500 -6.87910273125001 -1.96408915937500 
 C -2.27070903437500 -2.52687373125000 -2.54560415937500 
 C -1.01638703437500 -3.04896673125001 -2.03114315937500 
 N -0.142139034375001 -7.15732573125000 -2.78609815937500 
 N -2.22586303437500 -6.41234773125001 -3.93517415937500 
 N -2.98289803437500 -6.62276973125001 -7.073615937500088E-002
 N -9.767603437500139E-002 -3.01144973125001 -2.95356915937500 
 N -2.31843503437500 -2.20068473125001 -3.82033515937500 
 N -2.76310803437500 -3.27197673125000 -0.129388159375001 
 S -0.659381034375001 -6.78699373125001 -4.34767715937500 
 S -3.69948703437500 -6.09055473125001 -1.52477115937500 
 S -1.37065903437500 -6.93677373125001 -0.193609159375001 
 S -0.745115034375001 -2.44302173125001 -4.40606115937500 
 S -3.53582103437500 -2.62956473125000 -1.43422915937500 
 S -1.15862103437500 -3.60445673125001 -0.385751159375001 
