16

 C -2.36847393437499 -6.54238634062500 -2.48371260937500 
 C -1.22858893437499 -7.01158134062500 -1.75019860937500 
 C -2.33590293437499 -2.88955034062500 -2.52406160937500 
 C -1.20496893437499 -3.38244734062500 -1.85732160937500 
 N -9.518693437499426E-002 -7.19065934062500 -2.43202760937500 
 N -2.08967493437499 -6.41050934062500 -3.77612360937500 
 N -3.15219593437499 -6.82289934062500 -3.250860937499978E-002
 N -8.867093437499385E-002 -3.46521634062500 -2.58910360937500 
 N -2.23084893437499 -2.74364634062500 -3.82905460937500 
 N -2.97589193437499 -3.11956034062500 -9.251960937500003E-002
 S -0.522926934374994 -6.86065334062500 -3.97835260937500 
 S -3.75034793437499 -6.32075634062500 -1.47493360937500 
 S -1.57827093437499 -7.32823634062500 -9.640060937499983E-002
 S -0.660113934374994 -3.10626334062500 -4.17619260937500 
 S -3.67719893437499 -2.67753234062500 -1.48015860937500 
 S -1.41148093437499 -3.67459234062500 -0.217870609375000 
