16

 C -2.54599523437499 -6.60170109687499 -2.43593630937500 
 C -1.23537423437499 -6.98018809687499 -1.95908530937500 
 C -2.55991223437499 -2.74921709687499 -2.55602430937500 
 C -1.41727423437499 -3.25437609687499 -1.78710130937500 
 N -0.258057234374995 -7.00103709687499 -2.86892830937500 
 N -2.55180623437499 -6.34275509687499 -3.72702630937500 
 N -2.93774123437499 -6.94424609687499 7.158369062499936E-002
 N -0.321644234374994 -3.48281209687499 -2.51586030937500 
 N -2.40758123437499 -2.74902309687499 -3.90728430937500 
 N -3.27864523437499 -2.71542209687499 -2.906530937500063E-002
 S -1.01355323437499 -6.58658609687499 -4.28527930937500 
 S -3.75576923437499 -6.47851709687499 -1.26494230937500 
 S -1.38372923437499 -7.29772409687499 -0.239275309375001 
 S -0.847640234374994 -3.17221009687499 -4.10982930937500 
 S -3.91137823437499 -2.27893009687499 -1.50525730937500 
 S -1.70745123437499 -3.23947409687499 -0.103187309375001 
