16

 C -2.34239198749999 -6.28883405000000 -2.56378598125000 
 C -1.24119498749999 -6.91744105000000 -1.90154598125000 
 C -2.24869398749999 -2.85084305000000 -2.33286298125000 
 C -0.955761987499994 -3.43501105000000 -1.82911298125000 
 N -0.175531987499993 -7.02603505000000 -2.67409498125000 
 N -2.15253098749999 -6.06978305000000 -3.85527698125000 
 N -3.03376698749999 -6.55793505000000 -7.602898124999991E-002
 N -1.309998749999330E-002 -3.61340905000000 -2.74927398125000 
 N -2.20156798749999 -2.51183105000000 -3.62477198125000 
 N -2.58090798749999 -3.35151805000000 0.226355018750000 
 S -0.582738987499994 -6.54366905000000 -4.21552098125000 
 S -3.69170698749999 -5.97111105000000 -1.46448098125000 
 S -1.48714598749999 -7.05788105000000 -0.221563981250000 
 S -0.652280987499994 -2.86335705000000 -4.11627198125000 
 S -3.49031498749999 -2.90776305000000 -1.11775998125000 
 S -1.05540698749999 -3.88122605000000 -0.185879981250000 
