16

 C -2.64620059687500 -6.48899327812501 -2.30989264375000 
 C -1.38276059687500 -6.95426727812501 -1.76500164375000 
 C -2.34335859687500 -2.95745627812501 -2.39061864375000 
 C -1.18836559687500 -3.50861927812501 -1.75548464375000 
 N -0.442835596875000 -7.10355227812501 -2.70216764375000 
 N -2.62040859687500 -6.31147527812501 -3.62667464375000 
 N -3.00550359687500 -6.76715827812501 0.215094356249999 
 N -0.125493596875000 -3.67700627812501 -2.54976964375000 
 N -2.18157259687500 -2.70255927812501 -3.68946764375000 
 N -2.96009359687500 -3.06029727812501 6.498835624999932E-002
 S -1.08205559687500 -6.61275527812501 -4.11399564375000 
 S -3.91285859687500 -6.22259027812501 -1.11581164375000 
 S -1.38717459687500 -7.08538027812501 -5.520364375000053E-002
 S -0.645018596875000 -3.21167027812501 -4.04632264375000 
 S -3.70509859687500 -2.79661927812501 -1.36626064375000 
 S -1.38590559687500 -3.65455727812501 1.717535624999922E-002
