16

 C -2.26166754375000 -6.43384742187500 -2.25642821562500 
 C -1.04369154375000 -7.04565342187500 -1.68837521562500 
 C -2.32593254375000 -2.61800142187500 -2.44917321562500 
 C -1.12677754375000 -3.12387542187500 -1.85849521562500 
 N -0.137107543749998 -7.30695342187500 -2.59939321562500 
 N -2.22363054375000 -6.31627242187500 -3.59332021562500 
 N -2.66876154375000 -6.69121942187500 0.318931784374999 
 N -0.142022543749998 -3.31350242187500 -2.70385321562500 
 N -2.16261154375000 -2.27228042187500 -3.71938721562500 
 N -2.86241154375000 -3.09825742187500 2.047978437499953E-002
 S -0.716981543749998 -6.86589142187500 -4.10247421562500 
 S -3.41157654375000 -6.07576742187500 -1.00305621562500 
 S -1.14512754375000 -7.30909942187500 -4.444215625000636E-003
 S -0.592091543749998 -2.79375842187500 -4.22376821562500 
 S -3.59860854375000 -2.41235942187500 -1.27907921562500 
 S -1.31535554375000 -3.59269542187500 -0.198314215625000 
