16

 C -2.33734738124999 -6.08176553437500 -2.22142812187500 
 C -1.15974538124999 -6.65454753437500 -1.62362712187500 
 C -2.63099638124999 -2.47679053437500 -2.60622012187500 
 C -1.38178838124999 -2.84370953437500 -1.96081612187500 
 N -0.182637381249990 -6.92649653437500 -2.49189512187500 
 N -2.25385938124999 -5.81498953437500 -3.54025512187500 
 N -2.73249238124999 -6.23038953437500 0.389823878125000 
 N -0.362463381249991 -3.03786753437500 -2.80296212187500 
 N -2.56921338124999 -2.40609253437500 -3.92617612187500 
 N -3.17032638124999 -2.41644953437500 -2.522212187500017E-002
 S -0.741113381249990 -6.44375253437500 -3.99699112187500 
 S -3.60006438124999 -5.83568453437500 -0.975521121875000 
 S -1.18562038124999 -6.88378153437500 0.108079878125000 
 S -1.00249838124999 -2.79926353437500 -4.32461612187500 
 S -3.96821738124999 -2.01890453437500 -1.45958612187500 
 S -1.54653438124999 -2.91448253437500 -0.168676121875000 
