16

 C -2.40382735937500 -6.39387969062499 -2.44952418125000 
 C -1.13593635937500 -6.67405469062499 -1.81116018125000 
 C -2.28318635937500 -2.91528369062499 -2.42647618125000 
 C -1.05564735937500 -3.24242269062499 -1.82107918125000 
 N -0.143809359375001 -6.97560669062499 -2.65445518125000 
 N -2.29512335937500 -6.30387369062499 -3.78302318125000 
 N -2.86817535937500 -6.39422569062499 3.401381874999809E-002
 N -7.552435937500146E-002 -3.29474569062499 -2.69578818125000 
 N -2.29896335937500 -2.87644769062499 -3.75399918125000 
 N -2.72699635937500 -2.97315369062499 0.128776818749998 
 S -0.751388359375001 -6.71859569062499 -4.13424518125000 
 S -3.70829835937500 -6.23268569062499 -1.38700318125000 
 S -1.27965535937500 -6.86262069062499 -0.101887181250002 
 S -0.718419359375002 -3.18555769062499 -4.22316118125000 
 S -3.57470735937500 -2.71913869062499 -1.30746518125000 
 S -1.11445435937500 -3.47200969062499 -9.799618125000165E-002
