16

 C -2.56877220000000 -6.31943237187500 -2.49921361250000 
 C -1.38392220000000 -6.82428037187500 -1.89746161250000 
 C -2.69027020000000 -2.61357037187500 -2.49573461250000 
 C -1.54858620000000 -3.16464237187500 -1.76507161250000 
 N -0.339589199999995 -6.96027537187500 -2.73576161250000 
 N -2.42059120000000 -6.03762137187500 -3.79456761250000 
 N -3.20803419999999 -6.57887137187500 -6.589461249999928E-002
 N -0.452129199999995 -3.33851237187500 -2.44051361250000 
 N -2.42883520000000 -2.36449437187500 -3.77969261250000 
 N -3.42935119999999 -2.82106537187500 -3.389612499999473E-003
 S -0.877541199999995 -6.49298937187500 -4.23020361250000 
 S -3.87113220000000 -5.99729437187500 -1.47906361250000 
 S -1.69675920000000 -7.25832037187500 -0.187754612500000 
 S -0.844445199999996 -2.86186737187500 -4.02172161250000 
 S -4.13032219999999 -2.40425537187500 -1.45834461250000 
 S -1.88260120000000 -3.43960737187500 -9.881161249999959E-002
