16

 C -2.23501647500000 -6.41540041249999 -2.61242435625000 
 C -1.12278447500000 -7.04191941249999 -1.95343435625000 
 C -2.68259147500000 -2.49722141249999 -2.35740435625000 
 C -1.56838947500000 -2.95767241249999 -1.66461335625000 
 N -9.611947500000184E-002 -7.32599341249999 -2.73865535625000 
 N -2.06970347500000 -6.20905041249999 -3.93243135625000 
 N -2.80602247500000 -6.49280941249999 -8.757035624999765E-002
 N -0.545623475000002 -3.28882041249999 -2.41692335625000 
 N -2.50034147500000 -2.26733441249999 -3.63903935625000 
 N -3.38319647500000 -2.60576841249999 0.114663643750002 
 S -0.532659475000002 -6.81470341249999 -4.26708035625000 
 S -3.57906147500000 -6.14172841249999 -1.52915235625000 
 S -1.24657047500000 -7.10766241249999 -0.224740356249997 
 S -0.960291475000002 -2.89129741249999 -3.96218335625000 
 S -4.03839047500000 -2.17762941249999 -1.36722035625000 
 S -1.83301947500000 -3.08682141249999 4.373564375000227E-002
