16

 C -2.34908029062500 -6.04449394062500 -2.20160139687500 
 C -1.14059029062500 -6.64476994062500 -1.62380839687500 
 C -2.63982229062500 -2.49677094062500 -2.54674739687500 
 C -1.37960429062500 -2.84363194062500 -1.90500439687500 
 N -0.199466290624999 -6.95043694062500 -2.50586739687500 
 N -2.29052329062500 -5.84027794062500 -3.51034139687500 
 N -2.78210829062500 -6.21658794062500 0.345186603124999 
 N -0.344689290624999 -3.12579594062500 -2.72034139687500 
 N -2.52034229062500 -2.40108894062500 -3.88531939687500 
 N -3.15717529062500 -2.38976694062500 -1.575439687500113E-002
 S -0.820534290624998 -6.43156694062500 -3.97008339687500 
 S -3.63383629062500 -5.86978894062500 -0.995819396875001 
 S -1.22587229062500 -6.87032294062500 9.714260312499889E-002
 S -0.979152290624999 -2.79616794062500 -4.33535239687500 
 S -3.91917829062500 -2.06560994062500 -1.44179439687500 
 S -1.54032729062500 -2.93540294062500 -0.148468396875001 
