16

 C -2.31708479062500 -6.48653015937500 -2.52361822187500 
 C -1.05193979062500 -6.77409015937500 -1.83481322187499 
 C -2.39987879062500 -3.27042515937500 -2.10887122187499 
 C -1.11021579062500 -3.39756315937500 -1.57426422187500 
 N -5.978579062500167E-002 -6.90537415937500 -2.69810922187499 
 N -2.25649779062500 -6.45021315937500 -3.84391622187500 
 N -2.96366279062500 -6.55163915937500 -1.664922187499496E-002
 N -0.148569790625001 -3.50384215937500 -2.48240522187500 
 N -2.49778379062500 -3.22314315937500 -3.44722722187500 
 N -2.77977079062500 -3.60849715937500 0.425063778125005 
 S -0.650776790625001 -6.70162115937500 -4.24282822187499 
 S -3.73519679062500 -6.25134015937500 -1.42023922187499 
 S -1.32567179062500 -6.82396315937500 -7.537922187499513E-002
 S -0.896695790625001 -3.37525515937500 -3.94732322187500 
 S -3.68631879062500 -3.35793915937500 -0.920167221874995 
 S -1.12284079062500 -3.65938815937500 0.202505778125005 
