16

 C -2.53711494375000 -6.47954605000001 -2.48556774062500 
 C -1.31816694375000 -6.71189405000001 -1.77233574062500 
 C -2.57196994375000 -2.56150705000001 -2.45018174062500 
 C -1.39131994375000 -3.08086605000001 -1.82438074062500 
 N -0.242102943749998 -6.75995905000001 -2.54693174062500 
 N -2.41821894375000 -6.28182805000001 -3.79758274062500 
 N -3.21377594375000 -6.67417805000001 -4.376474062499836E-002
 N -0.358770943749998 -3.20492805000001 -2.64205374062500 
 N -2.50083494375000 -2.34684505000001 -3.75573374062500 
 N -3.00452894375000 -2.61704805000001 0.130252259375002 
 S -0.778786943749998 -6.45792005000001 -4.11008574062500 
 S -3.92438794375000 -6.46401905000001 -1.53190774062500 
 S -1.63129694375000 -6.92170405000001 -2.871074062499823E-002
 S -0.957690943749999 -2.80032005000001 -4.16585974062500 
 S -3.78908394375000 -2.24850305000001 -1.31048174062500 
 S -1.48205394375000 -3.18870705000001 -0.115082740624998 
