16

 C -2.33783485937500 -6.52494837187499 -2.41937387187500 
 C -1.08211585937500 -7.05932537187500 -1.86419987187500 
 C -2.40051685937500 -2.97458937187500 -2.42177087187500 
 C -1.21312485937500 -3.33642937187500 -1.72560287187500 
 N -4.502485937499667E-002 -7.08165737187500 -2.70959987187500 
 N -2.19161885937500 -6.10721037187500 -3.67736187187500 
 N -2.81479385937500 -6.76401937187500 0.121036128125002 
 N -0.111332859374997 -3.42583237187500 -2.47463087187500 
 N -2.28778785937500 -2.89459037187500 -3.74443087187500 
 N -2.98594085937500 -3.41286537187500 4.385012812500166E-002
 S -0.691972859374997 -6.52696337187500 -4.16152487187500 
 S -3.56642785937500 -6.26869237187500 -1.24651387187500 
 S -1.26357385937500 -7.37851537187499 -8.264687187499820E-002
 S -0.682511859374997 -3.15714037187500 -4.09998287187500 
 S -3.76631185937500 -2.81682837187499 -1.29710687187500 
 S -1.30457785937500 -3.66371537187500 -6.904687187499836E-002
