16

 C -2.56851226250000 -6.45863013125000 -2.47370640937500 
 C -1.31564026250000 -6.71415913125000 -1.75240840937500 
 C -2.55185326250000 -2.53934713125000 -2.41335340937500 
 C -1.40966026250000 -3.10835713125000 -1.81918940937500 
 N -0.252678262499999 -6.76570113125000 -2.56670840937500 
 N -2.38113926250000 -6.27172913125000 -3.76127340937500 
 N -3.27003926250000 -6.67235513125000 -3.902340937500015E-002
 N -0.407628262499999 -3.18811913125000 -2.67929140937500 
 N -2.51855926250000 -2.31051613125000 -3.71228540937500 
 N -3.04573426250000 -2.61968113125000 0.135438590625000 
 S -0.794530262499999 -6.47175113125000 -4.12148840937500 
 S -3.95652126250000 -6.49303513125000 -1.51503740937500 
 S -1.62356626250000 -6.92621213125000 6.301590624999909E-003
 S -0.942137262499998 -2.78754213125000 -4.20194340937500 
 S -3.83370826250000 -2.24467913125000 -1.30148440937500 
 S -1.49696526250000 -3.18564513125000 -0.113102409375000 
