16

 C -2.25676209375000 -6.19871549687500 -2.13519944687500 
 C -1.07500509375000 -6.81730749687500 -1.52877744687500 
 C -2.40706209375000 -2.64538149687500 -2.69778444687500 
 C -1.19105009375000 -3.12001149687500 -2.02687344687500 
 N 2.360906250000738E-003 -6.96200649687500 -2.32307144687500 
 N -2.08737809375000 -5.91191749687500 -3.44176244687500 
 N -2.88194609375000 -6.68018149687500 0.313387553125001 
 N -0.191404093750000 -3.40863049687500 -2.84169844687500 
 N -2.27467309375000 -2.55756749687500 -4.02603344687500 
 N -2.94208409375000 -2.94987949687500 -0.157247446874999 
 S -0.504243093750000 -6.46008249687500 -3.80343144687500 
 S -3.63798909375000 -6.26395249687500 -1.08848044687500 
 S -1.27495609375000 -7.34750349687500 0.109431553125001 
 S -0.719389093749999 -3.04478949687500 -4.37933744687500 
 S -3.71422209375000 -2.48651749687500 -1.57250644687500 
 S -1.31933509375000 -3.21816749687500 -0.261206446874999 
