16

 C -2.45587065000000 -6.56537329062501 -2.26946749375000 
 C -1.20316165000000 -6.80453429062501 -1.63765349375000 
 C -2.39310865000000 -2.74985829062501 -2.55348149375000 
 C -1.18620065000000 -3.32162029062501 -1.93148849375000 
 N -0.137072650000001 -6.94781729062501 -2.42130849375000 
 N -2.31720865000000 -6.47176529062501 -3.58169549375000 
 N -2.96952565000000 -6.76204829062501 0.258449506250000 
 N -0.204342650000002 -3.53884729062501 -2.79817449375000 
 N -2.30761065000000 -2.54568929062501 -3.85642149375000 
 N -2.86650765000000 -2.99403029062501 -4.967649374999983E-002
 S -0.738039650000001 -6.71306429062501 -3.93494249375000 
 S -3.83731265000000 -6.72368429062501 -1.14577849375000 
 S -1.24512065000000 -6.97963429062501 0.116488506250000 
 S -0.752037650000002 -3.10194229062501 -4.30515849375000 
 S -3.68588365000000 -2.40244029062501 -1.36691749375000 
 S -1.27882165000000 -3.39419629062501 -0.175033493750000 
