16

 C -2.35060005937500 -6.32749786562501 -2.42478435937500 
 C -1.13650505937500 -6.86676386562501 -1.79302235937500 
 C -2.50822605937500 -2.59980586562501 -2.14120935937500 
 C -1.26700205937500 -2.96654586562501 -1.60116035937500 
 N -9.577305937499858E-002 -7.07358886562501 -2.59696035937500 
 N -2.23019005937500 -6.18005386562501 -3.74505735937500 
 N -2.87149405937500 -6.48880386562501 6.082564062499829E-002
 N -0.300725059374999 -3.10716886562501 -2.48906235937500 
 N -2.49263205937500 -2.35370786562501 -3.44349535937500 
 N -2.92500205937500 -2.89171086562501 0.365806640624998 
 S -0.640129059374999 -6.59744786562501 -4.10603635937500 
 S -3.74128605937500 -6.21610586562501 -1.35191535937500 
 S -1.31301405937500 -7.05370386562501 -9.769935937500174E-002
 S -0.951915059374999 -2.79387886562501 -4.00589135937500 
 S -3.80828005937500 -2.45391886562501 -1.01271835937500 
 S -1.34531105937500 -3.34822486562501 6.666064062499832E-002
