16

 C -2.44233317187500 -6.49677696562500 -2.63790519375000 
 C -1.22765217187500 -6.97019796562500 -2.04962319375000 
 C -2.28089517187500 -2.56080496562500 -2.46275319375000 
 C -1.10650717187500 -3.19956396562500 -2.00101519375000 
 N -0.233739171875002 -7.27561196562500 -2.87659019375000 
 N -2.35601417187500 -6.36654896562500 -3.94091919375000 
 N -2.92380817187500 -6.51424296562500 -3.671219375000012E-002
 N -0.176011171875002 -3.24721596562500 -2.94433819375000 
 N -2.26577417187500 -2.07733596562500 -3.69890819375000 
 N -2.68470317187500 -3.15776696562500 2.629680624999997E-002
 S -0.786536171875002 -6.81824796562500 -4.40178719375000 
 S -3.72453417187500 -6.30673696562500 -1.41986519375000 
 S -1.39781917187500 -7.24881696562500 -0.271306193750000 
 S -0.770720171875002 -2.47795696562500 -4.22384919375000 
 S -3.49881117187500 -2.52395596562500 -1.25670219375000 
 S -1.13110817187500 -3.62236796562500 -0.320035193750000 
