16

 C -2.32437002187500 -6.73433999062500 -2.60710027187500 
 C -1.08684902187500 -7.10381999062500 -1.97166127187500 
 C -2.56179202187500 -2.72800299062500 -2.53206527187500 
 C -1.28685002187500 -3.18480699062500 -1.95269727187500 
 N -8.450502187500408E-002 -7.54026999062500 -2.78511927187500 
 N -2.25007902187500 -6.95182299062500 -3.89849627187500 
 N -2.75320502187500 -6.51536199062500 -3.270927187500128E-002
 N -0.331918021875004 -3.38581199062500 -2.85589427187500 
 N -2.52695202187500 -2.52200399062500 -3.87269427187500 
 N -2.94180702187500 -2.73138599062500 -4.361271875001238E-003
 S -0.648356021875005 -7.38671199062500 -4.38038627187500 
 S -3.54756102187500 -6.21957199062500 -1.44124527187500 
 S -1.11872402187500 -6.95340499062500 -0.183844271875002 
 S -1.03818502187500 -2.91346899062500 -4.33172127187500 
 S -3.70741802187500 -2.21271499062500 -1.33432627187500 
 S -1.43484302187500 -3.39661899062500 -0.257374271875001 
