16

 C -2.58124404687500 -6.71005577499999 -2.39347208125000 
 C -1.32653704687500 -7.12539077499999 -1.71447808125000 
 C -2.50214304687500 -2.81239477499999 -2.33067308125000 
 C -1.29372104687500 -3.35977677499999 -1.77084408125000 
 N -0.244994046874998 -7.15483677499999 -2.50124408125000 
 N -2.43651304687500 -6.46900777499999 -3.70973708125000 
 N -3.07709604687500 -6.92761677499999 0.172906918750001 
 N -0.281746046874998 -3.57938777499999 -2.61272808125000 
 N -2.46126504687500 -2.68626377499999 -3.66197908125000 
 N -2.98767904687500 -3.11510877499999 0.173063918750001 
 S -0.842147046874999 -6.75624877499999 -4.04136308125000 
 S -3.92388104687500 -6.50816177499999 -1.23649508125000 
 S -1.46999104687500 -7.24783577499999 -2.099708124999866E-002
 S -0.958265046874999 -3.11644677499999 -4.15702908125000 
 S -3.75237404687500 -2.63165877499999 -1.20218108125000 
 S -1.35930904687500 -3.51814177499999 -6.253108124999862E-002
