16

 C -2.35571716875000 -6.27293075937501 -2.66821612500000 
 C -1.23172216875000 -6.86306275937501 -1.94529812500000 
 C -2.48182116875000 -2.83512475937501 -2.56559912500000 
 C -1.29886216875000 -3.02603175937501 -1.88393512500000 
 N -0.137392168750000 -6.90883575937501 -2.73178012500000 
 N -2.13184516875000 -6.00288475937501 -3.94866112500000 
 N -3.07717816875000 -6.40962275937501 -0.257907125000000 
 N -0.212152168750000 -3.13907375937501 -2.62293112500000 
 N -2.32054716875000 -2.76575775937501 -3.88405412500000 
 N -3.06177816875000 -2.94356475937501 -8.096812500000006E-002
 S -0.566233168750000 -6.35054475937501 -4.22462212500000 
 S -3.73560116875000 -5.86503575937501 -1.71163112500000 
 S -1.45747216875000 -6.82082875937501 -0.229992125000000 
 S -0.668000168750000 -2.87288875937501 -4.21151112500000 
 S -3.86499016875000 -2.65541375937501 -1.51138612500000 
 S -1.48167916875000 -3.21673575937501 -0.185245125000000 
