16

 C -2.48834095000000 -6.72342205937500 -2.37423859687500 
 C -1.30465095000000 -7.20482405937500 -1.68338559687500 
 C -2.45759495000000 -2.44279705937500 -2.43442659687500 
 C -1.29683295000000 -2.98027505937500 -1.78051859687500 
 N -0.249580949999999 -7.54928305937500 -2.45987359687500 
 N -2.33606995000000 -6.57192605937500 -3.67335759687500 
 N -3.05825795000000 -6.49963605937500 0.201672403125002 
 N -0.305917949999999 -3.25989905937500 -2.62739659687500 
 N -2.37884695000000 -2.37349105937500 -3.78569859687500 
 N -3.18482595000000 -3.05792805937500 -5.983859687499815E-002
 S -0.843126949999998 -7.19956305937500 -4.00054759687500 
 S -3.76099395000000 -6.18914705937500 -1.31933259687500 
 S -1.60201195000000 -7.23587005937500 0.113478403125002 
 S -0.815598949999999 -2.79363805937500 -4.14365159687500 
 S -3.79268895000000 -2.18531705937500 -1.34356459687500 
 S -1.52763895000000 -3.38015505937500 -6.308959687499804E-002
