16

 C -2.23169705937500 -6.35800406250000 -2.36116742500000 
 C -1.12438305937500 -6.91664806250000 -1.66035842500000 
 C -2.62869505937500 -2.74242606250000 -2.58899442500000 
 C -1.37869705937500 -3.01788406250000 -1.92644342500000 
 N -0.159185059375003 -7.22625406250000 -2.55618542500000 
 N -2.21007605937500 -6.26677006250000 -3.69348442500000 
 N -2.79385505937500 -6.15922106250000 0.108455574999997 
 N -0.356361059375003 -3.08688406250000 -2.74147942500000 
 N -2.51159005937500 -2.64058106250000 -3.89332142500000 
 N -3.11300905937500 -2.86514406250000 -0.108913425000003 
 S -0.679903059375003 -6.78097306250000 -4.06161742500000 
 S -3.59709305937500 -6.05299506250000 -1.34939342500000 
 S -1.25996005937500 -6.92465706250000 2.936857499999723E-002
 S -0.923965059375003 -2.96214906250000 -4.29167042500000 
 S -3.90231505937500 -2.43646106250000 -1.51579042500000 
 S -1.52668205937500 -3.16138606250000 -0.226765425000003 
