16

 C -2.45631264062500 -6.34582697812500 -2.45640547187500 
 C -1.25154164062500 -6.80912497812500 -1.82411647187500 
 C -2.51218864062500 -2.60068697812500 -2.19360847187500 
 C -1.30371464062500 -3.24711697812500 -1.62910047187500 
 N -0.277654640625001 -7.10797297812500 -2.65523847187500 
 N -2.34534864062500 -6.23281597812500 -3.75949547187500 
 N -3.10850364062500 -6.74666297812500 -7.041347187500069E-002
 N -0.289861640625001 -3.39536697812500 -2.49921247187500 
 N -2.41625364062500 -2.35162397812500 -3.50662347187500 
 N -2.97021964062500 -2.88102097812500 0.366988528124999 
 S -0.828311640625000 -6.67942097812500 -4.16831047187500 
 S -3.76665564062500 -5.91642697812500 -1.36552147187500 
 S -1.48397064062500 -7.17671197812500 -0.170227471875001 
 S -0.921770640625001 -2.85980497812500 -3.93977247187500 
 S -3.74911664062500 -2.27472697812500 -0.971076471875001 
 S -1.36521564062500 -3.40788997812500 0.111176528124999 
