16

 C -2.12338147187500 -6.47568701562500 -2.29827430625000 
 C -0.874730471874999 -6.91028701562499 -1.71798830625000 
 C -2.59896147187500 -2.53147201562500 -2.42200130625000 
 C -1.35359647187500 -2.99412101562500 -1.79927830625000 
 N 0.142689528125000 -7.20116101562500 -2.56020630625000 
 N -2.02218547187500 -6.32492701562500 -3.61492630625000 
 N -2.65679447187500 -6.77891501562500 0.182882693750002 
 N -0.378730471875000 -3.15891801562500 -2.66731330625000 
 N -2.55796347187500 -2.44532201562500 -3.73150130625000 
 N -3.08575247187500 -2.69919201562500 8.416369375000166E-002
 S -0.506735471874999 -6.88057701562500 -4.09216430625000 
 S -3.44663147187500 -6.33095301562500 -1.21161930625000 
 S -1.05767347187500 -7.18841401562500 2.758369375000180E-002
 S -0.926210471875000 -2.76679301562500 -4.17544530625000 
 S -3.93562047187500 -2.35992301562500 -1.31864830625000 
 S -1.47865947187500 -3.00752701562500 -0.122350306249998 
