16

 C -2.48338677500000 -6.45866942500000 -2.50952715937500 
 C -1.30951977500000 -6.91316342500000 -1.84055915937500 
 C -2.67887877500000 -2.91401942500000 -2.48207615937500 
 C -1.46904677500000 -3.40041442500000 -1.86183015937500 
 N -0.262511775000002 -7.00618042500000 -2.64272815937500 
 N -2.33366477500000 -6.28155642500000 -3.82979015937500 
 N -3.13426777500000 -6.72037542500000 1.690984062500012E-002
 N -0.475507775000002 -3.63946442500000 -2.72595215937500 
 N -2.55094177500000 -2.61639342500000 -3.77196715937500 
 N -3.27226577500000 -3.25730542500000 8.578406250001613E-004
 S -0.729200775000002 -6.65740342500000 -4.22729115937500 
 S -3.89224777500000 -6.13361342500000 -1.34839015937500 
 S -1.52863377500000 -6.97737742500000 -7.788415937499993E-002
 S -1.01790477500000 -3.11086542500000 -4.18818715937500 
 S -4.03492677500000 -2.90886742500000 -1.45572115937500 
 S -1.72323077500000 -3.72540242500000 -0.175313159375000 
