16

 C -2.52128034062501 -6.27486793125001 -2.50642148750000 
 C -1.42409634062501 -7.07882493125001 -2.01226348750000 
 C -2.57083934062501 -2.52784693125001 -2.33740448750000 
 C -1.41666934062501 -3.21482293125001 -1.79203048750000 
 N -0.507480340625007 -7.23006693125001 -2.97365448750000 
 N -2.45322034062501 -5.82601193125001 -3.76843748750000 
 N -3.14305334062501 -7.00397993125001 -8.969048749999797E-002
 N -0.394377340625007 -3.46134193125001 -2.62569248750000 
 N -2.43234734062501 -2.37801093125001 -3.65382948750000 
 N -3.16858034062501 -3.02193593125001 0.106098512500002 
 S -1.09130034062501 -6.52355093125001 -4.33730448750000 
 S -3.73431734062501 -6.00090293125001 -1.23010248750000 
 S -1.60150334062501 -7.62671893125001 -0.391296487499998 
 S -0.861660340625007 -2.83758593125001 -4.06134648750000 
 S -3.90614834062501 -2.32400993125001 -1.21461248750000 
 S -1.54963134062501 -3.43444793125001 -6.069948749999798E-002
