16

 C -2.18330594687500 -6.85411215625000 -2.51022746562500 
 C -0.981299946874999 -7.30257215625000 -1.85101846562500 
 C -2.54990694687500 -2.61477915625000 -2.55489046562500 
 C -1.34106494687500 -3.09916815625000 -1.91479446562500 
 N -3.053894687499881E-002 -7.71624815625000 -2.64677446562500 
 N -2.14038394687500 -6.91000415625000 -3.85772546562500 
 N -2.74478994687500 -6.61243915625000 -3.139546562500084E-002
 N -0.383064946874999 -3.49488815625000 -2.76659446562500 
 N -2.44618594687500 -2.55597715625000 -3.86024046562500 
 N -3.06869394687500 -2.71561215625000 1.569553437499915E-002
 S -0.617525946874999 -7.44318915625000 -4.21234946562500 
 S -3.49949094687500 -6.31463215625000 -1.54609746562500 
 S -1.19933394687500 -7.31525015625000 -6.647846562500082E-002
 S -0.877706946874999 -3.05487515625000 -4.28590646562500 
 S -3.85890594687500 -2.38951915625000 -1.41606346562500 
 S -1.51778094687500 -3.14869715625000 -0.214147465625001 
