16

 C -2.19769015312500 -6.34291973437500 -2.34765415312500 
 C -1.02975415312500 -6.88425173437500 -1.73612715312500 
 C -2.86278315312500 -2.55347873437500 -2.52502415312500 
 C -1.61731215312500 -2.90622473437500 -1.94618915312500 
 N -5.532153124997663E-003 -7.00062073437500 -2.56719115312500 
 N -2.04920515312500 -6.11736173437500 -3.63765115312500 
 N -2.76201215312500 -6.68718773437500 0.118763846874999 
 N -0.578744153124998 -2.86145273437500 -2.74336215312500 
 N -2.78252115312500 -2.31456173437500 -3.80631015312500 
 N -3.34704715312500 -2.81785373437500 -4.529915312500110E-002
 S -0.477693153124998 -6.50583573437500 -4.05240415312500 
 S -3.51614015312500 -6.16234373437500 -1.30517815312500 
 S -1.18149415312500 -7.09939373437500 -7.106153125000958E-003
 S -1.16838415312500 -2.52206373437500 -4.20015315312500 
 S -4.16213615312500 -2.45081673437500 -1.41779015312500 
 S -1.73671015312500 -3.14847673437500 -0.240614153125001 
