16

 C -2.60956491250000 -6.43671299687500 -2.35770825625000 
 C -1.40662791250000 -6.98044199687500 -1.73469825625000 
 C -2.37825191250000 -2.95637699687500 -2.42437625625000 
 C -1.19192491250000 -3.30098399687500 -1.80362325625000 
 N -0.347559912500000 -7.08235499687500 -2.55257025625000 
 N -2.50246791250000 -6.27949499687500 -3.66595825625000 
 N -3.10904091250000 -6.51392699687500 0.178259743750000 
 N -0.227677912500000 -3.56006699687500 -2.66906525625000 
 N -2.32881691250000 -2.82254199687500 -3.74387225625000 
 N -2.83113491250000 -2.93217899687500 0.162738743750000 
 S -0.946180912500000 -6.68721799687500 -4.07167525625000 
 S -3.88700191250000 -6.08350499687500 -1.25852125625000 
 S -1.57269891250000 -7.17037799687500 6.504774375000011E-002
 S -0.733172912500001 -3.09597099687500 -4.15676925625000 
 S -3.60742691250000 -2.56235699687500 -1.27647925625000 
 S -1.21632991250000 -3.37827499687500 -5.154625624999998E-002
