16

 C -2.54800550000000 -6.41722569062500 -2.37974260937500 
 C -1.29299350000000 -6.66656669062500 -1.72638060937500 
 C -2.50147050000000 -2.33196269062500 -2.85518160937500 
 C -1.34910350000000 -2.86222469062500 -2.17811860937500 
 N -0.252432500000002 -6.70828169062500 -2.55194560937500 
 N -2.40693450000000 -6.19310269062500 -3.68452260937500 
 N -3.02402150000000 -6.54714669062500 0.157992390625000 
 N -0.242125500000002 -3.09099169062500 -2.89685260937500 
 N -2.18948750000000 -2.11992869062500 -4.13152760937500 
 N -3.27993050000000 -2.73449369062500 -0.433904609374999 
 S -0.809445500000002 -6.42081169062500 -4.07765460937500 
 S -3.87558950000000 -6.52703569062500 -1.30868260937500 
 S -1.40600750000000 -6.87727469062500 -6.274760937499946E-002
 S -0.626320500000002 -2.49494869062500 -4.38295960937500 
 S -3.99905850000000 -2.12550069062500 -1.88937160937500 
 S -1.67210550000000 -3.17496969062500 -0.456881609374999 
