16

 C -2.51397197812500 -6.25169004062500 -2.49922910937500 
 C -1.30056697812500 -6.77194804062500 -1.82963010937500 
 C -2.41094497812500 -3.02573104062500 -2.56379510937500 
 C -1.19823197812500 -3.36496704062500 -1.90043910937500 
 N -0.313145978124997 -6.94776904062500 -2.71071910937500 
 N -2.41928797812500 -5.96175404062500 -3.83149310937500 
 N -2.97454797812500 -6.25724604062500 0.127021890625001 
 N -6.108997812499783E-002 -3.47214104062500 -2.61584710937500 
 N -2.22055897812500 -2.89787604062500 -3.89064710937500 
 N -2.96175197812500 -2.94784904062500 -3.996910937499898E-002
 S -0.877008978124998 -6.51450404062500 -4.21491610937500 
 S -3.73971797812500 -5.93785504062500 -1.32480710937500 
 S -1.38203397812500 -6.69999804062500 -9.627810937499892E-002
 S -0.643360978124997 -3.23325404062500 -4.13947610937500 
 S -3.72912297812500 -2.91655904062500 -1.48541910937500 
 S -1.33235197812500 -3.36162604062500 -0.194533109374999 
