16

 C -2.34058058750000 -7.01029414062500 -2.42589552812500 
 C -1.20500058750000 -7.44369914062500 -1.68677152812500 
 C -2.78861858750000 -2.88244014062500 -2.36576152812500 
 C -1.67687558750000 -3.60688114062500 -1.77342952812500 
 N -0.112325587500004 -7.49390814062500 -2.43018652812500 
 N -2.15765858750000 -6.82209214062500 -3.72955152812500 
 N -2.98933458750000 -6.75735514062500 3.496047187499984E-002
 N -0.709722587500003 -3.92508314062500 -2.64919052812500 
 N -2.64914758750000 -2.57078714062500 -3.66608052812500 
 N -3.28727158750000 -3.07443714062500 0.164572471875000 
 S -0.527127587500003 -7.07493514062500 -3.97305952812500 
 S -3.64453758750000 -6.49237614062500 -1.44049652812500 
 S -1.40049958750000 -7.45168814062500 7.293747187499977E-002
 S -1.27662858750000 -3.42032114062500 -4.18906752812500 
 S -4.05324758750000 -2.40218914062500 -1.20048052812500 
 S -1.78427358750000 -3.81347314062500 2.750471874999771E-003
