16

 C -2.58259235937500 -6.50516807812499 -2.33399038750000 
 C -1.32998135937500 -6.93225707812499 -1.74536538750000 
 C -2.56185035937500 -3.13832207812499 -2.46089238750000 
 C -1.27328435937500 -3.40823007812499 -1.83883938750000 
 N -0.318985359375002 -7.01669207812499 -2.60626538750000 
 N -2.44381335937500 -6.18382007812499 -3.62373838750000 
 N -3.06289135937500 -6.78047407812499 0.154721612500002 
 N -0.266121359375003 -3.43712707812499 -2.65918538750000 
 N -2.49671935937500 -2.87072307812499 -3.77177638750000 
 N -2.97001535937500 -3.29604107812499 0.108720612500002 
 S -0.873309359375003 -6.60156807812499 -4.07003738750000 
 S -3.81523535937500 -6.26275707812499 -1.20607938750000 
 S -1.42156335937500 -7.05409807812499 2.756125000020759E-004
 S -0.868844359375003 -3.03042507812499 -4.13726438750000 
 S -3.90547835937500 -3.05367707812499 -1.26680638750000 
 S -1.40586035937500 -3.75824907812499 -0.105312387499998 
