16

 C -2.58011266875000 -6.64608432187500 -2.46568016875000 
 C -1.33464966875000 -6.95594932187500 -1.82464716875000 
 C -2.27700966875000 -3.16606032187500 -2.25635916875000 
 C -1.01237866875000 -3.62082932187500 -1.55364716875000 
 N -0.339909668750000 -7.16624532187500 -2.66104916875000 
 N -2.60350966875000 -6.61729632187500 -3.78901116875000 
 N -3.03241366875000 -6.71151832187500 4.169383125000037E-002
 N 5.585833125000050E-002 -3.68926632187500 -2.34372216875000 
 N -2.11027766875000 -2.88732232187500 -3.55848016875000 
 N -2.90639266875000 -3.37430632187500 0.260171831250000 
 S -1.01436566875000 -6.92472532187500 -4.16082716875000 
 S -3.88068566875000 -6.47526232187500 -1.36335216875000 
 S -1.44875566875000 -6.97232832187500 -8.460016874999976E-002
 S -0.528896668750000 -3.29523732187500 -3.85501716875000 
 S -3.66266766875000 -2.94005032187500 -1.18992116875000 
 S -1.32180566875000 -3.86071132187500 0.149407831250000 
