16

 C -2.26433441875000 -6.56518638437500 -2.28968110937500 
 C -0.918158418750000 -6.91258038437500 -1.83070310937500 
 C -2.54760441875000 -2.78053138437500 -2.36528110937500 
 C -1.28064941875000 -3.24848338437500 -1.72822110937500 
 N 2.215812499999359E-004 -6.94882038437500 -2.77780110937500 
 N -2.33242641875000 -6.45919538437500 -3.61108610937500 
 N -2.39370241875000 -6.94104038437500 0.294944890625000 
 N -0.283949418750000 -3.50895338437500 -2.60263510937500 
 N -2.45042941875000 -2.65626538437500 -3.70352510937500 
 N -3.08569541875000 -2.95519438437500 0.176856890625000 
 S -0.806194418750001 -6.69923638437500 -4.19162910937500 
 S -3.40753141875000 -6.63908438437500 -0.968195109375001 
 S -0.819892418750000 -7.27202038437500 -0.111662109375000 
 S -0.940029418750000 -3.07619138437500 -4.09838910937500 
 S -3.83809941875000 -2.45115938437500 -1.23401110937500 
 S -1.49257941875000 -3.53155338437500 -3.822109375000382E-003
