16

 C -2.66698976875001 -6.30422995000000 -2.71048683437500 
 C -1.45369776875001 -6.69380495000000 -2.05449383437500 
 C -2.46291576875001 -2.87923295000000 -2.46115583437500 
 C -1.16216576875001 -3.14707695000000 -1.87610083437500 
 N -0.420045768750006 -6.70784795000000 -2.90136783437500 
 N -2.60535776875001 -6.09483095000000 -4.05704283437500 
 N -3.34644276875001 -6.94301195000000 -0.260759834374999 
 N -0.127680768750006 -3.25726895000000 -2.73674283437500 
 N -2.40757376875001 -2.67512595000000 -3.79261583437500 
 N -2.82068576875001 -2.98110895000000 7.249716562500064E-002
 S -0.967805768750005 -6.26647495000000 -4.39667983437500 
 S -4.03811176875001 -6.23520095000000 -1.58327083437500 
 S -1.67827476875001 -6.96148995000000 -0.332093834374999 
 S -0.827462768750006 -3.00594095000000 -4.19989283437500 
 S -3.72513776875001 -2.66019395000000 -1.25167383437500 
 S -1.20147276875001 -3.18862995000000 -9.899183437499937E-002
