16

 C -2.34781964062500 -6.53438125312500 -2.19597676875000 
 C -1.15279364062500 -6.98304725312500 -1.54022176875000 
 C -2.43127164062500 -2.70290225312500 -2.51192276875000 
 C -1.14954664062500 -3.05560625312500 -1.89180976875000 
 N -0.116839640625004 -7.02660925312500 -2.37381676875000 
 N -2.18975764062500 -6.21622525312500 -3.49665676875000 
 N -2.96071364062500 -7.10062025312500 0.275407231250002 
 N -0.120782640625004 -3.11589525312500 -2.73280376875000 
 N -2.33444164062500 -2.50741525312500 -3.83007576875000 
 N -2.87156264062500 -3.01975925312500 3.530923125000207E-002
 S -0.621749640625004 -6.49878925312500 -3.83229876875000 
 S -3.75613464062500 -6.65232825312500 -1.12017176875000 
 S -1.33459864062500 -7.35017325312500 0.144471231250002 
 S -0.808242640625005 -2.85438725312500 -4.23740376875000 
 S -3.68061164062500 -2.37029525312500 -1.31523376875000 
 S -1.22693864062500 -3.25037125312500 -9.874776874999780E-002
