16

 C -2.57143906562500 -6.34295717500000 -2.28337470000000 
 C -1.32892106562500 -6.82739217500000 -1.70186070000000 
 C -2.54898206562500 -3.07576817500000 -2.35508170000000 
 C -1.27393006562500 -3.35257317500000 -1.72295170000000 
 N -0.324910065625000 -7.05263517500000 -2.55777670000000 
 N -2.41572206562500 -6.14033217500000 -3.59047070000000 
 N -3.11605206562500 -6.57109617500000 0.304086300000002 
 N -0.263514065624999 -3.43765017500000 -2.59004370000000 
 N -2.50971606562500 -3.08462317500000 -3.67243870000000 
 N -3.05126506562500 -3.12952117500000 0.136110300000002 
 S -0.911897065624999 -6.66072117500000 -4.06941670000000 
 S -3.89176106562500 -6.12408617500000 -1.10914670000000 
 S -1.49220306562500 -7.10452817500000 0.130213300000002 
 S -0.850063065624999 -3.14611717500000 -4.11067970000000 
 S -3.94694506562500 -2.94128717500000 -1.29718370000000 
 S -1.42346606562500 -3.44406317500000 -1.786069999999818E-002
