16

 C -2.27626900000000 -6.45139560000001 -2.48930118437500 
 C -1.04226200000000 -6.90917460000001 -1.91796018437500 
 C -2.51503000000000 -2.53990260000001 -2.50247018437500 
 C -1.28297800000000 -3.14262760000001 -1.92555318437500 
 N -0.173992999999999 -7.32002560000001 -2.81244918437500 
 N -2.28660800000000 -6.52567460000001 -3.83749218437500 
 N -2.58711400000000 -6.38568660000001 7.679181562499848E-002
 N -0.338546999999999 -3.44296460000001 -2.79364318437500 
 N -2.38390300000000 -2.28026860000001 -3.81534518437500 
 N -2.96637800000000 -3.03129860000001 -5.929018437500155E-002
 S -0.861917999999999 -7.19246260000001 -4.32537418437500 
 S -3.56252200000000 -6.30326860000001 -1.31811518437500 
 S -1.04961000000000 -6.89061860000001 -0.146932184375002 
 S -0.997547999999999 -3.07481460000001 -4.26610418437500 
 S -3.74489200000000 -2.26317860000001 -1.32294118437500 
 S -1.37929400000000 -3.45286660000001 -0.238291184375001 
