16

 C -2.51168822500001 -6.22883750937500 -2.54062941562500 
 C -1.42246822500001 -6.91396850937500 -1.86326641562500 
 C -2.61715922500001 -2.57136350937500 -2.44949741562500 
 C -1.47856122500001 -3.05243450937500 -1.70308941562500 
 N -0.343291225000008 -7.14595650937500 -2.60140041562500 
 N -2.20375422500001 -5.84852150937500 -3.79096441562500 
 N -3.17878222500001 -6.70444650937500 -3.941941562499851E-002
 N -0.339010225000008 -3.29679450937500 -2.42025241562500 
 N -2.37074622500001 -2.42200350937500 -3.73032741562500 
 N -3.42656422500001 -2.79625250937500 -3.584841562499852E-002
 S -0.737087225000008 -6.55216250937500 -4.08706841562500 
 S -3.84086722500001 -5.92435350937500 -1.38541041562500 
 S -1.63693422500001 -7.25292150937500 -0.159482415624999 
 S -0.843156225000008 -2.84717650937500 -4.04843241562500 
 S -3.92402322500001 -2.13590650937500 -1.43554541562500 
 S -1.82046322500001 -3.26940650937500 -9.612415624998594E-003
