16

 C -2.40295585937500 -6.35535455000000 -2.49065048750000 
 C -1.25427185937500 -6.89486955000001 -1.82028148750000 
 C -2.55343285937500 -2.55846355000001 -2.13349448750000 
 C -1.26879685937500 -3.01892455000000 -1.57713248750000 
 N -0.208417859375004 -7.02103155000001 -2.61244748750000 
 N -2.35818385937500 -6.24356155000001 -3.81535748750000 
 N -3.06271785937500 -6.71183955000000 -4.799487499999699E-003
 N -0.313419859375004 -3.24146555000001 -2.46681648750000 
 N -2.47199085937500 -2.41637555000001 -3.44650848750000 
 N -2.92536885937500 -2.95162855000001 0.351011512500000 
 S -0.756422859375004 -6.66265555000001 -4.14856748750000 
 S -3.69471485937500 -5.99049855000001 -1.38458448750000 
 S -1.46993585937500 -7.10798555000001 -0.108843487500000 
 S -0.920186859375003 -2.83979655000001 -3.96087148750000 
 S -3.72606085937500 -2.28759755000001 -0.968128487500000 
 S -1.35989885937500 -3.38275855000001 8.257751250000034E-002
