16

 C -2.29888250937500 -6.32823420312500 -2.48242677500000 
 C -1.08521950937500 -6.66226520312500 -1.85023477500000 
 C -2.55542250937500 -2.49538220312500 -2.68063277500000 
 C -1.47396050937500 -3.18501320312500 -1.94122877500000 
 N -2.291150937500497E-002 -6.87170820312500 -2.64067377500000 
 N -2.20050750937500 -6.26370420312500 -3.82104977500000 
 N -2.97382950937500 -6.62731820312500 -8.277577500000155E-002
 N -0.314533509375004 -3.25118120312500 -2.63155277500000 
 N -2.15257350937500 -2.11582220312500 -3.89345777500000 
 N -3.43536550937500 -2.69650720312500 -0.327482775000002 
 S -0.627941509375004 -6.62493120312500 -4.15910777500000 
 S -3.67714550937500 -6.38189820312500 -1.53939377500000 
 S -1.31604750937500 -6.74025920312500 -0.103494775000001 
 S -0.595987509375004 -2.59337120312500 -4.12210377500000 
 S -4.03611450937500 -2.04763120312500 -1.76615177500000 
 S -1.91963350937500 -3.39683120312500 -0.258151775000002 
