16

 C -2.22471407187501 -6.61051582812500 -2.20184580000000 
 C -0.966548071875011 -7.08158482812500 -1.63477180000000 
 C -2.48960507187501 -2.64552682812500 -2.25575380000000 
 C -1.26854907187501 -3.33660082812500 -1.73320780000000 
 N 1.348092812498880E-002 -7.20660582812500 -2.53223180000000 
 N -2.23705607187501 -6.33054982812500 -3.51617480000000 
 N -2.63219307187501 -6.96790982812500 0.342921199999999 
 N -0.320713071875011 -3.53167382812500 -2.63039480000000 
 N -2.35558807187501 -2.38782282812500 -3.53409480000000 
 N -2.97263707187501 -3.19826182812500 0.212882199999999 
 S -0.638270071875011 -6.65697982812500 -4.00997580000000 
 S -3.46082207187501 -6.42090582812500 -0.985477800000001 
 S -1.04246307187501 -7.23179282812500 6.386419999999893E-002
 S -0.836459071875011 -2.95135982812500 -4.09208880000000 
 S -3.73543607187501 -2.49440182812500 -1.12596680000000 
 S -1.37013007187501 -3.53282282812500 -2.897780000000094E-002
