16

 C -2.38625656875000 -6.82330266250000 -2.19276606875000 
 C -1.12050456875000 -7.18765866250000 -1.62102806875000 
 C -2.51232756875000 -2.79603066250000 -2.44957206875000 
 C -1.23793156875000 -3.19438066250000 -1.83639806875000 
 N -9.676356875000103E-002 -7.24742266250000 -2.46472906875000 
 N -2.31660956875000 -6.59297366250000 -3.50305306875000 
 N -2.81571256875000 -6.96422066250000 0.334856931249999 
 N -0.200539568750001 -3.30317866250000 -2.64543506875000 
 N -2.46852356875000 -2.66530966250000 -3.78200906875000 
 N -2.91127856875000 -2.94032166250000 0.142112931249999 
 S -0.787039568750001 -6.86587666250000 -3.96461706875000 
 S -3.78161556875000 -6.65213066250000 -1.01654806875000 
 S -1.23849156875000 -7.36411766250000 0.159245931249999 
 S -0.862962568750001 -2.99338966250000 -4.19740206875000 
 S -3.79436256875000 -2.57791466250000 -1.24963906875000 
 S -1.31784056875000 -3.32301866250000 -3.003806875000148E-002
