16

 C -2.49863936874999 -6.65279936875000 -2.31173660625000 
 C -1.22552136874999 -6.99745436875000 -1.68384760625000 
 C -2.52687236874999 -2.86544436875000 -2.36065460625000 
 C -1.28438836874999 -3.25307036875000 -1.71832060625000 
 N -0.247469368749995 -7.04882736875000 -2.59694560625000 
 N -2.43110436875000 -6.42042836875000 -3.61614560625000 
 N -3.03892936875000 -6.95060636875000 0.153537393750000 
 N -0.297876368749995 -3.42852336875000 -2.63118360625000 
 N -2.46667336875000 -2.69596236875000 -3.70090060625000 
 N -2.97594836874999 -2.98529136875000 0.150276393750000 
 S -0.854159368749995 -6.69676636875000 -4.08293460625000 
 S -3.81909036875000 -6.49450836875000 -1.24331260625000 
 S -1.41778336874999 -7.21428136875000 1.348139375000024E-002
 S -0.882426368749995 -3.12403036875000 -4.06390160625000 
 S -3.84298836875000 -2.53544236875000 -1.23798460625000 
 S -1.42780436875000 -3.53289036875000 2.383393750000184E-003
