16

 C -2.42603937500001 -6.72237228125000 -2.34263517812500 
 C -1.27420937500001 -7.17598328125000 -1.64368917812500 
 C -2.45097037500001 -2.45688428125000 -2.42121017812500 
 C -1.30190537500001 -2.98296628125000 -1.79693717812500 
 N -0.271570375000007 -7.51195728125000 -2.45161617812500 
 N -2.34118637500001 -6.55771828125000 -3.66930217812500 
 N -3.06927037500001 -6.47726428125000 0.220856821874999 
 N -0.295411375000007 -3.22702028125000 -2.62158517812500 
 N -2.36274237500001 -2.40265028125000 -3.73887717812500 
 N -3.17646437500001 -3.03897228125000 -6.906517812500068E-002
 S -0.853054375000006 -7.22560928125000 -4.01192617812500 
 S -3.74786837500001 -6.20973928125000 -1.31512817812500 
 S -1.60880537500001 -7.24520228125000 0.101077821874999 
 S -0.792325375000006 -2.75342328125000 -4.14122117812500 
 S -3.77587137500001 -2.18439528125000 -1.35087917812500 
 S -1.52266737500001 -3.37443928125000 -9.650117812500070E-002
