16

 C -2.26561922500000 -6.34960402500000 -2.45145414687500 
 C -1.09240622500000 -6.83392402500000 -1.73700414687500 
 C -2.82370822500000 -2.57212902500000 -2.51317114687500 
 C -1.55862022500000 -2.80887602500000 -1.87063414687500 
 N 2.004977500000305E-002 -7.02504102500000 -2.48017714687500 
 N -2.00657322500000 -6.14060302500000 -3.75338614687500 
 N -2.91784922500000 -6.54970602500000 7.178685312500099E-002
 N -0.515363224999997 -2.91606402500000 -2.68270014687500 
 N -2.67686422500000 -2.31691602500000 -3.78328714687500 
 N -3.34713222500000 -2.88430402500000 -2.883314687499894E-002
 S -0.436970224999997 -6.56215402500000 -4.02269714687500 
 S -3.65987722500000 -6.16843802500000 -1.37257814687500 
 S -1.35509122500000 -7.07483902500000 -5.053714687499911E-002
 S -1.10984222500000 -2.46882102500000 -4.27101514687500 
 S -4.16417722500000 -2.47857702500000 -1.39596514687500 
 S -1.68071522500000 -2.98461202500000 -0.123962146874999 
