16

 C -2.61803015000000 -6.47288105312500 -2.25309940000000 
 C -1.37820515000000 -6.96939005312500 -1.62724940000000 
 C -2.42624515000000 -2.86649905312500 -2.20649340000000 
 C -1.16587215000000 -3.18312405312500 -1.57045040000000 
 N -0.349803150000004 -7.05128305312500 -2.47833440000000 
 N -2.49413615000000 -6.24019905312500 -3.56443140000000 
 N -3.15393915000000 -6.65376905312500 0.286423600000000 
 N -0.181535150000004 -3.54474805312500 -2.40368040000000 
 N -2.35858515000000 -2.85229605312500 -3.52849440000000 
 N -2.89438215000000 -2.97381705312500 0.312620600000000 
 S -0.884073150000003 -6.58412805312500 -4.00426840000000 
 S -3.88654315000000 -6.29131805312500 -1.09468240000000 
 S -1.53679315000000 -7.09667705312500 0.161765600000000 
 S -0.810875150000004 -3.20716905312500 -3.94563940000000 
 S -3.82683915000000 -2.72957305312500 -1.04679940000000 
 S -1.25393715000000 -3.37892405312500 0.132167600000000 
