16

 C -2.45769850937500 -6.54031009062500 -2.37104463125000 
 C -1.23070050937500 -6.99989909062500 -1.75966163125000 
 C -2.19495750937500 -2.57674509062500 -2.15731163125000 
 C -1.09276950937500 -3.33841609062500 -1.66901863125000 
 N -0.144447509375000 -7.11562409062500 -2.54187563125000 
 N -2.23243450937500 -6.30398409062500 -3.68767563125000 
 N -3.00313250937500 -6.60858209062500 0.107906368749999 
 N -8.263350937500036E-002 -3.48300509062500 -2.54008263125000 
 N -1.94861750937500 -1.90637109062500 -3.28233663125000 
 N -2.84252450937500 -3.25646909062500 0.230103368749999 
 S -0.667453509375001 -6.70395009062500 -4.04384463125000 
 S -3.77695850937500 -6.34977909062500 -1.29560763125000 
 S -1.35549050937500 -7.05795409062500 4.744368749999062E-003
 S -0.564316509375001 -2.53200109062500 -3.90703763125000 
 S -3.56670850937500 -2.57729509062500 -1.05243763125000 
 S -1.27501250937500 -3.72013809062500 -9.809631250000894E-003
