16

 C -2.70960752812500 -6.66238682812500 -2.24604697187500 
 C -1.47271352812500 -7.01625382812500 -1.56885297187500 
 C -2.29911252812500 -2.60493882812500 -2.44044897187500 
 C -1.11035852812500 -3.24040682812500 -1.75090897187500 
 N -0.356848528125000 -6.93304182812500 -2.28608097187500 
 N -2.50023152812500 -6.39300482812500 -3.53172697187500 
 N -3.22159352812500 -6.92566982812500 0.264265028124999 
 N -0.127424528125000 -3.43627882812500 -2.61202797187500 
 N -2.14230552812500 -2.38115282812500 -3.73358597187500 
 N -2.98470052812500 -2.96791482812500 2.979202812499948E-002
 S -0.837108528125000 -6.53830782812500 -3.81943397187500 
 S -4.01078152812500 -6.64110982812500 -1.17948497187500 
 S -1.60067652812500 -7.21855682812500 0.143593028125000 
 S -0.573433528125000 -2.84516682812500 -4.11944897187500 
 S -3.61061752812500 -2.25777582812500 -1.39062897187500 
 S -1.46179352812500 -3.63355982812500 -0.100922971875001 
