16

 C -2.48742426875000 -6.36984102500000 -2.55820347500000 
 C -1.31182826875000 -6.68341602500000 -1.85295447500000 
 C -2.43811426875000 -2.86249602500000 -2.57338647500000 
 C -1.19631726875000 -3.07007302500000 -1.87496347500000 
 N -0.231865268750004 -6.77302902500000 -2.59660447500000 
 N -2.37033726875000 -6.19960202500000 -3.86967947500000 
 N -3.03940426875000 -6.52354402500000 -6.699347500000186E-002
 N -0.118670268750003 -3.30275002500000 -2.62212647500000 
 N -2.35736826875000 -2.93196102500000 -3.90305147500000 
 N -2.98062726875000 -2.71401202500000 -3.885947500000175E-002
 S -0.732143268750003 -6.48433502500000 -4.14927647500000 
 S -3.83426826875000 -6.17033502500000 -1.51279947500000 
 S -1.42721626875000 -6.76221102500000 -0.145825475000002 
 S -0.722984268750004 -3.16260202500000 -4.21407347500000 
 S -3.71088726875000 -2.56571902500000 -1.46466447500000 
 S -1.37188526875000 -3.14854802500000 -0.114860475000002 
