16

 C -2.32395914062499 -6.51836670312500 -2.55071663750000 
 C -1.10082414062500 -6.88805670312500 -1.84049863750000 
 C -2.52919214062500 -2.51622570312500 -2.62623763750000 
 C -1.45040614062500 -3.02253570312500 -1.85487763750000 
 N -6.380814062499596E-002 -6.97244070312500 -2.66879763750000 
 N -2.16422514062500 -6.29221170312500 -3.87575863750000 
 N -2.90722314062500 -6.47121770312500 -2.240863749999988E-002
 N -0.340300140624995 -3.25054570312500 -2.49957263750000 
 N -2.23468614062500 -2.34073670312500 -3.90285163750000 
 N -3.39119714062500 -2.88245470312500 -0.204326637500000 
 S -0.515400140624995 -6.50523770312500 -4.17527063750000 
 S -3.70204714062500 -6.26293070312500 -1.42503563750000 
 S -1.26881614062500 -6.91282570312500 -0.120514637500000 
 S -0.677986140624995 -2.90507070312500 -4.06630663750000 
 S -3.98134314062500 -2.44207870312500 -1.66590463750000 
 S -1.77656814062500 -3.18113670312500 -0.112569637500000 
