16

 C -2.31206107187500 -6.64040287812499 -2.49629025312500 
 C -1.13005307187500 -7.11698187812499 -1.84021525312500 
 C -2.39254407187500 -2.92568487812499 -2.52475425312500 
 C -1.19948307187500 -3.48989987812499 -1.81104325312500 
 N -6.162907187499744E-002 -7.13487387812499 -2.64550925312500 
 N -2.15318007187500 -6.30346187812499 -3.79133125312500 
 N -2.99708707187500 -6.89214387812499 -3.693525312499824E-002
 N -0.116599071874997 -3.58284187812499 -2.59531525312500 
 N -2.21317207187500 -2.82655987812499 -3.82622925312500 
 N -3.07072707187500 -3.20864287812499 -6.906325312499839E-002
 S -0.588468071874997 -6.61888687812499 -4.13331525312500 
 S -3.69502307187500 -6.51242187812499 -1.46590325312500 
 S -1.38478907187500 -7.38837187812499 -6.797125312499852E-002
 S -0.646637071874998 -3.20146187812499 -4.21763625312500 
 S -3.73968307187500 -2.62322587812499 -1.43846025312500 
 S -1.45949207187500 -3.74384587812499 -0.112791253124999 
