16

 C -2.61688112812500 -6.67018748437500 -2.36692125312500 
 C -1.40011812812500 -7.07191448437500 -1.70684025312500 
 C -2.52028212812500 -2.89577748437500 -2.34357125312500 
 C -1.26364012812500 -3.40016148437500 -1.84229525312500 
 N -0.396192128125001 -7.28712048437500 -2.54007225312500 
 N -2.44853612812500 -6.53492548437500 -3.68141725312500 
 N -3.12356912812500 -6.82672248437500 0.135431746874997 
 N -0.326447128125001 -3.65213348437500 -2.76972725312500 
 N -2.42870212812500 -2.62588248437500 -3.66371825312500 
 N -2.89526112812500 -3.28685848437500 0.166984746874997 
 S -0.823439128125001 -6.82110548437500 -4.03499025312500 
 S -3.91163812812500 -6.56738548437500 -1.25930625312500 
 S -1.50908912812500 -7.29887148437500 -1.276325312500282E-002
 S -0.927276128125001 -3.15830648437500 -4.20214225312500 
 S -3.75805212812500 -2.67616448437500 -1.14077125312500 
 S -1.28125212812500 -3.54762748437500 -6.429025312500292E-002
