16

 C -2.58992468749999 -6.21202481250000 -2.50484501875000 
 C -1.39739468749999 -6.81940081250000 -1.88769101875000 
 C -2.41593768749999 -2.38105381250000 -2.55001001875000 
 C -1.26204668749999 -2.98086481250000 -1.85045601875000 
 N -0.364554687499993 -7.10949481250000 -2.67269201875000 
 N -2.42922968749999 -6.08097081250000 -3.83367701875000 
 N -2.97858668749999 -6.31923981250000 6.167098125000048E-002
 N -0.259823687499994 -3.27182881250000 -2.62222901875000 
 N -2.29137268749999 -2.36834581250000 -3.86258901875000 
 N -3.06920968749999 -2.60577881250000 -3.220801874999957E-002
 S -0.936203687499994 -6.68633781250000 -4.19192001875000 
 S -3.81361468749999 -5.87520181250000 -1.34864001875000 
 S -1.52555868749999 -7.10310481250000 -0.155847018749999 
 S -0.824285687499994 -2.96110281250000 -4.25123001875000 
 S -3.74621268749999 -2.09010781250000 -1.44127501875000 
 S -1.46037268749999 -2.96012681250000 -0.143939018749999 
