16

 C -2.23052348125000 -6.46676994062500 -2.44305579375000 
 C -0.958963481249997 -6.78849794062500 -1.81965179375000 
 C -2.59056748125000 -2.90999194062500 -2.52708479375000 
 C -1.44319548125000 -3.38234194062500 -1.76862479375000 
 N 7.370551875000242E-002 -6.91809894062500 -2.65562179375000 
 N -2.13742448125000 -6.15920194062500 -3.71741979375000 
 N -2.69847548125000 -6.73163394062500 0.102194206250001 
 N -0.377669481249997 -3.56355994062500 -2.55718779375000 
 N -2.35055148125000 -2.79411894062500 -3.82939179375000 
 N -3.28619648125000 -2.85533594062500 -6.732479374999967E-002
 S -0.546993481249998 -6.50472794062500 -4.16315979375000 
 S -3.55850748125000 -6.37421694062500 -1.29032779375000 
 S -1.02460448125000 -6.99288694062500 -6.448879374999938E-002
 S -0.724123481249998 -3.09076694062500 -4.11474979375000 
 S -3.90200848125000 -2.44444194062500 -1.56217679375000 
 S -1.68904648125000 -3.32528894062500 -6.168879374999969E-002
