16

 C -2.46202194375000 -6.44617776250000 -2.34188052187500 
 C -1.12896094375000 -6.83938576250000 -1.79649152187500 
 C -2.55605894375000 -2.82046376250000 -2.41330552187500 
 C -1.35565394375000 -3.21047876250000 -1.68393052187500 
 N -9.196094374999930E-002 -6.91595876250000 -2.63108452187500 
 N -2.36796794375000 -6.19250576250000 -3.63061752187500 
 N -2.76079394375000 -6.85368576250000 0.217049478124999 
 N -0.292029943749999 -3.44426776250000 -2.49406352187500 
 N -2.41243694375000 -2.64881376250000 -3.73758952187500 
 N -3.19812794375000 -2.93705476250000 3.882047812499945E-002
 S -0.813706943750000 -6.58997376250000 -4.10708052187500 
 S -3.71152194375000 -6.45675876250000 -1.10921652187500 
 S -1.17112794375000 -7.17158476250000 -9.508152187500052E-002
 S -0.822070943750000 -3.04188876250000 -4.03132652187500 
 S -3.88130294375000 -2.40992376250000 -1.35342052187500 
 S -1.60507794375000 -3.45164376250000 2.911847812499935E-002
