16

 C -2.45889975000001 -6.50568457500000 -2.44057622812500 
 C -1.21092375000001 -6.68515857500000 -1.75152622812500 
 C -2.61763175000001 -2.82316357500001 -2.49643722812500 
 C -1.42455175000001 -3.30179357500000 -1.88026322812500 
 N -0.140762750000006 -6.90411757500000 -2.52348022812500 
 N -2.29118175000001 -6.53819257500000 -3.76156322812500 
 N -3.01448075000001 -6.45104257500000 0.114059771875000 
 N -0.373087750000005 -3.43233557500000 -2.70124322812500 
 N -2.47862475000001 -2.63328857500000 -3.80701722812500 
 N -3.18370875000001 -2.89797657500000 -1.518522812499978E-002
 S -0.704226750000005 -6.81149557500000 -4.08334622812500 
 S -3.78556375000001 -6.24165357500000 -1.33777022812500 
 S -1.44461275000001 -6.90164757500000 -3.837622812499975E-002
 S -0.973274750000005 -3.10027857500000 -4.21316822812500 
 S -3.95549775000001 -2.43737057500000 -1.43247122812500 
 S -1.59831875000001 -3.40600857500000 -0.157813228125000 
