16

 C -2.16281341250001 -6.28571435625000 -2.29615177500000 
 C -0.957291412500008 -6.81703735625000 -1.72631577500000 
 C -2.79373341250001 -2.51242035625000 -2.49885277500000 
 C -1.56936741250001 -3.00353735625000 -1.89647577500000 
 N -1.405741250000769E-002 -6.94348135625000 -2.67124177500000 
 N -2.12713841250001 -6.08739435625000 -3.61649777500000 
 N -2.59380541250001 -6.68905235625000 0.233212224999999 
 N -0.529625412500008 -3.03555435625000 -2.76400677500000 
 N -2.71120341250001 -2.36375735625000 -3.79795177500000 
 N -3.40967341250001 -2.90686035625000 -2.117377500000117E-002
 S -0.588959412500007 -6.48162935625000 -4.12709777500000 
 S -3.46888541250001 -6.20561835625000 -1.14387777500000 
 S -1.05332241250001 -7.18924935625000 -6.378377500000143E-002
 S -1.11570641250001 -2.62720735625000 -4.22770677500000 
 S -4.13024141250001 -2.34632735625000 -1.39800277500000 
 S -1.79969141250001 -3.33322335625000 -0.191584775000001 
