16

 C -2.45173242187500 -6.68820822187499 -2.28446052500000 
 C -1.26722842187500 -7.23808322187499 -1.66224952500000 
 C -2.25558042187500 -2.43784622187499 -2.52670552500000 
 C -1.08391042187500 -2.94151422187499 -1.84666852500000 
 N -0.224551421875004 -7.33129122187499 -2.48201852500000 
 N -2.39195542187500 -6.49230922187499 -3.62830552500000 
 N -2.95350342187500 -6.83680122187499 0.283208475000000 
 N -1.163842187500386E-002 -3.19413022187499 -2.61740752500000 
 N -2.07875442187500 -2.18045722187499 -3.80452952500000 
 N -3.01384942187500 -2.72352722187499 -8.657852500000041E-002
 S -0.838246421875004 -6.92522322187499 -3.99431952500000 
 S -3.70508342187500 -6.22611622187499 -1.08364552500000 
 S -1.41616242187500 -7.20449322187499 0.112640475000000 
 S -0.525472421875004 -2.64907722187499 -4.10232652500000 
 S -3.72622742187500 -2.42481422187499 -1.54248452500000 
 S -1.40505442187500 -3.22070522187499 -0.170821525000000 
