16

 C -2.42423326875001 -6.59775920625000 -2.48432841250000 
 C -1.15308326875001 -6.98207720625000 -1.94417041250000 
 C -2.40365226875001 -2.88257620625000 -2.45517241250000 
 C -1.28576326875001 -3.56203120625000 -1.77473341250000 
 N -0.179520268750005 -7.06728020625000 -2.84094741250000 
 N -2.36192326875001 -6.32065120625000 -3.78120541250000 
 N -2.77091926875001 -7.19168720625000 2.382958750000053E-002
 N -0.303514268750005 -3.84180720625000 -2.63114141250000 
 N -2.13824826875001 -2.69284520625000 -3.76127041250000 
 N -3.12559926875001 -3.14481720625000 -9.496412499999440E-003
 S -0.758878268750006 -6.60034220625000 -4.31988441250000 
 S -3.69703426875001 -6.71176320625000 -1.27726041250000 
 S -1.14141226875001 -7.35675920625000 -0.218298412499999 
 S -0.635262268750005 -3.28296920625000 -4.16267441250000 
 S -3.83550626875001 -2.69665020625000 -1.47139041250000 
 S -1.58292226875001 -3.69666220625000 -3.269641249999955E-002
