16

 C -2.26228209375000 -6.28465970312500 -2.15870225937500 
 C -1.00692809375000 -6.77286770312500 -1.61182925937500 
 C -2.49984509375000 -2.76677370312500 -2.45538125937500 
 C -1.27719409375000 -3.16597670312500 -1.77454725937500 
 N -0.124761093750005 -6.86134870312500 -2.62038325937500 
 N -2.32100309375000 -6.11333270312500 -3.49473825937500 
 N -2.65173309375000 -6.67098670312500 0.458273740625001 
 N -0.189863093750004 -3.43170970312500 -2.48982225937500 
 N -2.29095509375000 -2.69835270312500 -3.77905425937500 
 N -3.00846609375000 -2.73027570312500 5.192074062500063E-002
 S -0.813190093750005 -6.37280670312500 -4.04592725937500 
 S -3.49925109375000 -6.11105970312500 -0.878716259375000 
 S -1.13278709375000 -7.19375070312500 0.120533740625001 
 S -0.676304093750004 -3.06755470312500 -4.01200225937500 
 S -3.75055309375000 -2.33015270312500 -1.39181225937500 
 S -1.52810909375000 -3.41303070312500 -8.146525937499938E-002
