16

 C -2.45646861562500 -6.50090859687500 -2.43868351562500 
 C -1.20002661562500 -6.67469959687500 -1.75512951562500 
 C -2.59111761562500 -2.81288859687500 -2.48823851562500 
 C -1.42656561562500 -3.30390759687500 -1.87618151562500 
 N -0.116682615624998 -6.90459659687500 -2.52761851562500 
 N -2.28795761562500 -6.52958159687500 -3.75762751562500 
 N -3.01010861562500 -6.45676559687500 0.115263484374996 
 N -0.381779615624998 -3.42472359687500 -2.69198751562500 
 N -2.46772261562500 -2.62988159687500 -3.79444151562500 
 N -3.18206261562500 -2.90111859687500 -3.043051562500398E-002
 S -0.699981615624997 -6.80701559687500 -4.08647251562500 
 S -3.78179061562500 -6.24372959687500 -1.33699451562500 
 S -1.43854761562500 -6.90257459687500 -4.264951562500396E-002
 S -0.969565615624997 -3.11386859687500 -4.21241351562500 
 S -3.95846261562500 -2.43890459687500 -1.43764751562500 
 S -1.60997561562500 -3.40420159687500 -0.164243515625004 
