16

 C -2.45398885625000 -6.31978695000000 -2.55066773750000 
 C -1.30975185625000 -6.83083895000000 -1.83444573750000 
 C -2.25892785625000 -2.89592195000000 -2.30012873750000 
 C -0.966750856250000 -3.41255495000000 -1.78099373750000 
 N -0.284410856250000 -7.04334995000000 -2.66098573750000 
 N -2.28343585625000 -6.10696795000000 -3.86031773750000 
 N -3.16004285625000 -6.49098495000000 -0.118381737499998 
 N -8.583856249999577E-003 -3.32907395000000 -2.69018073750000 
 N -2.11942685625000 -2.48027395000000 -3.55219673750000 
 N -2.56668785625000 -3.42662295000000 0.204330262500003 
 S -0.750833856250000 -6.53090795000000 -4.16322473750000 
 S -3.80724185625000 -5.86645795000000 -1.53072073750000 
 S -1.55627185625000 -7.03577095000000 -0.134558737499997 
 S -0.618094856250000 -2.88906695000000 -4.13531873750000 
 S -3.49534085625000 -2.99005795000000 -1.09751573750000 
 S -1.02062285625000 -3.96359095000000 -0.136059737499998 
