16

 C -2.40057852500000 -6.53417625000000 -2.46686465312500 
 C -1.17720252500000 -6.87697725000000 -1.86611865312500 
 C -2.67653652500000 -2.59595025000000 -2.34982665312500 
 C -1.55338452500000 -3.23639225000000 -1.72806965312500 
 N -0.134760524999999 -6.99357725000000 -2.67621365312500 
 N -2.35731352500000 -6.45660125000000 -3.79345365312500 
 N -2.88453952500000 -6.66401125000000 0.118020346875000 
 N -0.504172525000000 -3.40542125000000 -2.53404665312500 
 N -2.53572052500000 -2.46408225000000 -3.66377565312500 
 N -3.22482152500000 -2.81299625000000 0.150491346875000 
 S -0.750447524999999 -6.81880925000000 -4.22783065312500 
 S -3.67358252500000 -6.27479025000000 -1.34799965312500 
 S -1.33408952500000 -7.14253425000000 -0.172633653125000 
 S -1.01142152500000 -2.92588325000000 -4.05360465312500 
 S -3.93636552500000 -2.25616525000000 -1.25437565312500 
 S -1.74238452500000 -3.46458125000000 -1.572265312500010E-002
