16

 C -2.36956595625000 -6.23907654375000 -2.22303782500000 
 C -1.19489295625000 -6.88101354375000 -1.70805382500000 
 C -2.49274895625000 -2.74403154375000 -2.61452682500000 
 C -1.18586095625000 -2.97924054375000 -1.99064382500000 
 N -0.144294956249999 -7.02880754375000 -2.51364682500000 
 N -2.23179595625000 -5.89411054375000 -3.50267582500000 
 N -2.91802995625000 -6.88694254375000 0.191441174999998 
 N -0.154534956249999 -3.00824754375000 -2.83194882500000 
 N -2.37483195625000 -2.56687254375000 -3.93234582500000 
 N -2.91454795625000 -3.07974254375000 -7.834282500000156E-002
 S -0.680936956249999 -6.35327954375000 -3.93567382500000 
 S -3.69190095625000 -6.13137654375000 -1.09750482500000 
 S -1.22338795625000 -7.05387154375000 2.534017499999841E-002
 S -0.747919956249999 -2.57562254375000 -4.31422582500000 
 S -3.83329995625000 -2.88031054375000 -1.48958682500000 
 S -1.28563395625000 -3.39150554375000 -0.340230825000002 
