16

 C -2.34263175000000 -6.27305774687500 -2.39307391562500 
 C -1.11009575000000 -6.84253074687500 -1.77557491562500 
 C -2.62295575000000 -2.72445574687500 -2.65679791562500 
 C -1.39148975000000 -3.02257274687500 -1.95579491562500 
 N -0.120880750000001 -7.18209674687500 -2.55517391562500 
 N -2.21724575000000 -6.24781674687500 -3.70248191562500 
 N -2.70676675000000 -6.18795774687500 0.152433084374999 
 N -0.304950750000001 -3.09864974687500 -2.76265791562500 
 N -2.54805975000000 -2.64988674687500 -4.00940291562500 
 N -3.18890875000000 -2.81838174687500 -7.193091562500076E-002
 S -0.658932750000001 -6.76640274687500 -4.06362891562500 
 S -3.63097575000000 -6.04124274687500 -1.29156091562500 
 S -1.24323675000000 -6.99365374687500 3.821008437499929E-002
 S -0.941752750000001 -3.02591174687500 -4.27041791562500 
 S -3.89550975000000 -2.35637974687500 -1.50307691562500 
 S -1.54854275000000 -3.19969474687500 -0.178806915625001 
