16

 C -2.42545340312500 -6.41328657187500 -2.55549580312500 
 C -1.23556340312500 -6.79153457187500 -1.87829480312500 
 C -2.36671140312500 -2.64152057187500 -2.46984680312500 
 C -1.15622040312500 -3.02142757187500 -1.74604780312500 
 N -0.129000403125004 -6.88021357187500 -2.63305980312500 
 N -2.27226740312500 -6.23689057187500 -3.85648480312500 
 N -3.10787240312500 -6.60943057187500 -4.907280312500140E-002
 N -0.138256403125004 -3.28998057187500 -2.57695480312500 
 N -2.24528840312500 -2.47120457187500 -3.79861180312500 
 N -3.04573640312500 -2.81492357187500 4.869219687499871E-002
 S -0.644611403125004 -6.52804157187500 -4.16698680312500 
 S -3.79535640312500 -6.32252757187500 -1.47274780312500 
 S -1.46448840312500 -7.04199257187500 -0.114935803125001 
 S -0.713504403125004 -3.01776257187500 -4.09696180312500 
 S -3.68568240312500 -2.32812857187500 -1.32822580312500 
 S -1.42587240312500 -3.14113057187500 -1.737780312500137E-002
