16

 C -2.35552880312499 -6.66216645625000 -2.31573922187500 
 C -1.16054680312499 -7.21264645625000 -1.73161722187500 
 C -2.35747680312499 -2.53747845625000 -2.28056422187500 
 C -1.31918680312499 -3.37420345625000 -1.70582022187500 
 N -0.140310803124992 -7.41703945625000 -2.53516022187500 
 N -2.15290580312499 -6.44064245625000 -3.59952822187500 
 N -3.00862980312499 -7.14024745625000 7.624677812500136E-002
 N -0.489312803124992 -3.79141345625000 -2.67694722187500 
 N -2.26565180312499 -2.28640045625000 -3.58937822187500 
 N -2.96660680312499 -2.73279445625000 0.201636778125001 
 S -0.641072803124992 -6.85000645625000 -4.06105722187500 
 S -3.71104080312499 -6.44602545625000 -1.32831222187500 
 S -1.38308080312499 -7.30050745625000 2.914977812500119E-002
 S -0.882191803124992 -3.00805045625000 -4.04226622187500 
 S -3.58691380312499 -2.05700845625000 -1.13995522187500 
 S -1.67326880312499 -3.69388245625000 -8.528622187499879E-002
