16

 C -2.38557164687501 -6.34653865624999 -2.55623105000000 
 C -1.12012864687501 -6.65019265624999 -1.94142805000000 
 C -2.77631064687501 -2.78183965624999 -2.33883705000000 
 C -1.59056864687501 -3.27594165624999 -1.70961705000000 
 N -0.149337646875007 -6.84260365624999 -2.82497405000000 
 N -2.40413064687501 -6.34651165624999 -3.87747205000000 
 N -2.81049564687501 -6.33505465624999 6.069950000000102E-003
 N -0.598367646875007 -3.49131865624999 -2.54631705000000 
 N -2.66773464687501 -2.54923165624999 -3.63253705000000 
 N -3.27482864687501 -2.89101165624999 0.211337950000000 
 S -0.830059646875007 -6.65494265624999 -4.34125105000000 
 S -3.66194464687501 -6.09907665624999 -1.38850405000000 
 S -1.16699964687501 -6.66067865624999 -0.165712050000000 
 S -1.14054764687501 -3.15136065624999 -4.05214505000000 
 S -4.04386264687501 -2.59673165624999 -1.22287605000000 
 S -1.66370464687501 -3.29095165624999 1.781950000000032E-003
