16

 C -2.63629128750000 -6.36611021250000 -2.29135651875000 
 C -1.46101928750000 -6.91199621250000 -1.67235651875000 
 C -2.46659428750000 -2.79347121250000 -2.40513951875000 
 C -1.18652028750000 -3.21029421250000 -1.81568051875000 
 N -0.423701287499997 -7.21022321250000 -2.47347851875000 
 N -2.55560628750000 -6.30953821250000 -3.62242151875000 
 N -3.16744628750000 -6.45325621250000 0.196067481249997 
 N -0.287926287499997 -3.45511421250000 -2.74267951875000 
 N -2.40116628750000 -2.64765021250000 -3.70712451875000 
 N -2.88877428750000 -2.93532221250000 0.125424481249997 
 S -1.03496828750000 -6.86531521250000 -3.98816151875000 
 S -3.99046828750000 -6.16889921250000 -1.23370151875000 
 S -1.61856528750000 -6.99818221250000 3.461648124999650E-002
 S -0.917718287499997 -3.15402521250000 -4.22003851875000 
 S -3.75470228750000 -2.60989921250000 -1.27342651875000 
 S -1.29285428750000 -3.32236621250000 -0.142410518750004 
