16

 C -2.17073203749999 -6.51674230625000 -2.50259811875000 
 C -1.03586803749999 -7.11122630625000 -1.80005211875000 
 C -2.45171103749999 -2.93665930625000 -2.34834211875000 
 C -1.25577003749999 -3.37158630625000 -1.71307111875000 
 N -6.065203749999348E-002 -7.40452530625000 -2.68158011875000 
 N -2.05724003749999 -6.29771030625000 -3.81589511875000 
 N -3.01168003749999 -6.84991230625000 -6.718911875000066E-002
 N -0.235442037499993 -3.66096830625000 -2.50305111875000 
 N -2.29257503749999 -2.72257030625000 -3.63695311875000 
 N -2.93304803749999 -2.91426230625000 0.182702881249999 
 S -0.586180037499993 -6.86236130625000 -4.20792311875000 
 S -3.55836903749999 -6.19637230625000 -1.48499011875000 
 S -1.39677703749999 -7.32817130625000 -9.055511875000088E-002
 S -0.728424037499994 -3.20895230625000 -3.99762811875000 
 S -3.77259103749999 -2.71425130625000 -1.23767611875000 
 S -1.33589103749999 -3.45474130625000 5.746688124999921E-002
