16

 C -2.35557433437500 -6.48890870625000 -2.54777235625000 
 C -1.13991033437500 -6.85009970625000 -1.85500835625000 
 C -2.51049333437500 -2.57828270625000 -2.37549235625000 
 C -1.30450233437500 -3.07981770625000 -1.63511835625000 
 N -0.110358334374999 -6.89338270625000 -2.69578635625000 
 N -2.28053433437500 -6.28705270625000 -3.87623335625000 
 N -2.98430833437500 -6.89992270625000 -4.658335624999843E-002
 N -0.254306334374998 -3.40233770625000 -2.38662835625000 
 N -2.33904833437500 -2.50848270625000 -3.68497635625000 
 N -3.29250033437500 -2.78490770625000 4.967764375000172E-002
 S -0.711419334374998 -6.52957970625000 -4.19520435625000 
 S -3.74911133437500 -6.56651370625000 -1.50355035625000 
 S -1.32061033437500 -7.28705170625000 -0.194291356249998 
 S -0.780632334374999 -3.04407270625000 -3.91559835625000 
 S -3.88581133437500 -2.27622570625000 -1.42743335625000 
 S -1.64779233437500 -3.20434770625000 4.484664375000169E-002
