16

 C -2.12008731875000 -6.78062504062500 -2.49135358750000 
 C -1.00252031875000 -7.34440804062500 -1.80165358750000 
 C -2.56690031875000 -2.59533104062500 -2.58567058750000 
 C -1.35574631875000 -3.08140504062500 -1.88353758750000 
 N -8.879831875000033E-002 -7.73960804062500 -2.65834258750000 
 N -2.06224431875000 -6.78882104062500 -3.85915658750000 
 N -2.74161631875000 -6.63508204062500 3.572841250000014E-002
 N -0.312721318750000 -3.38120004062500 -2.68267358750000 
 N -2.39587231875000 -2.52124904062500 -3.89094158750000 
 N -3.19531931875000 -2.80266504062500 -9.892358749999985E-002
 S -0.570099318750001 -7.45470504062500 -4.25366658750000 
 S -3.48526931875000 -6.40076604062500 -1.38660558750000 
 S -1.28656031875000 -7.43135604062500 -2.426658749999988E-002
 S -0.920494318750000 -3.17532804062500 -4.23881258750000 
 S -3.93227031875000 -2.41599204062500 -1.53195158750000 
 S -1.48937031875000 -3.09971704062500 -0.117386587500000 
