16

 C -2.44237669687500 -6.54557772500000 -2.53356220312500 
 C -1.23048069687500 -6.82172372500000 -1.85278720312500 
 C -2.39148669687500 -3.20003872500000 -2.14256720312500 
 C -1.12855869687500 -3.62070072500000 -1.50216720312500 
 N -0.168714696874999 -6.90127572500000 -2.66416720312500 
 N -2.36432569687500 -6.54690472500000 -3.88135820312500 
 N -2.95101969687500 -6.57611772500000 -5.422720312500307E-002
 N -0.146607696875000 -3.82366872500000 -2.38053820312500 
 N -2.24635569687500 -2.94436772500000 -3.41980620312500 
 N -2.88459169687500 -3.55404772500000 0.345031796874997 
 S -0.750087696874999 -6.80877872500000 -4.17391020312500 
 S -3.78774169687500 -6.37382272500000 -1.42140220312500 
 S -1.32354169687500 -6.77291472500000 -0.185752203125003 
 S -0.686290696874999 -3.34423472500000 -3.87328820312500 
 S -3.71606669687500 -3.30013572500000 -1.08950020312500 
 S -1.21315869687500 -3.73371972500000 0.207129796874997 
