16

 C -2.34791715312500 -6.44757914687501 -2.16672599062500 
 C -1.15724915312500 -7.04465014687501 -1.66763799062500 
 C -2.29483615312500 -2.76288414687501 -2.62274899062500 
 C -1.11579315312500 -3.16802314687501 -1.96805899062500 
 N -5.934415312499830E-002 -6.97913314687501 -2.40764899062500 
 N -2.20566215312500 -6.04851314687501 -3.40815699062500 
 N -2.92500215312500 -7.04142414687501 0.277300009374998 
 N -8.415815312499753E-002 -3.41190014687500 -2.77081399062500 
 N -2.14375515312500 -2.63503914687501 -3.91296999062500 
 N -2.86198615312500 -2.62896414687501 -0.175267990625002 
 S -0.570489153124998 -6.23863714687501 -3.80170299062500 
 S -3.64275415312500 -6.32201014687501 -0.989867990625002 
 S -1.27519515312500 -7.33647314687501 0.123088009374998 
 S -0.608408153124998 -3.10570814687501 -4.33683799062500 
 S -3.65980215312500 -2.40097014687501 -1.63515699062500 
 S -1.33428915312500 -3.21715214687501 -0.289273990625003 
