16

 C -2.41508281875000 -6.19761662187500 -2.41289681250000 
 C -1.28625281875000 -6.72286962187500 -1.75127381250000 
 C -2.38224881875000 -2.26572862187500 -2.35081681250000 
 C -1.19770781875000 -2.87790762187500 -1.83219481250000 
 N -0.177361818750002 -6.93240162187500 -2.47443381250000 
 N -2.20547281875000 -6.17553562187500 -3.73740781250000 
 N -3.11646481875000 -6.39043862187500 2.406618749999900E-002
 N -0.253754818750003 -3.16928862187500 -2.74276881250000 
 N -2.31549081875000 -1.99274362187500 -3.65357281250000 
 N -2.96464581875000 -2.86246562187500 8.524518749999910E-002
 S -0.699043818750003 -6.74636062187500 -4.07388681250000 
 S -3.77129981875000 -5.93382862187500 -1.40591581250000 
 S -1.50145481875000 -6.87802362187500 -4.707281250000084E-002
 S -0.819070818750002 -2.50755162187500 -4.17455681250000 
 S -3.76910581875000 -2.26060662187500 -1.23518981250000 
 S -1.39687981875000 -3.23803962187500 -0.167930812500001 
