16

 C -2.34501060000000 -6.23622531562500 -2.27475145312500 
 C -1.13083860000000 -6.80495031562500 -1.67171845312500 
 C -2.48965560000000 -2.78420431562500 -2.69388945312500 
 C -1.19585260000000 -2.99898431562500 -2.06072645312500 
 N -0.173439600000003 -7.00686831562500 -2.54947545312500 
 N -2.20785560000000 -5.79796431562500 -3.54661245312500 
 N -2.91016060000000 -6.77697231562500 0.237470546874999 
 N -0.156845600000003 -2.93689331562500 -2.85261245312500 
 N -2.41424960000000 -2.54177731562500 -3.98940145312500 
 N -2.89036460000000 -3.04130731562500 -0.177940453125001 
 S -0.679843600000003 -6.32674231562500 -3.96026145312500 
 S -3.67938660000000 -6.17433431562500 -1.08586745312500 
 S -1.26163660000000 -7.08379931562500 4.328654687499922E-002
 S -0.769224600000003 -2.57154231562500 -4.39759545312500 
 S -3.83947660000000 -2.95262831562500 -1.53918345312500 
 S -1.24583260000000 -3.36577731562500 -0.316106453125001 
