16

 C -2.45270637500000 -6.36836292187500 -2.58550789687500 
 C -1.30413837500000 -6.74228292187500 -1.78473289687500 
 C -2.30265737500000 -2.59141992187500 -2.38374789687500 
 C -1.15680337500000 -3.27888892187500 -1.79121389687500 
 N -0.175039375000003 -6.92802692187500 -2.45596389687500 
 N -2.20290337500000 -6.24280692187500 -3.87507089687500 
 N -3.25330437500000 -6.63467792187500 -0.128347896875000 
 N -0.237051375000004 -3.66974992187500 -2.66599889687500 
 N -2.16464737500000 -2.44659692187500 -3.69234089687500 
 N -2.97687137500000 -2.86269192187500 5.367810312499999E-002
 S -0.613594375000003 -6.74471192187500 -4.04740589687500 
 S -3.86927137500000 -6.13472992187500 -1.62737689687500 
 S -1.60918137500000 -6.84336892187500 -0.108538896875000 
 S -0.673691375000003 -3.04605892187500 -4.12172989687500 
 S -3.70957037500000 -2.29005092187500 -1.37106489687500 
 S -1.43923937500000 -3.36742892187500 -2.106589687499993E-002
