16

 C -2.52777396250000 -6.25837025937500 -2.50145126562500 
 C -1.33255496250000 -6.71764525937500 -1.88296026562500 
 C -2.37430796250000 -3.05937825937500 -2.55237426562500 
 C -1.20180196250000 -3.40493925937500 -1.88816826562500 
 N -0.290234962499999 -6.94854925937500 -2.73530226562500 
 N -2.41593796250000 -5.97627325937500 -3.80804326562500 
 N -2.94097796250000 -6.26117825937500 0.160489734374997 
 N -9.800196249999882E-002 -3.46470525937500 -2.62304026562500 
 N -2.21392296250000 -2.90187025937500 -3.87137826562500 
 N -2.99088996250000 -2.92189225937500 -4.718526562500291E-002
 S -0.894405962499999 -6.50531125937500 -4.22900626562500 
 S -3.73938596250000 -5.93268825937500 -1.30124426562500 
 S -1.40751196250000 -6.70785025937500 -0.109715265625003 
 S -0.639570962499999 -3.26435325937500 -4.12855726562500 
 S -3.74767496250000 -2.90223325937500 -1.47967726562500 
 S -1.36167096250000 -3.32673725937500 -0.220170265625003 
