16

 C -2.65145721875001 -6.64774699687500 -2.13414561250000 
 C -1.42928821875001 -7.30694799687500 -1.65542961250000 
 C -2.26492421875001 -2.78190999687500 -2.37881861250000 
 C -1.10490521875001 -3.34330799687500 -1.75759361250000 
 N -0.500288218750006 -7.53492099687500 -2.59658561250000 
 N -2.61699621875001 -6.36045099687500 -3.41416861250000 
 N -3.01922621875001 -7.03716899687500 0.292901387500001 
 N -0.160966218750006 -3.72236899687500 -2.59945161250000 
 N -2.22046821875001 -2.58372199687500 -3.71496861250000 
 N -2.84645621875001 -3.04844199687500 0.156761387500001 
 S -1.20510621875001 -6.98115299687500 -4.01402761250000 
 S -3.91643321875001 -6.43379799687500 -0.965354612499999 
 S -1.44173021875001 -7.50053499687500 7.732638750000098E-002
 S -0.685796218750006 -3.11998199687500 -4.05967961250000 
 S -3.56913421875001 -2.51478499687500 -1.23466261250000 
 S -1.20255621875001 -3.47863999687500 1.329038750000100E-002
