16

 C -2.40911105000000 -6.23665838125000 -2.41678149375000 
 C -1.23391705000000 -6.74027038125000 -1.79115449375000 
 C -2.52460505000000 -2.44821238125000 -2.39236449375000 
 C -1.43292705000000 -3.10968738125000 -1.75395449375000 
 N -0.255904050000000 -6.97083538125000 -2.67237049375000 
 N -2.24713205000000 -5.90032938125000 -3.73973049375000 
 N -2.87990205000000 -6.57154538125000 0.149480506249999 
 N -0.480991049999999 -3.49279438125000 -2.55345149375000 
 N -2.34733705000000 -2.35208038125000 -3.69345349375000 
 N -3.05773305000000 -2.37791838125000 7.597850624999847E-002
 S -0.729553050000000 -6.43153538125000 -4.16259349375000 
 S -3.70000305000000 -6.07860738125000 -1.17547649375000 
 S -1.31356105000000 -7.06407738125000 -0.151315493750001 
 S -0.894318049999999 -3.03192538125000 -4.10728049375000 
 S -3.84454805000000 -2.06579138125000 -1.38342849375000 
 S -1.64020605000000 -3.22569238125000 -7.924249375000136E-002
