16

 C -2.54282650312500 -6.34239554375000 -2.49574172500000 
 C -1.32605350312500 -6.66499554375000 -1.83414072500000 
 C -2.77934850312500 -2.67604454375000 -2.58121772500000 
 C -1.54391250312500 -3.08096154375000 -1.93276672500000 
 N -0.317710503124998 -6.73148254375000 -2.69413472500000 
 N -2.47070850312500 -6.04181154375000 -3.76858472500000 
 N -3.21767250312500 -6.64572554375000 -4.717172499999966E-002
 N -0.489874503124999 -3.21057654375000 -2.77585372500000 
 N -2.68880050312500 -2.44666154375000 -3.90913572500000 
 N -3.25532050312500 -3.09106954375000 -2.824472499999953E-002
 S -0.902790503124999 -6.46020154375000 -4.21655572500000 
 S -3.94535950312500 -6.36403254375000 -1.48808072500000 
 S -1.54366450312500 -6.88702654375000 -8.748072499999937E-002
 S -1.07023250312500 -2.72900854375000 -4.30171472500000 
 S -4.03604950312500 -2.44396254375000 -1.35547072500000 
 S -1.64957950312500 -3.37193354375000 -0.249161725000000 
