16

 C -2.63566362187501 -6.65356280312501 -2.15584550000000 
 C -1.43806662187501 -7.31453380312501 -1.68581550000000 
 C -2.30871462187501 -2.81626680312501 -2.36146150000000 
 C -1.09505862187501 -3.38852380312501 -1.71320450000000 
 N -0.506589621875008 -7.52770380312501 -2.60178750000000 
 N -2.66139162187501 -6.43675080312501 -3.45519150000000 
 N -3.06316262187501 -7.06767580312501 0.277806499999999 
 N -9.602562187500840E-002 -3.64716780312501 -2.57388250000000 
 N -2.18185762187501 -2.63618680312501 -3.67396250000000 
 N -2.81942662187501 -3.12310380312501 0.174785499999999 
 S -1.22297962187501 -6.98536780312501 -4.00037750000000 
 S -3.90540762187501 -6.42118880312501 -1.05695650000000 
 S -1.48004362187501 -7.46505580312501 6.766449999999868E-002
 S -0.638870621875008 -3.16410180312501 -4.05866850000000 
 S -3.56871262187501 -2.53036980312501 -1.22285650000000 
 S -1.19610062187501 -3.52969480312501 4.667949999999865E-002
