16

 C -2.42675506562501 -6.57680380000000 -2.29339718750000 
 C -1.27813406562501 -7.03214280000000 -1.59290418750000 
 C -2.43108806562501 -2.79788580000000 -2.44691918750000 
 C -1.19149206562501 -3.19685680000000 -1.75206618750000 
 N -0.133965065625008 -7.19380180000000 -2.23476218750000 
 N -2.18603906562501 -6.41289080000000 -3.57898918750000 
 N -3.09054206562501 -6.68362280000000 0.228125812499998 
 N -8.249006562500760E-002 -3.13916280000000 -2.52045118750000 
 N -2.28718406562501 -2.43252480000000 -3.73580118750000 
 N -3.05051706562501 -3.30999480000000 2.516081249999846E-002
 S -0.548643065625007 -6.76636680000000 -3.76397018750000 
 S -3.75135106562501 -6.21138680000000 -1.22689718750000 
 S -1.53514006562501 -7.21346780000000 9.394981249999845E-002
 S -0.714354065625007 -2.67491680000000 -4.03275318750000 
 S -3.79408906562501 -2.71862280000000 -1.33958218750000 
 S -1.43754206562501 -3.56976180000000 -0.109092187500001 
