16

 C -2.36036705937499 -6.66446130937500 -2.32273717812500 
 C -1.16269205937500 -7.20638730937500 -1.73721117812500 
 C -2.35272705937500 -2.53681130937500 -2.28093917812500 
 C -1.31174505937499 -3.37236230937500 -1.70517117812500 
 N -0.133145059374995 -7.41755730937500 -2.53915117812500 
 N -2.15700405937500 -6.43637830937500 -3.59961117812500 
 N -3.00476005937499 -7.13568330937500 8.363082187499993E-002
 N -0.487403059374995 -3.78642130937500 -2.67654317812500 
 N -2.26381605937499 -2.28798930937500 -3.58569717812500 
 N -2.96774205937500 -2.73566030937500 0.195109821875000 
 S -0.640857059374995 -6.84256230937500 -4.06259917812500 
 S -3.71240405937499 -6.44415130937500 -1.32369917812500 
 S -1.38448405937500 -7.29890030937500 3.320682187499990E-002
 S -0.877229059374995 -3.00387530937500 -4.04244717812500 
 S -3.59145505937500 -2.05785130937500 -1.14072517812500 
 S -1.66761805937499 -3.69193930937500 -8.418317812499998E-002
