16

 C -2.26778278750001 -6.15876179687500 -2.02349402187500 
 C -1.09145778750001 -6.78242879687500 -1.49980902187500 
 C -2.32946878750001 -2.54040279687500 -2.30326802187500 
 C -1.24031578750001 -3.20027579687500 -1.56108102187500 
 N -0.102695787500005 -6.93774679687500 -2.40330202187500 
 N -2.14049578750001 -5.75628479687500 -3.30475202187500 
 N -2.90738878750001 -6.87102879687500 0.424665978125000 
 N -0.197586787500005 -3.53301079687500 -2.30609902187500 
 N -2.06159678750001 -2.40650479687500 -3.61711902187500 
 N -3.08245478750001 -2.98906479687500 0.156693978125000 
 S -0.621693787500005 -6.15987679687500 -3.79783602187500 
 S -3.62899878750001 -6.15522479687500 -0.934866021875000 
 S -1.33924478750001 -7.20789579687500 0.239199978125000 
 S -0.533052787500005 -2.91175479687500 -3.84701602187500 
 S -3.77439478750001 -2.44830279687500 -1.31863802187500 
 S -1.42754478750001 -3.27808079687500 0.128907978125000 
