16

 C -2.45520999374999 -6.67481237812500 -2.24043198437500 
 C -1.13061299374999 -6.81254737812500 -1.59396198437500 
 C -2.33289799374999 -2.73463937812500 -2.51729898437500 
 C -1.04060299374999 -3.13137337812500 -1.97892098437500 
 N -7.750199374999145E-002 -6.78141237812500 -2.42091898437500 
 N -2.34687199374999 -6.57689637812500 -3.56228298437500 
 N -2.96817999374999 -6.92542137812500 0.216496015625000 
 N -0.145403993749992 -3.33193637812500 -2.93944798437500 
 N -2.32537299374999 -2.55559937812500 -3.85205498437500 
 N -2.68543399374999 -2.86411037812500 4.060001562499993E-002
 S -0.703289993749991 -6.56709037812500 -3.97600198437500 
 S -3.79998299374999 -6.64096837812500 -1.17177598437500 
 S -1.33964799374999 -7.07171837812500 0.160162015625000 
 S -0.870144993749991 -3.01881437812500 -4.45823598437500 
 S -3.56018699374999 -2.41137937812500 -1.28849598437500 
 S -1.12574699374999 -3.49099137812500 -0.244742984375000 
