16

 C -2.58130513750000 -6.53331188124999 -2.42158417500000 
 C -1.49416913750000 -7.06544688124999 -1.66424117500000 
 C -2.31856613750000 -2.80301388124999 -2.47760817500000 
 C -1.14328513750000 -3.20330088124999 -1.82858917500000 
 N -0.462334137500002 -7.34289688124999 -2.44480717500000 
 N -2.33829913750000 -6.34936988124999 -3.72674917500000 
 N -3.28342613750000 -6.46287588124999 5.287682500000046E-002
 N -0.110389137500001 -3.43239788124999 -2.62336917500000 
 N -2.12729713750000 -2.52070488124999 -3.75970617500000 
 N -3.01407913750000 -2.94281688124999 -6.343617499999943E-002
 S -0.804859137500002 -6.95318088124999 -3.99490217500000 
 S -3.89938213750000 -6.01160888124999 -1.44376517500000 
 S -1.71257713750000 -7.02601988124999 3.175782500000035E-002
 S -0.617846137500002 -3.00075988124999 -4.16875417500000 
 S -3.72606413750000 -2.60829988124999 -1.53350717500000 
 S -1.33198213750000 -3.35352088124999 -0.107425175000000 
