16

 C -2.32729978125000 -6.32340532812499 -2.57006130937500 
 C -1.05815178125000 -6.55309532812499 -1.93592130937500 
 C -2.78972778125000 -2.79961932812499 -2.35401530937500 
 C -1.61470878125000 -3.27249232812499 -1.72948230937500 
 N -0.129687781250002 -6.83980132812499 -2.81382930937500 
 N -2.36919978125000 -6.36346932812499 -3.88792930937500 
 N -2.76445378125000 -6.36001232812499 -2.451030937499965E-002
 N -0.535887781250001 -3.47956532812499 -2.52101030937500 
 N -2.70633078125000 -2.60826732812499 -3.67827630937500 
 N -3.28392178125000 -2.83044732812499 0.193899690625000 
 S -0.798630781250002 -6.74007232812499 -4.33448930937500 
 S -3.60926478125000 -6.07543732812499 -1.43032230937500 
 S -1.16807078125000 -6.71684232812499 -0.208361309375000 
 S -1.14773578125000 -3.06665732812499 -4.04966230937500 
 S -4.11202178125000 -2.52206832812499 -1.22418330937500 
 S -1.70485078125000 -3.22247032812499 5.305469062500023E-002
