16

 C -2.37496186562500 -6.29496760625000 -2.20917613750000 
 C -1.19353386562500 -6.90081160625000 -1.64289213750000 
 C -2.41964686562500 -2.74394160625000 -2.57806513750000 
 C -1.19630986562500 -3.04151560625000 -1.97190713750000 
 N -0.191385865625000 -7.00098660625000 -2.49691513750000 
 N -2.21380086562500 -5.99724860625000 -3.46535113750000 
 N -2.86307986562500 -6.92836960625000 0.198030862500000 
 N -0.148674865625001 -2.99700860625000 -2.78615013750000 
 N -2.36558286562500 -2.49658360625000 -3.89070813750000 
 N -2.96171186562500 -3.11152560625000 -5.888213749999949E-002
 S -0.689214865625001 -6.37076960625000 -3.95873013750000 
 S -3.68439286562500 -6.12042960625000 -1.12231313750000 
 S -1.24539586562500 -7.06599560625000 2.978786250000054E-002
 S -0.766776865625001 -2.62320560625000 -4.23248613750000 
 S -3.76694486562500 -2.80018960625000 -1.44487013750000 
 S -1.33242286562500 -3.40635760625000 -0.312548137499999 
