16

 C -2.41203616562500 -6.26570356250000 -2.37060686875000 
 C -1.35308716562500 -6.95663656250000 -1.69713086875000 
 C -2.41454216562500 -2.29439356250000 -2.47452286875000 
 C -1.30347116562500 -2.96299156250000 -1.83128586875000 
 N -0.246866165624998 -7.08286956250000 -2.43889486875000 
 N -2.12406616562500 -5.95570456250000 -3.63579186875000 
 N -3.11699416562500 -6.56473956250000 8.495313125000137E-002
 N -0.328443165624998 -3.32147356250000 -2.67920186875000 
 N -2.28950016562500 -2.09494856250000 -3.74953686875000 
 N -3.06101616562500 -2.33382556250000 4.105213125000118E-002
 S -0.596727165624998 -6.59654856250000 -4.00466886875000 
 S -3.75741916562500 -5.97071956250000 -1.36840686875000 
 S -1.59409816562500 -7.23255256250000 -2.365786874999865E-002
 S -0.792736165624998 -2.79408156250000 -4.13275986875000 
 S -3.77458816562500 -2.01087756250000 -1.43932386875000 
 S -1.54373416562500 -2.99895756250000 -5.777486874999882E-002
