16

 C -2.36564958437499 -6.64459371562500 -2.48306383125000 
 C -1.14260058437499 -7.08579371562500 -1.89382883125000 
 C -2.39285558437499 -2.97464671562500 -2.50961283125000 
 C -1.23406558437499 -3.47075571562500 -1.82543283125000 
 N -8.820458437499124E-002 -7.12530471562500 -2.68000183125000 
 N -2.24158758437499 -6.26517971562500 -3.75068583125000 
 N -2.87206058437499 -6.99693271562500 1.637616874999792E-002
 N -0.202073584374991 -3.72502371562500 -2.62214983125000 
 N -2.21198758437499 -2.71795771562500 -3.78668983125000 
 N -3.05401558437499 -3.22026871562500 -3.251683125000193E-002
 S -0.644729584374991 -6.58490471562500 -4.16111083125000 
 S -3.67875558437499 -6.60878971562500 -1.42240583125000 
 S -1.28620458437499 -7.35922071562500 -0.213545831250002 
 S -0.670762584374991 -3.27276771562500 -4.07206483125000 
 S -3.72766858437499 -2.66265471562500 -1.49657683125000 
 S -1.49735758437499 -3.71301271562500 -0.158475831250002 
