16

 C -2.51682866875000 -6.58153977812500 -2.63422734062500 
 C -1.31781766875000 -7.12598477812500 -1.96884434062500 
 C -2.22230766875000 -2.48431677812500 -2.32039934062500 
 C -1.02240066875000 -3.12106977812500 -1.88798534062500 
 N -0.309543668750003 -7.20209277812500 -2.81612034062500 
 N -2.40154666875000 -6.36231777812500 -3.95412234062500 
 N -2.87812766875000 -6.61570177812500 -1.486934062500089E-002
 N -0.145891668750004 -3.38442477812500 -2.88087734062500 
 N -2.27627866875000 -2.14679777812500 -3.59545034062500 
 N -2.75244666875000 -3.18157977812500 9.251965937499906E-002
 S -0.838001668750004 -6.78982377812500 -4.32063334062500 
 S -3.71694566875000 -6.33671877812500 -1.43639734062500 
 S -1.42297066875000 -7.26992077812500 -0.262185340625001 
 S -0.793581668750003 -2.59708577812500 -4.28847534062500 
 S -3.54955366875000 -2.48568277812500 -1.17868534062500 
 S -1.20176866875000 -3.60817077812500 -0.210160340625001 
