16

 C -2.58236628125000 -6.81806907812500 -2.33509279687500 
 C -1.32088328125000 -7.15826507812500 -1.76403679687500 
 C -2.37334428125000 -3.07759107812500 -2.32585879687500 
 C -1.13535628125000 -3.57412307812500 -1.79421879687500 
 N -0.283597281250003 -7.27953907812500 -2.60883579687500 
 N -2.54560128125000 -6.62736207812500 -3.66841579687500 
 N -2.92336828125000 -6.78008907812500 0.240210203125000 
 N -0.120684281250003 -3.75034807812500 -2.60017079687500 
 N -2.30092028125000 -2.92431107812500 -3.64004379687500 
 N -2.73140228125000 -3.33399007812500 0.187259203125000 
 S -1.00138328125000 -7.01757107812500 -4.12739779687500 
 S -3.84900028125000 -6.43158607812500 -1.13690679687500 
 S -1.33953228125000 -7.18039707812500 -1.899879687500050E-002
 S -0.779079281250003 -3.30362807812500 -4.16247279687500 
 S -3.55038428125000 -2.80781707812500 -1.13988979687500 
 S -1.19434228125000 -3.90215907812500 -0.120867796875000 
