16

 C -2.65569425937501 -6.51359375312500 -2.30529642187500 
 C -1.38483125937501 -6.90926075312500 -1.78006142187500 
 C -2.35546825937501 -2.92433675312500 -2.35437742187500 
 C -1.20622125937501 -3.52841975312500 -1.68648442187500 
 N -0.450922259375007 -7.10104975312500 -2.70078742187500 
 N -2.64243825937501 -6.22393475312500 -3.60579842187500 
 N -3.04894625937501 -6.76800275312500 0.241321578124998 
 N -0.192067259375007 -3.70202975312500 -2.50180342187500 
 N -2.16804325937501 -2.72203575312500 -3.63296442187500 
 N -2.98445725937501 -2.98747275312500 0.111458578124997 
 S -1.10822325937501 -6.61185075312500 -4.15145842187500 
 S -3.90440525937501 -6.22780775312500 -1.08013942187500 
 S -1.45046125937501 -7.14167375312500 -3.409242187500228E-002
 S -0.616957259375007 -3.20957175312500 -4.05527142187500 
 S -3.73129625937501 -2.81264075312500 -1.37726242187500 
 S -1.44033825937501 -3.70990575312500 -2.656242187500224E-002
