16

 C -2.20321668437500 -6.34661020312499 -2.44633855937500 
 C -1.03999268437500 -6.83837420312499 -1.74386755937500 
 C -2.83530868437500 -2.53338520312499 -2.50325955937500 
 C -1.56355668437500 -2.88890220312499 -1.90558355937500 
 N 1.715231562499930E-002 -7.05268820312499 -2.49964355937500 
 N -2.04537968437500 -6.12887020312499 -3.76322055937500 
 N -2.88811568437500 -6.60881120312499 9.596744062499729E-002
 N -0.499363684375000 -2.88648320312499 -2.72531255937500 
 N -2.75755768437500 -2.31061120312499 -3.85285755937500 
 N -3.34838068437500 -2.85565420312499 9.172440624997114E-003
 S -0.440566684375001 -6.52090120312499 -4.02473355937500 
 S -3.59917968437500 -6.16308420312499 -1.31841955937500 
 S -1.24964568437500 -7.09112420312499 -1.619155937500283E-002
 S -1.15699868437500 -2.48564620312499 -4.21382755937500 
 S -4.18046768437500 -2.47591820312499 -1.41951155937500 
 S -1.70844668437500 -3.04512820312499 -0.204961559375003 
