16

 C -2.54638656250000 -6.42628341875001 -2.26416388437500 
 C -1.34872356250000 -6.91379041875001 -1.66069488437500 
 C -2.43930556250000 -2.93065441875001 -2.21421888437500 
 C -1.18691956250000 -3.35701541875001 -1.58888188437500 
 N -0.325806562500000 -7.08701441875001 -2.48493088437500 
 N -2.48275056250000 -6.27500741875001 -3.56965588437500 
 N -3.11306156250000 -6.75818741875001 0.127621115624999 
 N -0.162304562500000 -3.42801741875001 -2.45335688437500 
 N -2.35553256250000 -2.66119641875001 -3.52801788437500 
 N -2.84744656250000 -2.90019641875001 0.343752115624999 
 S -0.917417562500000 -6.72360041875001 -3.99755688437500 
 S -3.96841156250000 -6.37414641875000 -1.22926188437500 
 S -1.44624456250000 -7.16638941875001 -1.027888437500102E-002
 S -0.850795562500000 -3.05875241875001 -3.96592688437500 
 S -3.64906256250000 -2.56237741875001 -1.04691488437500 
 S -1.27310156250000 -3.44130641875001 0.166037115624999 
