16

 C -2.56991372500000 -6.15813449375000 -2.24586885312500 
 C -1.38364672500000 -6.69195649375000 -1.64209785312500 
 C -2.48865572500000 -2.51155649375000 -2.46790985312500 
 C -1.28269972500000 -3.01972949375000 -1.79357685312500 
 N -0.422717724999999 -6.88143749375000 -2.54113485312500 
 N -2.48657972500000 -5.98816949375000 -3.57379985312500 
 N -2.98271872500000 -6.45346649375000 0.302256146875002 
 N -0.302563725000000 -3.31355049375000 -2.62221485312500 
 N -2.27300372500000 -2.36969149375000 -3.74417485312500 
 N -3.04140572500000 -2.63045849375000 5.802014687500168E-002
 S -0.955604725000000 -6.50041249375000 -4.04987185312500 
 S -3.82043072500000 -5.84435249375000 -1.04800685312500 
 S -1.42847072500000 -6.82809049375000 7.246014687500169E-002
 S -0.754624724999999 -2.93662749375000 -4.17490085312500 
 S -3.85832572500000 -2.24221549375000 -1.39174485312500 
 S -1.43218772500000 -2.98346849375000 -4.977885312499830E-002
