56

C       0.000000000000000      0.000000000000000      0.000000000000000
C       1.470000000000000      0.000000000000000      0.000000000000000
C      -0.735000000000000      1.273057343563125      0.000000000000000
C      -0.735000000000000     -1.273057343563124     -0.000000000000000
C       2.170000000000000     -0.660339736301918      1.016834024145884
C       2.169999999999999      0.660339736301918     -1.016834024145885
C      -1.994326673973660      1.354275126212231      0.606217782649106
C      -0.175673326026338      2.404275126212232     -0.606217782649107
C      -0.175673326026346     -2.404275126212235      0.606217782649105
C      -1.994326673973660     -1.354275126212232     -0.606217782649107
C       3.570000000000000     -0.660339736301918      1.016834024145884
C       3.569999999999999      0.660339736301918     -1.016834024145884
C      -2.694326673973661      2.566710691510446      0.606217782649107
C      -0.875673326026338      3.616710691510446     -0.606217782649108
C      -0.875673326026352     -3.616710691510447      0.606217782649100
C      -2.694326673973660     -2.566710691510447     -0.606217782649107
C       4.270000000000000     -0.000000000000001     -0.000000000000000
C      -2.135000000000000      3.697928474159554      0.000000000000002
C      -2.135000000000011     -3.697928474159545     -0.000000000000011
C       5.740000000000000     -0.000000000000000      0.000000000000000
C       6.475000000000025     -1.273057343563111      0.000000000000001
C       6.474999999999999      1.273057343563125     -0.000000000000000
C       5.915673326026386     -2.404275126212227      0.606217782649109
C       7.734326673973686     -1.354275126212195     -0.606217782649108
C       5.915673326026337      2.404275126212231     -0.606217782649107
C       7.734326673973658      1.354275126212233      0.606217782649107
C       6.615673326026410     -3.616710691510429      0.606217782649110
C       8.434326673973709     -2.566710691510395     -0.606217782649108
C       6.615673326026337      3.616710691510446     -0.606217782649107
C       8.434326673973656      2.566710691510448      0.606217782649108
C       7.875000000000073     -3.697928474159512      0.000000000000003
C       7.874999999999996      3.697928474159554     -0.000000000000000
H       1.630000000000000     -1.169744675734827      1.801248842772709
H       1.629999999999998      1.169744675734826     -1.801248842772710
H      -2.425807251039056      0.481621408168634      1.073871500692703
H       0.795807251039058      2.341621408168635     -1.073871500692703
H       0.795807251039049     -2.341621408168644      1.073871500692704
H      -2.425807251039056     -0.481621408168636     -1.073871500692704
H       4.110000000000000     -1.169744675734827      1.801248842772710
H       4.110000000000000      1.169744675734825     -1.801248842772710
H      -3.665807251039057      2.629364409554042      1.073871500692703
H      -0.444192748960942      4.489364409554043     -1.073871500692704
H      -0.444192748960963     -4.489364409554047      1.073871500692695
H      -3.665807251039055     -2.629364409554044     -1.073871500692703
H      -2.675000000000001      4.633235910246747      0.000000000000001
H      -2.675000000000016     -4.633235910246737     -0.000000000000014
H       4.944192748960991     -2.341621408168649      1.073871500692707
H       8.165807251039064     -0.481621408168590     -1.073871500692706
H       4.944192748960942      2.341621408168634     -1.073871500692704
H       8.165807251039054      0.481621408168636      1.073871500692704
H       6.184192748961031     -4.489364409554033      1.073871500692708
H       9.405807251039105     -2.629364409553974     -1.073871500692706
H       6.184192748960941      4.489364409554042     -1.073871500692704
H       9.405807251039052      2.629364409554045      1.073871500692706
H       8.415000000000090     -4.633235910246697      0.000000000000003
H       8.414999999999996      4.633235910246747     -0.000000000000001
