56

C       0.000000000000000      0.000000000000000      0.000000000000000
C       1.470000000000000      0.000000000000000      0.000000000000000
C      -0.735000000000000      1.273057343563125      0.000000000000000
C      -0.735000000000000     -1.273057343563125     -0.000000000000000
C       2.170000000000000      0.886719238655580      0.826879067214830
C       2.169999999999998     -0.886719238655581     -0.826879067214831
C      -1.994326673973660      1.354275126212232      0.606217782649106
C      -0.175673326026338      2.404275126212232     -0.606217782649106
C      -0.175673326026341     -2.404275126212231      0.606217782649108
C      -1.994326673973660     -1.354275126212229     -0.606217782649108
C       3.570000000000001      0.886719238655581      0.826879067214829
C       3.569999999999999     -0.886719238655584     -0.826879067214832
C      -2.694326673973660      2.566710691510446      0.606217782649106
C      -0.875673326026338      3.616710691510447     -0.606217782649107
C      -0.875673326026342     -3.616710691510445      0.606217782649108
C      -2.694326673973662     -2.566710691510441     -0.606217782649110
C       4.270000000000001      0.000000000000003     -0.000000000000002
C      -2.135000000000000      3.697928474159553     -0.000000000000001
C      -2.135000000000002     -3.697928474159552      0.000000000000001
C       5.740000000000000      0.000000000000004     -0.000000000000003
C       6.475000000000002     -1.273057343563118     -0.000000000000006
C       6.474999999999998      1.273057343563130     -0.000000000000002
C       5.915673326026345     -2.404275126212226      0.606217782649100
C       7.734326673973662     -1.354275126212222     -0.606217782649114
C       5.915673326026335      2.404275126212237     -0.606217782649109
C       7.734326673973658      1.354275126212239      0.606217782649104
C       6.615673326026347     -3.616710691510439      0.606217782649098
C       8.434326673973665     -2.566710691510435     -0.606217782649116
C       6.615673326026331      3.616710691510452     -0.606217782649108
C       8.434326673973656      2.566710691510454      0.606217782649106
C       7.875000000000005     -3.697928474159542     -0.000000000000010
C       7.874999999999992      3.697928474159561     -0.000000000000001
H       1.630000000000000      1.570759794189885      1.464757204780557
H       1.629999999999997     -1.570759794189886     -1.464757204780556
H      -2.425807251039056      0.481621408168635      1.073871500692702
H       0.795807251039057      2.341621408168635     -1.073871500692702
H       0.795807251039054     -2.341621408168634      1.073871500692706
H      -2.425807251039053     -0.481621408168631     -1.073871500692704
H       4.109999999999999      1.570759794189886      1.464757204780555
H       4.109999999999997     -1.570759794189891     -1.464757204780558
H      -3.665807251039056      2.629364409554043      1.073871500692702
H      -0.444192748960942      4.489364409554043     -1.073871500692703
H      -0.444192748960947     -4.489364409554041      1.073871500692706
H      -3.665807251039058     -2.629364409554036     -1.073871500692708
H      -2.675000000000000      4.633235910246746     -0.000000000000001
H      -2.675000000000002     -4.633235910246746     -0.000000000000001
H       4.944192748960949     -2.341621408168631      1.073871500692698
H       8.165807251039055     -0.481621408168623     -1.073871500692710
H       4.944192748960940      2.341621408168638     -1.073871500692706
H       8.165807251039055      0.481621408168643      1.073871500692700
H       6.184192748960953     -4.489364409554037      1.073871500692694
H       9.405807251039059     -2.629364409554030     -1.073871500692713
H       6.184192748960935      4.489364409554049     -1.073871500692705
H       9.405807251039050      2.629364409554052      1.073871500692702
H       8.415000000000008     -4.633235910246733     -0.000000000000011
H       8.414999999999990      4.633235910246756     -0.000000000000001
