56

C       0.000000000000000      0.000000000000000      0.000000000000000
C       1.470000000000000      0.000000000000000      0.000000000000000
C      -0.735000000000000      1.273057343563125      0.000000000000000
C      -0.735000000000000     -1.273057343563125     -0.000000000000000
C       2.170000000000000     -0.857321409974112      0.857321409974112
C       2.170000000000000      0.857321409974112     -0.857321409974112
C      -1.994326673973660      1.354275126212232      0.606217782649106
C      -0.175673326026339      2.404275126212232     -0.606217782649106
C      -0.175673326026335     -2.404275126212228      0.606217782649108
C      -1.994326673973660     -1.354275126212231     -0.606217782649108
C       3.570000000000000     -0.857321409974112      0.857321409974112
C       3.570000000000000      0.857321409974113     -0.857321409974112
C      -2.694326673973661      2.566710691510447      0.606217782649107
C      -0.875673326026338      3.616710691510446     -0.606217782649106
C      -0.875673326026330     -3.616710691510445      0.606217782649110
C      -2.694326673973660     -2.566710691510444     -0.606217782649108
C       4.270000000000000      0.000000000000000     -0.000000000000001
C      -2.135000000000000      3.697928474159554      0.000000000000000
C      -2.134999999999990     -3.697928474159557      0.000000000000003
C       5.740000000000001      0.000000000000000     -0.000000000000001
C       6.475000000000001     -1.273057343563125     -0.000000000000002
C       6.475000000000001      1.273057343563125     -0.000000000000001
C       5.915673326026341     -2.404275126212233      0.606217782649105
C       7.734326673973662     -1.354275126212231     -0.606217782649108
C       5.915673326026341      2.404275126212232     -0.606217782649109
C       7.734326673973662      1.354275126212232      0.606217782649106
C       6.615673326026340     -3.616710691510447      0.606217782649104
C       8.434326673973661     -2.566710691510445     -0.606217782649109
C       6.615673326026341      3.616710691510447     -0.606217782649109
C       8.434326673973661      2.566710691510447      0.606217782649106
C       7.875000000000001     -3.697928474159554     -0.000000000000004
C       7.875000000000002      3.697928474159554     -0.000000000000000
H       1.630000000000001     -1.518683640525570      1.518683640525571
H       1.630000000000000      1.518683640525571     -1.518683640525570
H      -2.425807251039057      0.481621408168636      1.073871500692703
H       0.795807251039057      2.341621408168635     -1.073871500692703
H       0.795807251039061     -2.341621408168627      1.073871500692703
H      -2.425807251039054     -0.481621408168633     -1.073871500692704
H       4.110000000000001     -1.518683640525570      1.518683640525570
H       4.109999999999999      1.518683640525571     -1.518683640525571
H      -3.665807251039057      2.629364409554044      1.073871500692704
H      -0.444192748960943      4.489364409554043     -1.073871500692702
H      -0.444192748960931     -4.489364409554039      1.073871500692707
H      -3.665807251039055     -2.629364409554039     -1.073871500692705
H      -2.674999999999999      4.633235910246747      0.000000000000001
H      -2.674999999999986     -4.633235910246753      0.000000000000006
H       4.944192748960945     -2.341621408168637      1.073871500692702
H       8.165807251039059     -0.481621408168634     -1.073871500692705
H       4.944192748960946      2.341621408168635     -1.073871500692707
H       8.165807251039057      0.481621408168635      1.073871500692702
H       6.184192748960945     -4.489364409554044      1.073871500692700
H       9.405807251039057     -2.629364409554042     -1.073871500692706
H       6.184192748960946      4.489364409554043     -1.073871500692706
H       9.405807251039057      2.629364409554043      1.073871500692702
H       8.414999999999999     -4.633235910246748     -0.000000000000004
H       8.415000000000003      4.633235910246747      0.000000000000000
