56

C       0.000000000000000      0.000000000000000      0.000000000000000
C       1.470000000000000      0.000000000000000      0.000000000000000
C      -0.735000000000007      1.273057343563121      0.000000000000000
C      -0.735000000000000     -1.273057343563125     -0.000000000000000
C       2.170000000000000      0.454186356852660      1.124150680847060
C       2.169999999999999     -0.454186356852660     -1.124150680847060
C      -1.994326673973668      1.354275126212221      0.606217782649107
C      -0.175673326026354      2.404275126212232     -0.606217782649106
C      -0.175673326026341     -2.404275126212232      0.606217782649108
C      -1.994326673973660     -1.354275126212236     -0.606217782649108
C       3.570000000000000      0.454186356852660      1.124150680847061
C       3.569999999999999     -0.454186356852660     -1.124150680847061
C      -2.694326673973674      2.566710691510432      0.606217782649106
C      -0.875673326026362      3.616710691510442     -0.606217782649105
C      -0.875673326026341     -3.616710691510446      0.606217782649108
C      -2.694326673973657     -2.566710691510451     -0.606217782649107
C       4.270000000000000      0.000000000000001      0.000000000000002
C      -2.135000000000019      3.697928474159541     -0.000000000000000
C      -2.135000000000001     -3.697928474159553     -0.000000000000001
C       5.740000000000000      0.000000000000001      0.000000000000003
C       6.475000000000001     -1.273057343563124      0.000000000000005
C       6.474999999999999      1.273057343563126      0.000000000000002
C       5.915673326026341     -2.404275126212230      0.606217782649114
C       7.734326673973663     -1.354275126212231     -0.606217782649101
C       5.915673326026337      2.404275126212231     -0.606217782649107
C       7.734326673973658      1.354275126212234      0.606217782649110
C       6.615673326026342     -3.616710691510443      0.606217782649117
C       8.434326673973663     -2.566710691510444     -0.606217782649099
C       6.615673326026335      3.616710691510445     -0.606217782649108
C       8.434326673973658      2.566710691510449      0.606217782649109
C       7.875000000000004     -3.697928474159549      0.000000000000012
C       7.874999999999995      3.697928474159555      0.000000000000000
H       1.630000000000000      0.804558689281854      1.991352634643364
H       1.629999999999999     -0.804558689281854     -1.991352634643363
H      -2.425807251039060      0.481621408168622      1.073871500692703
H       0.795807251039042      2.341621408168642     -1.073871500692703
H       0.795807251039054     -2.341621408168636      1.073871500692706
H      -2.425807251039057     -0.481621408168640     -1.073871500692707
H       4.109999999999999      0.804558689281855      1.991352634643365
H       4.109999999999999     -0.804558689281854     -1.991352634643365
H      -3.665807251039070      2.629364409554025      1.073871500692702
H      -0.444192748960972      4.489364409554042     -1.073871500692701
H      -0.444192748960947     -4.489364409554043      1.073871500692706
H      -3.665807251039052     -2.629364409554051     -1.073871500692704
H      -2.675000000000025      4.633235910246731      0.000000000000000
H      -2.675000000000001     -4.633235910246746     -0.000000000000002
H       4.944192748960945     -2.341621408168633      1.073871500692710
H       8.165807251039059     -0.481621408168634     -1.073871500692698
H       4.944192748960942      2.341621408168632     -1.073871500692705
H       8.165807251039054      0.481621408168638      1.073871500692710
H       6.184192748960947     -4.489364409554039      1.073871500692715
H       9.405807251039061     -2.629364409554041     -1.073871500692695
H       6.184192748960939      4.489364409554041     -1.073871500692706
H       9.405807251039052      2.629364409554046      1.073871500692707
H       8.415000000000006     -4.633235910246742      0.000000000000014
H       8.414999999999994      4.633235910246751      0.000000000000000
