56

C       0.000000000000000      0.000000000000000      0.000000000000000
C       1.470000000000000      0.000000000000000      0.000000000000000
C      -0.735000000000000      1.273057343563125      0.000000000000000
C      -0.735000000000000     -1.273057343563125     -0.000000000000000
C       2.170000000000000      0.677985364030305      1.005154637934231
C       2.170000000000000     -0.677985364030304     -1.005154637934232
C      -1.994326673973660      1.354275126212232      0.606217782649106
C      -0.175673326026338      2.404275126212231     -0.606217782649106
C      -0.175673326026339     -2.404275126212231      0.606217782649108
C      -1.994326673973660     -1.354275126212231     -0.606217782649108
C       3.570000000000000      0.677985364030304      1.005154637934231
C       3.570000000000000     -0.677985364030303     -1.005154637934232
C      -2.694326673973661      2.566710691510446      0.606217782649107
C      -0.875673326026338      3.616710691510446     -0.606217782649108
C      -0.875673326026338     -3.616710691510447      0.606217782649109
C      -2.694326673973660     -2.566710691510444     -0.606217782649110
C       4.270000000000000     -0.000000000000000      0.000000000000000
C      -2.135000000000001      3.697928474159553      0.000000000000000
C      -2.134999999999998     -3.697928474159555      0.000000000000001
C       5.740000000000000     -0.000000000000000      0.000000000000000
C       6.475000000000000     -1.273057343563126      0.000000000000001
C       6.474999999999999      1.273057343563126      0.000000000000000
C       5.915673326026338     -2.404275126212232      0.606217782649109
C       7.734326673973660     -1.354275126212233     -0.606217782649107
C       5.915673326026337      2.404275126212232     -0.606217782649108
C       7.734326673973658      1.354275126212234      0.606217782649108
C       6.615673326026338     -3.616710691510446      0.606217782649110
C       8.434326673973660     -2.566710691510446     -0.606217782649108
C       6.615673326026335      3.616710691510447     -0.606217782649108
C       8.434326673973658      2.566710691510448      0.606217782649108
C       7.874999999999998     -3.697928474159554      0.000000000000003
C       7.874999999999996      3.697928474159555     -0.000000000000001
H       1.630000000000000      1.201002644853682      1.780559644340638
H       1.630000000000000     -1.201002644853681     -1.780559644340639
H      -2.425807251039056      0.481621408168635      1.073871500692703
H       0.795807251039058      2.341621408168633     -1.073871500692702
H       0.795807251039056     -2.341621408168633      1.073871500692706
H      -2.425807251039055     -0.481621408168633     -1.073871500692703
H       4.110000000000000      1.201002644853682      1.780559644340638
H       4.110000000000000     -1.201002644853681     -1.780559644340639
H      -3.665807251039056      2.629364409554043      1.073871500692704
H      -0.444192748960942      4.489364409554042     -1.073871500692704
H      -0.444192748960942     -4.489364409554042      1.073871500692707
H      -3.665807251039055     -2.629364409554038     -1.073871500692707
H      -2.675000000000001      4.633235910246746      0.000000000000000
H      -2.674999999999998     -4.633235910246750      0.000000000000000
H       4.944192748960943     -2.341621408168634      1.073871500692706
H       8.165807251039055     -0.481621408168635     -1.073871500692704
H       4.944192748960941      2.341621408168633     -1.073871500692705
H       8.165807251039052      0.481621408168639      1.073871500692705
H       6.184192748960943     -4.489364409554041      1.073871500692707
H       9.405807251039054     -2.629364409554043     -1.073871500692705
H       6.184192748960938      4.489364409554044     -1.073871500692706
H       9.405807251039054      2.629364409554046      1.073871500692705
H       8.414999999999999     -4.633235910246748      0.000000000000004
H       8.414999999999996      4.633235910246749     -0.000000000000001
