56

C       0.000000000000000      0.000000000000000      0.000000000000000
C       1.470000000000000      0.000000000000000      0.000000000000000
C      -0.735000000000000      1.273057343563125      0.000000000000000
C      -0.735000000000000     -1.273057343563125     -0.000000000000000
C       2.170000000000000      0.695424470849016      0.993169071882712
C       2.170000000000000     -0.695424470849016     -0.993169071882711
C      -1.994326673973661      1.354275126212231      0.606217782649107
C      -0.175673326026338      2.404275126212232     -0.606217782649106
C      -0.175673326026339     -2.404275126212231      0.606217782649108
C      -1.994326673973660     -1.354275126212230     -0.606217782649107
C       3.570000000000000      0.695424470849016      0.993169071882711
C       3.569999999999999     -0.695424470849016     -0.993169071882710
C      -2.694326673973662      2.566710691510445      0.606217782649107
C      -0.875673326026338      3.616710691510446     -0.606217782649106
C      -0.875673326026338     -3.616710691510446      0.606217782649108
C      -2.694326673973661     -2.566710691510444     -0.606217782649109
C       4.270000000000000      0.000000000000001     -0.000000000000001
C      -2.135000000000002      3.697928474159552      0.000000000000001
C      -2.134999999999997     -3.697928474159554     -0.000000000000001
C       5.739999999999999      0.000000000000001     -0.000000000000003
C       6.474999999999908     -1.273057343563176     -0.000000000000007
C       6.475000000000003      1.273057343563124      0.000000000000000
C       5.915673326026167     -2.404275126212245      0.606217782649097
C       7.734326673973562     -1.354275126212372     -0.606217782649116
C       5.915673326026346      2.404275126212234     -0.606217782649104
C       7.734326673973664      1.354275126212226      0.606217782649108
C       6.615673326026080     -3.616710691510510      0.606217782649092
C       8.434326673973475     -2.566710691510637     -0.606217782649120
C       6.615673326026350      3.616710691510446     -0.606217782649101
C       8.434326673973667      2.566710691510438      0.606217782649110
C       7.874999999999734     -3.697928474159704     -0.000000000000017
C       7.875000000000012      3.697928474159546      0.000000000000006
H       1.630000000000000      1.231894776932542      1.759328070192232
H       1.629999999999999     -1.231894776932542     -1.759328070192232
H      -2.425807251039056      0.481621408168633      1.073871500692703
H       0.795807251039058      2.341621408168635     -1.073871500692702
H       0.795807251039057     -2.341621408168633      1.073871500692706
H      -2.425807251039054     -0.481621408168633     -1.073871500692704
H       4.110000000000000      1.231894776932544      1.759328070192231
H       4.110000000000000     -1.231894776932541     -1.759328070192231
H      -3.665807251039057      2.629364409554040      1.073871500692704
H      -0.444192748960943      4.489364409554043     -1.073871500692702
H      -0.444192748960942     -4.489364409554042      1.073871500692706
H      -3.665807251039056     -2.629364409554040     -1.073871500692706
H      -2.675000000000002      4.633235910246746      0.000000000000001
H      -2.674999999999997     -4.633235910246749     -0.000000000000001
H       4.944192748960776     -2.341621408168580      1.073871500692695
H       8.165807251039018     -0.481621408168805     -1.073871500692711
H       4.944192748960951      2.341621408168641     -1.073871500692701
H       8.165807251039055      0.481621408168628      1.073871500692702
H       6.184192748960623     -4.489364409554077      1.073871500692687
H       9.405807251038864     -2.629364409554303     -1.073871500692718
H       6.184192748960957      4.489364409554044     -1.073871500692695
H       9.405807251039063      2.629364409554031      1.073871500692707
H       8.414999999999667     -4.633235910246936     -0.000000000000021
H       8.415000000000015      4.633235910246738      0.000000000000009
