56

C       0.000000000000000      0.000000000000000      0.000000000000000
C       1.470000000000000      0.000000000000000      0.000000000000000
C      -0.734999999999991      1.273057343563130      0.000000000000000
C      -0.735000000000001     -1.273057343563125     -0.000000000000000
C       2.170000000000000      0.942239403098306      0.763010424076203
C       2.170000000000000     -0.942239403098306     -0.763010424076203
C      -1.994326673973652      1.354275126212243      0.606217782649107
C      -0.175673326026323      2.404275126212233     -0.606217782649106
C      -0.175673326026340     -2.404275126212231      0.606217782649108
C      -1.994326673973661     -1.354275126212231     -0.606217782649107
C       3.569999999999999      0.942239403098306      0.763010424076202
C       3.569999999999999     -0.942239403098306     -0.763010424076202
C      -2.694326673973645      2.566710691510462      0.606217782649107
C      -0.875673326026315      3.616710691510452     -0.606217782649106
C      -0.875673326026340     -3.616710691510445      0.606217782649108
C      -2.694326673973661     -2.566710691510445     -0.606217782649107
C       4.269999999999998     -0.000000000000002     -0.000000000000001
C      -2.134999999999978      3.697928474159566      0.000000000000000
C      -2.135000000000000     -3.697928474159551      0.000000000000001
C       5.739999999999998     -0.000000000000003     -0.000000000000003
C       6.474999999999998     -1.273057343563128     -0.000000000000009
C       6.474999999999996      1.273057343563123      0.000000000000001
C       5.915673326026337     -2.404275126212237      0.606217782649094
C       7.734326673973658     -1.354275126212233     -0.606217782649118
C       5.915673326026332      2.404275126212231     -0.606217782649099
C       7.734326673973659      1.354275126212229      0.606217782649106
C       6.615673326026336     -3.616710691510452      0.606217782649088
C       8.434326673973658     -2.566710691510447     -0.606217782649124
C       6.615673326026331      3.616710691510447     -0.606217782649095
C       8.434326673973658      2.566710691510444      0.606217782649110
C       7.874999999999995     -3.697928474159558     -0.000000000000021
C       7.874999999999993      3.697928474159552      0.000000000000008
H       1.630000000000000      1.669109799774144      1.351618465506415
H       1.630000000000000     -1.669109799774143     -1.351618465506416
H      -2.425807251039052      0.481621408168649      1.073871500692703
H       0.795807251039073      2.341621408168629     -1.073871500692703
H       0.795807251039056     -2.341621408168633      1.073871500692705
H      -2.425807251039056     -0.481621408168634     -1.073871500692704
H       4.109999999999999      1.669109799774142      1.351618465506416
H       4.110000000000001     -1.669109799774142     -1.351618465506416
H      -3.665807251039040      2.629364409554064      1.073871500692703
H      -0.444192748960913      4.489364409554046     -1.073871500692702
H      -0.444192748960945     -4.489364409554041      1.073871500692706
H      -3.665807251039057     -2.629364409554042     -1.073871500692704
H      -2.674999999999972      4.633235910246763      0.000000000000001
H      -2.675000000000000     -4.633235910246746      0.000000000000002
H       4.944192748960943     -2.341621408168642      1.073871500692692
H       8.165807251039052     -0.481621408168635     -1.073871500692712
H       4.944192748960935      2.341621408168635     -1.073871500692694
H       8.165807251039059      0.481621408168630      1.073871500692696
H       6.184192748960940     -4.489364409554051      1.073871500692681
H       9.405807251039052     -2.629364409554042     -1.073871500692723
H       6.184192748960933      4.489364409554045     -1.073871500692686
H       9.405807251039054      2.629364409554039      1.073871500692704
H       8.414999999999992     -4.633235910246753     -0.000000000000026
H       8.414999999999992      4.633235910246746      0.000000000000012
