56

C       0.000000000000000      0.000000000000000      0.000000000000000
C       1.470000000000000      0.000000000000000      0.000000000000000
C      -0.735000000000000      1.273057343563125      0.000000000000000
C      -0.735000000000000     -1.273057343563125     -0.000000000000000
C       2.170000000000003      0.587800425985379      1.060420039046510
C       2.170000000000000     -0.587800425985380     -1.060420039046512
C      -1.994326673973660      1.354275126212230      0.606217782649107
C      -0.175673326026339      2.404275126212231     -0.606217782649106
C      -0.175673326026340     -2.404275126212232      0.606217782649107
C      -1.994326673973661     -1.354275126212232     -0.606217782649107
C       3.570000000000003      0.587800425985378      1.060420039046506
C       3.569999999999999     -0.587800425985379     -1.060420039046511
C      -2.694326673973661      2.566710691510444      0.606217782649108
C      -0.875673326026338      3.616710691510446     -0.606217782649106
C      -0.875673326026340     -3.616710691510445      0.606217782649107
C      -2.694326673973661     -2.566710691510446     -0.606217782649107
C       4.270000000000000     -0.000000000000003     -0.000000000000008
C      -2.135000000000001      3.697928474159553      0.000000000000002
C      -2.135000000000000     -3.697928474159551      0.000000000000001
C       5.740000000000000     -0.000000000000005     -0.000000000000013
C       6.474999999999998     -1.273057343563131     -0.000000000000024
C       6.475000000000001      1.273057343563118     -0.000000000000006
C       5.915673326026337     -2.404275126212242      0.606217782649077
C       7.734326673973657     -1.354275126212237     -0.606217782649136
C       5.915673326026341      2.404275126212230     -0.606217782649103
C       7.734326673973664      1.354275126212219      0.606217782649099
C       6.615673326026334     -3.616710691510458      0.606217782649066
C       8.434326673973654     -2.566710691510452     -0.606217782649145
C       6.615673326026342      3.616710691510443     -0.606217782649096
C       8.434326673973665      2.566710691510432      0.606217782649106
C       7.874999999999992     -3.697928474159563     -0.000000000000046
C       7.875000000000005      3.697928474159544      0.000000000000008
H       1.630000000000006      1.041246468888388      1.878458354882392
H       1.629999999999999     -1.041246468888386     -1.878458354882392
H      -2.425807251039055      0.481621408168633      1.073871500692703
H       0.795807251039057      2.341621408168634     -1.073871500692702
H       0.795807251039056     -2.341621408168635      1.073871500692703
H      -2.425807251039057     -0.481621408168635     -1.073871500692703
H       4.110000000000006      1.041246468888385      1.878458354882385
H       4.110000000000000     -1.041246468888386     -1.878458354882392
H      -3.665807251039056      2.629364409554039      1.073871500692705
H      -0.444192748960943      4.489364409554042     -1.073871500692702
H      -0.444192748960944     -4.489364409554042      1.073871500692703
H      -3.665807251039057     -2.629364409554043     -1.073871500692703
H      -2.675000000000002      4.633235910246746      0.000000000000003
H      -2.675000000000000     -4.633235910246746      0.000000000000002
H       4.944192748960942     -2.341621408168646      1.073871500692678
H       8.165807251039052     -0.481621408168637     -1.073871500692728
H       4.944192748960944      2.341621408168637     -1.073871500692698
H       8.165807251039059      0.481621408168618      1.073871500692690
H       6.184192748960938     -4.489364409554058      1.073871500692658
H       9.405807251039047     -2.629364409554048     -1.073871500692746
H       6.184192748960946      4.489364409554043     -1.073871500692685
H       9.405807251039061      2.629364409554025      1.073871500692700
H       8.414999999999990     -4.633235910246759     -0.000000000000056
H       8.415000000000006      4.633235910246738      0.000000000000013
