56

C       0.000000000000000      0.000000000000000      0.000000000000000
C       1.470000000000000      0.000000000000000      0.000000000000000
C      -0.735000000000001      1.273057343563124      0.000000000000000
C      -0.735000000000000     -1.273057343563125     -0.000000000000000
C       2.170000000000000     -0.252079528388737      1.185940939240783
C       2.170000000000000      0.252079528388738     -1.185940939240783
C      -1.994326673973662      1.354275126212231      0.606217782649107
C      -0.175673326026341      2.404275126212232     -0.606217782649106
C      -0.175673326026339     -2.404275126212231      0.606217782649108
C      -1.994326673973660     -1.354275126212233     -0.606217782649107
C       3.569999999999999     -0.252079528388738      1.185940939240782
C       3.569999999999999      0.252079528388739     -1.185940939240783
C      -2.694326673973663      2.566710691510444      0.606217782649107
C      -0.875673326026343      3.616710691510446     -0.606217782649106
C      -0.875673326026339     -3.616710691510446      0.606217782649108
C      -2.694326673973659     -2.566710691510448     -0.606217782649106
C       4.269999999999999     -0.000000000000002     -0.000000000000001
C      -2.135000000000003      3.697928474159552      0.000000000000001
C      -2.134999999999999     -3.697928474159554     -0.000000000000000
C       5.739999999999998     -0.000000000000002     -0.000000000000001
C       6.475000000000000     -1.273057343563126     -0.000000000000002
C       6.474999999999998      1.273057343563123     -0.000000000000001
C       5.915673326026340     -2.404275126212234      0.606217782649105
C       7.734326673973660     -1.354275126212231     -0.606217782649109
C       5.915673326026337      2.404275126212229     -0.606217782649107
C       7.734326673973658      1.354275126212230      0.606217782649105
C       6.615673326026340     -3.616710691510447      0.606217782649104
C       8.434326673973661     -2.566710691510444     -0.606217782649111
C       6.615673326026336      3.616710691510443     -0.606217782649107
C       8.434326673973658      2.566710691510444      0.606217782649107
C       7.875000000000002     -3.697928474159553     -0.000000000000004
C       7.874999999999996      3.697928474159550     -0.000000000000001
H       1.630000000000000     -0.446540878860051      2.100809663797959
H       1.630000000000000      0.446540878860050     -2.100809663797959
H      -2.425807251039057      0.481621408168634      1.073871500692703
H       0.795807251039054      2.341621408168637     -1.073871500692704
H       0.795807251039055     -2.341621408168634      1.073871500692706
H      -2.425807251039056     -0.481621408168636     -1.073871500692704
H       4.110000000000000     -0.446540878860050      2.100809663797958
H       4.109999999999999      0.446540878860051     -2.100809663797959
H      -3.665807251039058      2.629364409554040      1.073871500692704
H      -0.444192748960949      4.489364409554043     -1.073871500692702
H      -0.444192748960943     -4.489364409554041      1.073871500692706
H      -3.665807251039055     -2.629364409554046     -1.073871500692702
H      -2.675000000000003      4.633235910246746      0.000000000000000
H      -2.674999999999999     -4.633235910246748     -0.000000000000000
H       4.944192748960944     -2.341621408168638      1.073871500692702
H       8.165807251039054     -0.481621408168633     -1.073871500692706
H       4.944192748960941      2.341621408168632     -1.073871500692704
H       8.165807251039055      0.481621408168633      1.073871500692701
H       6.184192748960946     -4.489364409554045      1.073871500692700
H       9.405807251039057     -2.629364409554039     -1.073871500692708
H       6.184192748960941      4.489364409554040     -1.073871500692703
H       9.405807251039054      2.629364409554040      1.073871500692703
H       8.415000000000003     -4.633235910246746     -0.000000000000007
H       8.414999999999996      4.633235910246744      0.000000000000000
