56

C       0.000000000000000      0.000000000000000      0.000000000000000
C       1.470000000000000      0.000000000000000      0.000000000000000
C      -0.735000000000000      1.273057343563125      0.000000000000000
C      -0.734999999999996     -1.273057343563127     -0.000000000000000
C       2.170000000000000     -0.063453974692836      1.210773964493654
C       2.170000000000000      0.063453974692837     -1.210773964493655
C      -1.994326673973661      1.354275126212233      0.606217782649106
C      -0.175673326026339      2.404275126212232     -0.606217782649106
C      -0.175673326026331     -2.404275126212231      0.606217782649108
C      -1.994326673973656     -1.354275126212237     -0.606217782649108
C       3.569999999999999     -0.063453974692837      1.210773964493654
C       3.570000000000000      0.063453974692837     -1.210773964493656
C      -2.694326673973659      2.566710691510448      0.606217782649107
C      -0.875673326026339      3.616710691510446     -0.606217782649105
C      -0.875673326026327     -3.616710691510447      0.606217782649110
C      -2.694326673973652     -2.566710691510454     -0.606217782649108
C       4.270000000000000     -0.000000000000002     -0.000000000000001
C      -2.134999999999996      3.697928474159554      0.000000000000001
C      -2.134999999999987     -3.697928474159561      0.000000000000002
C       5.739999999999999     -0.000000000000003     -0.000000000000001
C       6.474999999999996     -1.273057343563130      0.000000000000000
C       6.475000000000001      1.273057343563120     -0.000000000000001
C       5.915673326026333     -2.404275126212235      0.606217782649109
C       7.734326673973656     -1.354275126212240     -0.606217782649107
C       5.915673326026343      2.404275126212227     -0.606217782649109
C       7.734326673973662      1.354275126212225      0.606217782649106
C       6.615673326026331     -3.616710691510451      0.606217782649110
C       8.434326673973652     -2.566710691510456     -0.606217782649108
C       6.615673326026345      3.616710691510440     -0.606217782649110
C       8.434326673973663      2.566710691510438      0.606217782649107
C       7.874999999999990     -3.697928474159561      0.000000000000002
C       7.875000000000005      3.697928474159546     -0.000000000000004
H       1.630000000000000     -0.112404183741597      2.144799594245902
H       1.630000000000000      0.112404183741597     -2.144799594245903
H      -2.425807251039058      0.481621408168637      1.073871500692703
H       0.795807251039056      2.341621408168635     -1.073871500692703
H       0.795807251039064     -2.341621408168629      1.073871500692706
H      -2.425807251039053     -0.481621408168641     -1.073871500692705
H       4.109999999999999     -0.112404183741597      2.144799594245901
H       4.109999999999999      0.112404183741598     -2.144799594245904
H      -3.665807251039055      2.629364409554045      1.073871500692703
H      -0.444192748960944      4.489364409554043     -1.073871500692701
H      -0.444192748960927     -4.489364409554042      1.073871500692708
H      -3.665807251039046     -2.629364409554054     -1.073871500692706
H      -2.674999999999995      4.633235910246749      0.000000000000001
H      -2.674999999999984     -4.633235910246755      0.000000000000002
H       4.944192748960938     -2.341621408168634      1.073871500692707
H       8.165807251039054     -0.481621408168645     -1.073871500692705
H       4.944192748960948      2.341621408168632     -1.073871500692705
H       8.165807251039054      0.481621408168627      1.073871500692703
H       6.184192748960933     -4.489364409554047      1.073871500692708
H       9.405807251039048     -2.629364409554054     -1.073871500692705
H       6.184192748960951      4.489364409554039     -1.073871500692707
H       9.405807251039059      2.629364409554033      1.073871500692704
H       8.414999999999987     -4.633235910246756      0.000000000000002
H       8.415000000000008      4.633235910246739     -0.000000000000004
