56

C       0.000000000000000      0.000000000000000      0.000000000000000
C       1.470000000000000      0.000000000000000      0.000000000000000
C      -0.735000000000000      1.273057343563125      0.000000000000000
C      -0.735000000000000     -1.273057343563125     -0.000000000000000
C       2.170000000000000      1.116052822355359      0.473736316649502
C       2.170000000000000     -1.116052822355359     -0.473736316649503
C      -1.994326673973660      1.354275126212233      0.606217782649106
C      -0.175673326026339      2.404275126212233     -0.606217782649106
C      -0.175673326026336     -2.404275126212228      0.606217782649110
C      -1.994326673973660     -1.354275126212231     -0.606217782649108
C       3.570000000000000      1.116052822355360      0.473736316649502
C       3.569999999999999     -1.116052822355359     -0.473736316649503
C      -2.694326673973659      2.566710691510448      0.606217782649106
C      -0.875673326026339      3.616710691510447     -0.606217782649106
C      -0.875673326026331     -3.616710691510445      0.606217782649111
C      -2.694326673973660     -2.566710691510444     -0.606217782649108
C       4.270000000000000      0.000000000000001      0.000000000000000
C      -2.134999999999998      3.697928474159554     -0.000000000000000
C      -2.134999999999990     -3.697928474159557      0.000000000000004
C       5.740000000000000      0.000000000000001      0.000000000000000
C       6.475000000000000     -1.273057343563124     -0.000000000000000
C       6.475000000000000      1.273057343563127      0.000000000000000
C       5.915673326026339     -2.404275126212231      0.606217782649106
C       7.734326673973660     -1.354275126212232     -0.606217782649108
C       5.915673326026338      2.404275126212234     -0.606217782649108
C       7.734326673973659      1.354275126212234      0.606217782649108
C       6.615673326026339     -3.616710691510446      0.606217782649105
C       8.434326673973660     -2.566710691510446     -0.606217782649108
C       6.615673326026337      3.616710691510449     -0.606217782649107
C       8.434326673973658      2.566710691510448      0.606217782649109
C       7.874999999999999     -3.697928474159552     -0.000000000000002
C       7.874999999999996      3.697928474159557      0.000000000000001
H       1.630000000000000      1.977007856743779      0.839190046636261
H       1.630000000000001     -1.977007856743779     -0.839190046636263
H      -2.425807251039056      0.481621408168637      1.073871500692703
H       0.795807251039057      2.341621408168636     -1.073871500692703
H       0.795807251039059     -2.341621408168627      1.073871500692706
H      -2.425807251039054     -0.481621408168633     -1.073871500692704
H       4.110000000000000      1.977007856743780      0.839190046636260
H       4.109999999999999     -1.977007856743779     -0.839190046636263
H      -3.665807251039055      2.629364409554046      1.073871500692703
H      -0.444192748960943      4.489364409554044     -1.073871500692702
H      -0.444192748960933     -4.489364409554040      1.073871500692710
H      -3.665807251039055     -2.629364409554040     -1.073871500692706
H      -2.674999999999997      4.633235910246749     -0.000000000000001
H      -2.674999999999986     -4.633235910246753      0.000000000000006
H       4.944192748960943     -2.341621408168634      1.073871500692704
H       8.165807251039055     -0.481621408168635     -1.073871500692704
H       4.944192748960943      2.341621408168636     -1.073871500692705
H       8.165807251039055      0.481621408168637      1.073871500692704
H       6.184192748960944     -4.489364409554043      1.073871500692702
H       9.405807251039054     -2.629364409554043     -1.073871500692706
H       6.184192748960940      4.489364409554045     -1.073871500692705
H       9.405807251039052      2.629364409554045      1.073871500692706
H       8.414999999999999     -4.633235910246746     -0.000000000000002
H       8.414999999999996      4.633235910246752      0.000000000000001
