56

C       0.000000000000000      0.000000000000000      0.000000000000000
C       1.470000000000000      0.000000000000000      0.000000000000000
C      -0.735000000000001      1.273057343563125      0.000000000000000
C      -0.735000000000000     -1.273057343563125     -0.000000000000000
C       2.169999999999996     -0.168738417336823      1.200636225721459
C       2.170000000000000      0.168738417336822     -1.200636225721456
C      -1.994326673973662      1.354275126212233      0.606217782649106
C      -0.175673326026340      2.404275126212232     -0.606217782649106
C      -0.175673326026339     -2.404275126212231      0.606217782649108
C      -1.994326673973660     -1.354275126212232     -0.606217782649108
C       3.569999999999996     -0.168738417336824      1.200636225721464
C       3.570000000000000      0.168738417336822     -1.200636225721456
C      -2.694326673973661      2.566710691510447      0.606217782649106
C      -0.875673326026341      3.616710691510445     -0.606217782649107
C      -0.875673326026339     -3.616710691510444      0.606217782649108
C      -2.694326673973660     -2.566710691510446     -0.606217782649108
C       4.270000000000001     -0.000000000000002      0.000000000000010
C      -2.134999999999999      3.697928474159554     -0.000000000000001
C      -2.134999999999999     -3.697928474159552      0.000000000000000
C       5.740000000000001     -0.000000000000003      0.000000000000016
C       6.474999999999998     -1.273057343563130      0.000000000000028
C       6.475000000000001      1.273057343563122      0.000000000000010
C       5.915673326026331     -2.404275126212232      0.606217782649139
C       7.734326673973662     -1.354275126212244     -0.606217782649073
C       5.915673326026343      2.404275126212224     -0.606217782649108
C       7.734326673973660      1.354275126212233      0.606217782649121
C       6.615673326026329     -3.616710691510448      0.606217782649150
C       8.434326673973660     -2.566710691510460     -0.606217782649062
C       6.615673326026342      3.616710691510439     -0.606217782649114
C       8.434326673973660      2.566710691510446      0.606217782649115
C       7.874999999999991     -3.697928474159562      0.000000000000053
C       7.875000000000000      3.697928474159551     -0.000000000000003
H       1.629999999999994     -0.298908053568086      2.126841314135152
H       1.630000000000000      0.298908053568084     -2.126841314135152
H      -2.425807251039058      0.481621408168636      1.073871500692703
H       0.795807251039055      2.341621408168636     -1.073871500692703
H       0.795807251039055     -2.341621408168633      1.073871500692707
H      -2.425807251039056     -0.481621408168635     -1.073871500692705
H       4.109999999999992     -0.298908053568087      2.126841314135161
H       4.110000000000001      0.298908053568084     -2.126841314135151
H      -3.665807251039057      2.629364409554044      1.073871500692702
H      -0.444192748960946      4.489364409554041     -1.073871500692703
H      -0.444192748960944     -4.489364409554041      1.073871500692706
H      -3.665807251039054     -2.629364409554042     -1.073871500692706
H      -2.674999999999999      4.633235910246747     -0.000000000000002
H      -2.674999999999998     -4.633235910246746      0.000000000000000
H       4.944192748960933     -2.341621408168630      1.073871500692730
H       8.165807251039062     -0.481621408168651     -1.073871500692672
H       4.944192748960949      2.341621408168624     -1.073871500692708
H       8.165807251039054      0.481621408168639      1.073871500692726
H       6.184192748960928     -4.489364409554042      1.073871500692750
H       9.405807251039057     -2.629364409554062     -1.073871500692653
H       6.184192748960949      4.489364409554032     -1.073871500692718
H       9.405807251039052      2.629364409554047      1.073871500692714
H       8.414999999999990     -4.633235910246757      0.000000000000061
H       8.414999999999999      4.633235910246746     -0.000000000000008
