56

C       0.000000000000000      0.000000000000000      0.000000000000000
C       1.470000000000000      0.000000000000000      0.000000000000000
C      -0.735000000000000      1.273057343563125      0.000000000000000
C      -0.734999999999999     -1.273057343563125     -0.000000000000000
C       2.170000000000001     -0.968294096091416      0.729661937800311
C       2.169999999999999      0.968294096091417     -0.729661937800311
C      -1.994326673973661      1.354275126212232      0.606217782649106
C      -0.175673326026339      2.404275126212232     -0.606217782649106
C      -0.175673326026341     -2.404275126212233      0.606217782649107
C      -1.994326673973660     -1.354275126212233     -0.606217782649107
C       3.570000000000000     -0.968294096091415      0.729661937800310
C       3.569999999999999      0.968294096091417     -0.729661937800311
C      -2.694326673973662      2.566710691510445      0.606217782649107
C      -0.875673326026339      3.616710691510446     -0.606217782649107
C      -0.875673326026342     -3.616710691510446      0.606217782649105
C      -2.694326673973659     -2.566710691510447     -0.606217782649107
C       4.269999999999999      0.000000000000003     -0.000000000000002
C      -2.135000000000002      3.697928474159554      0.000000000000002
C      -2.135000000000002     -3.697928474159549     -0.000000000000004
C       5.739999999999998      0.000000000000005     -0.000000000000002
C       6.475000000000001     -1.273057343563119     -0.000000000000004
C       6.474999999999996      1.273057343563131     -0.000000000000002
C       5.915673326026343     -2.404275126212227      0.606217782649103
C       7.734326673973662     -1.354275126212223     -0.606217782649111
C       5.915673326026333      2.404275126212237     -0.606217782649109
C       7.734326673973655      1.354275126212241      0.606217782649106
C       6.615673326026345     -3.616710691510439      0.606217782649102
C       8.434326673973665     -2.566710691510436     -0.606217782649112
C       6.615673326026331      3.616710691510453     -0.606217782649109
C       8.434326673973652      2.566710691510456      0.606217782649107
C       7.875000000000005     -3.697928474159544     -0.000000000000005
C       7.874999999999990      3.697928474159562     -0.000000000000001
H       1.630000000000002     -1.715263827361939      1.292544004103408
H       1.629999999999999      1.715263827361939     -1.292544004103408
H      -2.425807251039056      0.481621408168634      1.073871500692703
H       0.795807251039057      2.341621408168635     -1.073871500692702
H       0.795807251039054     -2.341621408168637      1.073871500692705
H      -2.425807251039055     -0.481621408168636     -1.073871500692704
H       4.110000000000001     -1.715263827361937      1.292544004103407
H       4.109999999999999      1.715263827361940     -1.292544004103407
H      -3.665807251039057      2.629364409554041      1.073871500692704
H      -0.444192748960943      4.489364409554043     -1.073871500692703
H      -0.444192748960950     -4.489364409554043      1.073871500692702
H      -3.665807251039054     -2.629364409554045     -1.073871500692705
H      -2.675000000000002      4.633235910246747      0.000000000000002
H      -2.675000000000002     -4.633235910246743     -0.000000000000005
H       4.944192748960947     -2.341621408168632      1.073871500692701
H       8.165807251039057     -0.481621408168625     -1.073871500692707
H       4.944192748960938      2.341621408168638     -1.073871500692706
H       8.165807251039052      0.481621408168645      1.073871500692704
H       6.184192748960951     -4.489364409554036      1.073871500692698
H       9.405807251039061     -2.629364409554030     -1.073871500692709
H       6.184192748960934      4.489364409554049     -1.073871500692706
H       9.405807251039047      2.629364409554055      1.073871500692704
H       8.415000000000006     -4.633235910246738     -0.000000000000006
H       8.414999999999988      4.633235910246756     -0.000000000000003
