56

C       0.000000000000000      0.000000000000000      0.000000000000000
C       1.470000000000000      0.000000000000000      0.000000000000000
C      -0.735000000000000      1.273057343563124      0.000000000000000
C      -0.735000000000000     -1.273057343563124     -0.000000000000000
C       2.169999999999999      0.210537226452610      1.194015944733421
C       2.170000000000000     -0.210537226452609     -1.194015944733420
C      -1.994326673973661      1.354275126212231      0.606217782649107
C      -0.175673326026339      2.404275126212232     -0.606217782649106
C      -0.175673326026340     -2.404275126212231      0.606217782649108
C      -1.994326673973660     -1.354275126212235     -0.606217782649108
C       3.569999999999999      0.210537226452610      1.194015944733422
C       3.570000000000000     -0.210537226452609     -1.194015944733420
C      -2.694326673973661      2.566710691510445      0.606217782649107
C      -0.875673326026339      3.616710691510447     -0.606217782649106
C      -0.875673326026340     -3.616710691510445      0.606217782649109
C      -2.694326673973656     -2.566710691510451     -0.606217782649106
C       4.270000000000001      0.000000000000001      0.000000000000003
C      -2.135000000000001      3.697928474159552      0.000000000000001
C      -2.135000000000000     -3.697928474159552      0.000000000000001
C       5.740000000000002      0.000000000000001      0.000000000000005
C       6.475000000000001     -1.273057343563124      0.000000000000010
C       6.475000000000002      1.273057343563125      0.000000000000002
C       5.915673326026339     -2.404275126212228      0.606217782649121
C       7.734326673973662     -1.354275126212233     -0.606217782649095
C       5.915673326026344      2.404275126212230     -0.606217782649109
C       7.734326673973662      1.354275126212235      0.606217782649112
C       6.615673326026339     -3.616710691510444      0.606217782649126
C       8.434326673973661     -2.566710691510447     -0.606217782649091
C       6.615673326026345      3.616710691510444     -0.606217782649111
C       8.434326673973661      2.566710691510449      0.606217782649109
C       7.875000000000000     -3.697928474159554      0.000000000000021
C       7.875000000000004      3.697928474159552     -0.000000000000002
H       1.629999999999999      0.372951658287479      2.115113959242059
H       1.630000000000000     -0.372951658287479     -2.115113959242059
H      -2.425807251039056      0.481621408168634      1.073871500692703
H       0.795807251039056      2.341621408168636     -1.073871500692704
H       0.795807251039055     -2.341621408168633      1.073871500692706
H      -2.425807251039057     -0.481621408168640     -1.073871500692706
H       4.109999999999999      0.372951658287480      2.115113959242062
H       4.109999999999999     -0.372951658287479     -2.115113959242058
H      -3.665807251039057      2.629364409554041      1.073871500692703
H      -0.444192748960942      4.489364409554043     -1.073871500692702
H      -0.444192748960944     -4.489364409554041      1.073871500692708
H      -3.665807251039052     -2.629364409554052     -1.073871500692703
H      -2.675000000000001      4.633235910246746      0.000000000000002
H      -2.674999999999999     -4.633235910246746      0.000000000000001
H       4.944192748960943     -2.341621408168629      1.073871500692717
H       8.165807251039055     -0.481621408168638     -1.073871500692695
H       4.944192748960949      2.341621408168633     -1.073871500692707
H       8.165807251039055      0.481621408168640      1.073871500692714
H       6.184192748960943     -4.489364409554039      1.073871500692726
H       9.405807251039057     -2.629364409554045     -1.073871500692687
H       6.184192748960951      4.489364409554041     -1.073871500692711
H       9.405807251039056      2.629364409554047      1.073871500692708
H       8.414999999999999     -4.633235910246750      0.000000000000025
H       8.415000000000004      4.633235910246745     -0.000000000000003
