56

C       0.000000000000000      0.000000000000000      0.000000000000000
C       1.470000000000000      0.000000000000000      0.000000000000000
C      -0.735000000000000      1.273057343563125      0.000000000000000
C      -0.735000000000000     -1.273057343563125     -0.000000000000000
C       2.169999999999996      1.098839794109956      0.512397411078934
C       2.170000000000001     -1.098839794109954     -0.512397411078934
C      -1.994326673973661      1.354275126212231      0.606217782649107
C      -0.175673326026339      2.404275126212231     -0.606217782649106
C      -0.175673326026346     -2.404275126212236      0.606217782649105
C      -1.994326673973660     -1.354275126212231     -0.606217782649108
C       3.569999999999996      1.098839794109959      0.512397411078936
C       3.570000000000001     -1.098839794109953     -0.512397411078934
C      -2.694326673973662      2.566710691510445      0.606217782649107
C      -0.875673326026338      3.616710691510446     -0.606217782649106
C      -0.875673326026351     -3.616710691510447      0.606217782649102
C      -2.694326673973661     -2.566710691510445     -0.606217782649108
C       4.270000000000000      0.000000000000007      0.000000000000004
C      -2.135000000000003      3.697928474159552     -0.000000000000001
C      -2.135000000000011     -3.697928474159546     -0.000000000000008
C       5.739999999999999      0.000000000000011      0.000000000000005
C       6.475000000000003     -1.273057343563111      0.000000000000008
C       6.474999999999997      1.273057343563138      0.000000000000005
C       5.915673326026346     -2.404275126212218      0.606217782649117
C       7.734326673973665     -1.354275126212215     -0.606217782649098
C       5.915673326026335      2.404275126212243     -0.606217782649104
C       7.734326673973657      1.354275126212248      0.606217782649112
C       6.615673326026350     -3.616710691510430      0.606217782649119
C       8.434326673973668     -2.566710691510428     -0.606217782649095
C       6.615673326026332      3.616710691510459     -0.606217782649105
C       8.434326673973652      2.566710691510465      0.606217782649112
C       7.875000000000012     -3.697928474159534      0.000000000000013
C       7.874999999999991      3.697928474159569      0.000000000000004
H       1.629999999999994      1.946516206709062      0.907675413911254
H       1.630000000000002     -1.946516206709061     -0.907675413911255
H      -2.425807251039056      0.481621408168634      1.073871500692703
H       0.795807251039057      2.341621408168634     -1.073871500692703
H       0.795807251039049     -2.341621408168646      1.073871500692705
H      -2.425807251039055     -0.481621408168634     -1.073871500692704
H       4.109999999999993      1.946516206709068      0.907675413911257
H       4.110000000000003     -1.946516206709059     -0.907675413911255
H      -3.665807251039057      2.629364409554041      1.073871500692704
H      -0.444192748960943      4.489364409554043     -1.073871500692702
H      -0.444192748960960     -4.489364409554047      1.073871500692699
H      -3.665807251039056     -2.629364409554040     -1.073871500692705
H      -2.675000000000003      4.633235910246746     -0.000000000000001
H      -2.675000000000015     -4.633235910246738     -0.000000000000011
H       4.944192748960950     -2.341621408168623      1.073871500692713
H       8.165807251039059     -0.481621408168618     -1.073871500692696
H       4.944192748960940      2.341621408168643     -1.073871500692702
H       8.165807251039054      0.481621408168654      1.073871500692710
H       6.184192748960957     -4.489364409554027      1.073871500692718
H       9.405807251039064     -2.629364409554022     -1.073871500692691
H       6.184192748960935      4.489364409554054     -1.073871500692703
H       9.405807251039047      2.629364409554065      1.073871500692709
H       8.415000000000013     -4.633235910246727      0.000000000000016
H       8.414999999999990      4.633235910246762      0.000000000000004
