56

C       0.000000000000000      0.000000000000000      0.000000000000000
C       1.470000000000000      0.000000000000000      0.000000000000000
C      -0.735000000000000      1.273057343563125      0.000000000000000
C      -0.735000000000000     -1.273057343563125     -0.000000000000000
C       2.169999999999999      1.080287998838721      0.550434228191736
C       2.170000000000000     -1.080287998838720     -0.550434228191736
C      -1.994326673973661      1.354275126212231      0.606217782649106
C      -0.175673326026339      2.404275126212232     -0.606217782649106
C      -0.175673326026352     -2.404275126212240      0.606217782649104
C      -1.994326673973661     -1.354275126212231     -0.606217782649108
C       3.569999999999999      1.080287998838722      0.550434228191737
C       3.570000000000000     -1.080287998838721     -0.550434228191737
C      -2.694326673973661      2.566710691510445      0.606217782649106
C      -0.875673326026339      3.616710691510446     -0.606217782649107
C      -0.875673326026363     -3.616710691510448      0.606217782649095
C      -2.694326673973661     -2.566710691510445     -0.606217782649108
C       4.270000000000000      0.000000000000002      0.000000000000001
C      -2.135000000000000      3.697928474159553     -0.000000000000001
C      -2.135000000000022     -3.697928474159540     -0.000000000000016
C       5.739999999999999      0.000000000000002      0.000000000000000
C       6.475000000000001     -1.273057343563124     -0.000000000000002
C       6.475000000000012      1.273057343563119      0.000000000000001
C       5.915673326026341     -2.404275126212231      0.606217782649104
C       7.734326673973660     -1.354275126212229     -0.606217782649109
C       5.915673326026363      2.404275126212232     -0.606217782649107
C       7.734326673973673      1.354275126212213      0.606217782649109
C       6.615673326026341     -3.616710691510445      0.606217782649103
C       8.434326673973661     -2.566710691510443     -0.606217782649110
C       6.615673326026377      3.616710691510439     -0.606217782649106
C       8.434326673973686      2.566710691510418      0.606217782649110
C       7.875000000000002     -3.697928474159550     -0.000000000000005
C       7.875000000000037      3.697928474159534      0.000000000000001
H       1.629999999999999      1.913653026514305      0.975054918511075
H       1.630000000000001     -1.913653026514305     -0.975054918511076
H      -2.425807251039056      0.481621408168634      1.073871500692703
H       0.795807251039056      2.341621408168635     -1.073871500692703
H       0.795807251039043     -2.341621408168655      1.073871500692704
H      -2.425807251039055     -0.481621408168634     -1.073871500692704
H       4.109999999999999      1.913653026514307      0.975054918511076
H       4.109999999999999     -1.913653026514305     -0.975054918511077
H      -3.665807251039056      2.629364409554042      1.073871500692703
H      -0.444192748960944      4.489364409554042     -1.073871500692703
H      -0.444192748960978     -4.489364409554052      1.073871500692689
H      -3.665807251039057     -2.629364409554041     -1.073871500692704
H      -2.675000000000000      4.633235910246746     -0.000000000000002
H      -2.675000000000029     -4.633235910246729     -0.000000000000023
H       4.944192748960945     -2.341621408168636      1.073871500692702
H       8.165807251039055     -0.481621408168631     -1.073871500692705
H       4.944192748960967      2.341621408168646     -1.073871500692704
H       8.165807251039059      0.481621408168611      1.073871500692706
H       6.184192748960947     -4.489364409554043      1.073871500692698
H       9.405807251039056     -2.629364409554038     -1.073871500692708
H       6.184192748960991      4.489364409554041     -1.073871500692703
H       9.405807251039082      2.629364409554004      1.073871500692708
H       8.415000000000003     -4.633235910246743     -0.000000000000006
H       8.415000000000045      4.633235910246722      0.000000000000001
