56

C       0.000000000000000      0.000000000000000      0.000000000000000
C       1.470000000000000      0.000000000000000      0.000000000000000
C      -0.735000000000000      1.273057343563125      0.000000000000000
C      -0.734999999999998     -1.273057343563126     -0.000000000000000
C       2.169999999999999     -1.181360920307545      0.272738658737834
C       2.169999999999999      1.181360920307544     -0.272738658737834
C      -1.994326673973661      1.354275126212231      0.606217782649107
C      -0.175673326026338      2.404275126212231     -0.606217782649106
C      -0.175673326026337     -2.404275126212232      0.606217782649108
C      -1.994326673973658     -1.354275126212235     -0.606217782649107
C       3.569999999999999     -1.181360920307546      0.272738658737836
C       3.569999999999999      1.181360920307544     -0.272738658737834
C      -2.694326673973661      2.566710691510445      0.606217782649107
C      -0.875673326026337      3.616710691510445     -0.606217782649108
C      -0.875673326026334     -3.616710691510447      0.606217782649108
C      -2.694326673973657     -2.566710691510450     -0.606217782649106
C       4.270000000000001     -0.000000000000003      0.000000000000004
C      -2.135000000000001      3.697928474159553      0.000000000000000
C      -2.134999999999994     -3.697928474159557     -0.000000000000001
C       5.740000000000001     -0.000000000000005      0.000000000000007
C       6.474999999999999     -1.273057343563130      0.000000000000012
C       6.475000000000002      1.273057343563119      0.000000000000004
C       5.915673326026336     -2.404275126212234      0.606217782649122
C       7.734326673973660     -1.354275126212241     -0.606217782649093
C       5.915673326026344      2.404275126212225     -0.606217782649108
C       7.734326673973660      1.354275126212227      0.606217782649113
C       6.615673326026334     -3.616710691510449      0.606217782649127
C       8.434326673973658     -2.566710691510456     -0.606217782649089
C       6.615673326026345      3.616710691510439     -0.606217782649110
C       8.434326673973661      2.566710691510440      0.606217782649111
C       7.874999999999995     -3.697928474159558      0.000000000000021
C       7.875000000000004      3.697928474159546     -0.000000000000002
H       1.629999999999999     -2.092696487401936      0.483137052621306
H       1.629999999999999      2.092696487401935     -0.483137052621306
H      -2.425807251039056      0.481621408168634      1.073871500692703
H       0.795807251039058      2.341621408168634     -1.073871500692703
H       0.795807251039058     -2.341621408168634      1.073871500692706
H      -2.425807251039055     -0.481621408168639     -1.073871500692704
H       4.109999999999998     -2.092696487401938      0.483137052621309
H       4.109999999999999      2.092696487401936     -0.483137052621306
H      -3.665807251039056      2.629364409554041      1.073871500692704
H      -0.444192748960941      4.489364409554041     -1.073871500692704
H      -0.444192748960937     -4.489364409554043      1.073871500692706
H      -3.665807251039053     -2.629364409554049     -1.073871500692702
H      -2.675000000000000      4.633235910246746      0.000000000000000
H      -2.674999999999993     -4.633235910246752      0.000000000000000
H       4.944192748960939     -2.341621408168634      1.073871500692718
H       8.165807251039059     -0.481621408168648     -1.073871500692692
H       4.944192748960949      2.341621408168628     -1.073871500692706
H       8.165807251039054      0.481621408168631      1.073871500692714
H       6.184192748960937     -4.489364409554043      1.073871500692726
H       9.405807251039054     -2.629364409554056     -1.073871500692685
H       6.184192748960951      4.489364409554034     -1.073871500692710
H       9.405807251039056      2.629364409554037      1.073871500692710
H       8.414999999999994     -4.633235910246752      0.000000000000025
H       8.415000000000004      4.633235910246739     -0.000000000000003
