56

C       0.000000000000000      0.000000000000000      0.000000000000000
C       1.470000000000000      0.000000000000000      0.000000000000000
C      -0.734999999999999      1.273057343563125      0.000000000000000
C      -0.735000000000000     -1.273057343563125     -0.000000000000000
C       2.170000000000000     -0.126734026451671      1.205793716412284
C       2.170000000000000      0.126734026451673     -1.205793716412284
C      -1.994326673973660      1.354275126212232      0.606217782649107
C      -0.175673326026337      2.404275126212231     -0.606217782649106
C      -0.175673326026339     -2.404275126212231      0.606217782649107
C      -1.994326673973660     -1.354275126212215     -0.606217782649111
C       3.569999999999999     -0.126734026451671      1.205793716412284
C       3.570000000000000      0.126734026451673     -1.205793716412283
C      -2.694326673973660      2.566710691510446      0.606217782649107
C      -0.875673326026336      3.616710691510446     -0.606217782649106
C      -0.875673326026338     -3.616710691510446      0.606217782649109
C      -2.694326673973672     -2.566710691510422     -0.606217782649119
C       4.269999999999999      0.000000000000001      0.000000000000000
C      -2.134999999999998      3.697928474159554      0.000000000000000
C      -2.134999999999998     -3.697928474159554      0.000000000000003
C       5.739999999999998      0.000000000000002     -0.000000000000000
C       6.475000000000000     -1.273057343563122     -0.000000000000004
C       6.475000000000000      1.273057343563126      0.000000000000002
C       5.915673326026340     -2.404275126212231      0.606217782649101
C       7.734326673973660     -1.354275126212226     -0.606217782649112
C       5.915673326026340      2.404275126212235     -0.606217782649102
C       7.734326673973660      1.354275126212230      0.606217782649109
C       6.615673326026340     -3.616710691510445      0.606217782649097
C       8.434326673973661     -2.566710691510438     -0.606217782649115
C       6.615673326026341      3.616710691510447     -0.606217782649100
C       8.434326673973661      2.566710691510443      0.606217782649112
C       7.875000000000000     -3.697928474159551     -0.000000000000011
C       7.875000000000003      3.697928474159552      0.000000000000006
H       1.630000000000001     -0.224500275428674      2.135977440501760
H       1.630000000000001      0.224500275428678     -2.135977440501760
H      -2.425807251039056      0.481621408168635      1.073871500692703
H       0.795807251039058      2.341621408168634     -1.073871500692703
H       0.795807251039057     -2.341621408168634      1.073871500692704
H      -2.425807251039045     -0.481621408168611     -1.073871500692704
H       4.109999999999999     -0.224500275428674      2.135977440501760
H       4.110000000000001      0.224500275428677     -2.135977440501760
H      -3.665807251039055      2.629364409554042      1.073871500692704
H      -0.444192748960938      4.489364409554041     -1.073871500692703
H      -0.444192748960942     -4.489364409554042      1.073871500692706
H      -3.665807251039066     -2.629364409554006     -1.073871500692719
H      -2.674999999999998      4.633235910246747      0.000000000000000
H      -2.674999999999998     -4.633235910246748      0.000000000000003
H       4.944192748960945     -2.341621408168637      1.073871500692698
H       8.165807251039054     -0.481621408168626     -1.073871500692706
H       4.944192748960945      2.341621408168640     -1.073871500692699
H       8.165807251039055      0.481621408168631      1.073871500692704
H       6.184192748960944     -4.489364409554044      1.073871500692693
H       9.405807251039056     -2.629364409554032     -1.073871500692712
H       6.184192748960947      4.489364409554046     -1.073871500692694
H       9.405807251039056      2.629364409554037      1.073871500692709
H       8.414999999999999     -4.633235910246745     -0.000000000000014
H       8.415000000000003      4.633235910246744      0.000000000000007
