56

C       0.000000000000000      0.000000000000000      0.000000000000000
C       1.470000000000000      0.000000000000000      0.000000000000000
C      -0.735000000000000      1.273057343563125      0.000000000000000
C      -0.735000000000000     -1.273057343563125     -0.000000000000000
C       2.170000000000000     -1.153094744964865      0.374663194261744
C       2.170000000000000      1.153094744964864     -0.374663194261745
C      -1.994326673973660      1.354275126212231      0.606217782649107
C      -0.175673326026339      2.404275126212232     -0.606217782649106
C      -0.175673326026339     -2.404275126212231      0.606217782649108
C      -1.994326673973660     -1.354275126212231     -0.606217782649108
C       3.570000000000000     -1.153094744964865      0.374663194261743
C       3.570000000000000      1.153094744964863     -0.374663194261745
C      -2.694326673973662      2.566710691510445      0.606217782649107
C      -0.875673326026337      3.616710691510446     -0.606217782649106
C      -0.875673326026338     -3.616710691510446      0.606217782649108
C      -2.694326673973660     -2.566710691510445     -0.606217782649109
C       4.269999999999999      0.000000000000000     -0.000000000000003
C      -2.135000000000002      3.697928474159552      0.000000000000000
C      -2.134999999999998     -3.697928474159554     -0.000000000000001
C       5.739999999999998      0.000000000000000     -0.000000000000005
C       6.474999999999997     -1.273057343563126     -0.000000000000008
C       6.474999999999999      1.273057343563124     -0.000000000000003
C       5.915673326026336     -2.404275126212233      0.606217782649097
C       7.734326673973657     -1.354275126212233     -0.606217782649117
C       5.915673326026337      2.404275126212233     -0.606217782649109
C       7.734326673973659      1.354275126212229      0.606217782649103
C       6.615673326026335     -3.616710691510448      0.606217782649094
C       8.434326673973654     -2.566710691510448     -0.606217782649120
C       6.615673326026338      3.616710691510447     -0.606217782649107
C       8.434326673973660      2.566710691510443      0.606217782649106
C       7.874999999999995     -3.697928474159556     -0.000000000000014
C       7.874999999999998      3.697928474159553     -0.000000000000002
H       1.630000000000001     -2.042624976794903      0.663689086977947
H       1.630000000000000      2.042624976794903     -0.663689086977948
H      -2.425807251039056      0.481621408168635      1.073871500692703
H       0.795807251039057      2.341621408168635     -1.073871500692703
H       0.795807251039056     -2.341621408168633      1.073871500692706
H      -2.425807251039054     -0.481621408168634     -1.073871500692705
H       4.110000000000000     -2.042624976794903      0.663689086977946
H       4.110000000000000      2.042624976794902     -0.663689086977948
H      -3.665807251039056      2.629364409554041      1.073871500692703
H      -0.444192748960941      4.489364409554042     -1.073871500692702
H      -0.444192748960943     -4.489364409554042      1.073871500692705
H      -3.665807251039056     -2.629364409554041     -1.073871500692707
H      -2.675000000000002      4.633235910246746      0.000000000000001
H      -2.674999999999997     -4.633235910246747     -0.000000000000001
H       4.944192748960941     -2.341621408168636      1.073871500692695
H       8.165807251039052     -0.481621408168637     -1.073871500692712
H       4.944192748960941      2.341621408168637     -1.073871500692705
H       8.165807251039055      0.481621408168631      1.073871500692697
H       6.184192748960940     -4.489364409554047      1.073871500692690
H       9.405807251039048     -2.629364409554046     -1.073871500692718
H       6.184192748960942      4.489364409554045     -1.073871500692702
H       9.405807251039054      2.629364409554038      1.073871500692702
H       8.414999999999994     -4.633235910246751     -0.000000000000015
H       8.414999999999999      4.633235910246747     -0.000000000000000
