56

C       0.000000000000000      0.000000000000000      0.000000000000000
C       1.470000000000000      0.000000000000000      0.000000000000000
C      -0.735000000000000      1.273057343563125      0.000000000000000
C      -0.735000000000000     -1.273057343563125     -0.000000000000000
C       2.170000000000005     -1.139316753889120      0.414677385816433
C       2.169999999999999      1.139316753889123     -0.414677385816433
C      -1.994326673973660      1.354275126212231      0.606217782649106
C      -0.175673326026339      2.404275126212232     -0.606217782649106
C      -0.175673326026339     -2.404275126212231      0.606217782649108
C      -1.994326673973660     -1.354275126212229     -0.606217782649109
C       3.570000000000005     -1.139316753889114      0.414677385816431
C       3.569999999999999      1.139316753889124     -0.414677385816433
C      -2.694326673973661      2.566710691510444      0.606217782649107
C      -0.875673326026339      3.616710691510446     -0.606217782649106
C      -0.875673326026338     -3.616710691510445      0.606217782649110
C      -2.694326673973663     -2.566710691510442     -0.606217782649111
C       4.270000000000000      0.000000000000012     -0.000000000000004
C      -2.135000000000001      3.697928474159552      0.000000000000001
C      -2.134999999999999     -3.697928474159554      0.000000000000002
C       5.740000000000000      0.000000000000019     -0.000000000000005
C       6.475000000000005     -1.273057343563103     -0.000000000000007
C       6.475000000000000      1.273057343563145     -0.000000000000004
C       5.915673326026349     -2.404275126212212      0.606217782649099
C       7.734326673973666     -1.354275126212205     -0.606217782649116
C       5.915673326026337      2.404275126212253     -0.606217782649110
C       7.734326673973660      1.354275126212252      0.606217782649102
C       6.615673326026354     -3.616710691510424      0.606217782649097
C       8.434326673973670     -2.566710691510417     -0.606217782649117
C       6.615673326026336      3.616710691510467     -0.606217782649109
C       8.434326673973660      2.566710691510466      0.606217782649103
C       7.875000000000015     -3.697928474159526     -0.000000000000011
C       7.874999999999997      3.697928474159574     -0.000000000000003
H       1.630000000000011     -2.018218249746448      0.734571369160539
H       1.629999999999999      2.018218249746447     -0.734571369160539
H      -2.425807251039055      0.481621408168633      1.073871500692703
H       0.795807251039057      2.341621408168635     -1.073871500692702
H       0.795807251039056     -2.341621408168632      1.073871500692706
H      -2.425807251039052     -0.481621408168632     -1.073871500692707
H       4.110000000000009     -2.018218249746434      0.734571369160536
H       4.109999999999999      2.018218249746448     -0.734571369160540
H      -3.665807251039056      2.629364409554039      1.073871500692703
H      -0.444192748960944      4.489364409554044     -1.073871500692702
H      -0.444192748960943     -4.489364409554041      1.073871500692708
H      -3.665807251039058     -2.629364409554036     -1.073871500692710
H      -2.675000000000001      4.633235910246746      0.000000000000002
H      -2.674999999999998     -4.633235910246748      0.000000000000003
H       4.944192748960954     -2.341621408168619      1.073871500692697
H       8.165807251039057     -0.481621408168607     -1.073871500692712
H       4.944192748960942      2.341621408168656     -1.073871500692706
H       8.165807251039057      0.481621408168656      1.073871500692697
H       6.184192748960962     -4.489364409554023      1.073871500692694
H       9.405807251039066     -2.629364409554011     -1.073871500692716
H       6.184192748960939      4.489364409554065     -1.073871500692705
H       9.405807251039054      2.629364409554062      1.073871500692699
H       8.415000000000019     -4.633235910246717     -0.000000000000013
H       8.414999999999997      4.633235910246769     -0.000000000000003
