56

C       0.000000000000000      0.000000000000000      0.000000000000000
C       1.470000000000000      0.000000000000000      0.000000000000000
C      -0.735000000000000      1.273057343563125      0.000000000000000
C      -0.735000000000000     -1.273057343563125     -0.000000000000000
C       2.170000000000000     -0.779338558916987      0.928779527436514
C       2.170000000000000      0.779338558916987     -0.928779527436513
C      -1.994326673973660      1.354275126212232      0.606217782649106
C      -0.175673326026338      2.404275126212232     -0.606217782649106
C      -0.175673326026339     -2.404275126212233      0.606217782649107
C      -1.994326673973660     -1.354275126212231     -0.606217782649107
C       3.570000000000000     -0.779338558916987      0.928779527436513
C       3.570000000000000      0.779338558916987     -0.928779527436513
C      -2.694326673973661      2.566710691510446      0.606217782649107
C      -0.875673326026338      3.616710691510447     -0.606217782649106
C      -0.875673326026339     -3.616710691510447      0.606217782649106
C      -2.694326673973661     -2.566710691510445     -0.606217782649109
C       4.270000000000000      0.000000000000001     -0.000000000000001
C      -2.135000000000001      3.697928474159554      0.000000000000000
C      -2.134999999999999     -3.697928474159554     -0.000000000000002
C       5.740000000000000      0.000000000000000     -0.000000000000002
C       6.475000000000000     -1.273057343563125     -0.000000000000005
C       6.475000000000001      1.273057343563125     -0.000000000000001
C       5.915673326026338     -2.404275126212233      0.606217782649101
C       7.734326673973660     -1.354275126212232     -0.606217782649112
C       5.915673326026340      2.404275126212233     -0.606217782649107
C       7.734326673973662      1.354275126212231      0.606217782649107
C       6.615673326026338     -3.616710691510448      0.606217782649098
C       8.434326673973660     -2.566710691510448     -0.606217782649115
C       6.615673326026341      3.616710691510447     -0.606217782649106
C       8.434326673973663      2.566710691510445      0.606217782649109
C       7.874999999999996     -3.697928474159556     -0.000000000000011
C       7.875000000000002      3.697928474159552      0.000000000000001
H       1.629999999999999     -1.380542590081520      1.645266591458967
H       1.630000000000000      1.380542590081520     -1.645266591458967
H      -2.425807251039056      0.481621408168635      1.073871500692703
H       0.795807251039057      2.341621408168634     -1.073871500692702
H       0.795807251039056     -2.341621408168636      1.073871500692704
H      -2.425807251039055     -0.481621408168634     -1.073871500692704
H       4.110000000000001     -1.380542590081519      1.645266591458967
H       4.110000000000000      1.380542590081520     -1.645266591458967
H      -3.665807251039057      2.629364409554042      1.073871500692704
H      -0.444192748960942      4.489364409554044     -1.073871500692702
H      -0.444192748960944     -4.489364409554044      1.073871500692702
H      -3.665807251039056     -2.629364409554040     -1.073871500692706
H      -2.675000000000000      4.633235910246748      0.000000000000001
H      -2.674999999999998     -4.633235910246748     -0.000000000000002
H       4.944192748960943     -2.341621408168636      1.073871500692698
H       8.165807251039057     -0.481621408168635     -1.073871500692709
H       4.944192748960944      2.341621408168637     -1.073871500692705
H       8.165807251039057      0.481621408168634      1.073871500692702
H       6.184192748960942     -4.489364409554046      1.073871500692693
H       9.405807251039054     -2.629364409554045     -1.073871500692712
H       6.184192748960947      4.489364409554045     -1.073871500692702
H       9.405807251039059      2.629364409554040      1.073871500692706
H       8.414999999999996     -4.633235910246750     -0.000000000000014
H       8.415000000000003      4.633235910246745      0.000000000000002
