56

C       0.000000000000000      0.000000000000000      0.000000000000000
C       1.470000000000000      0.000000000000000      0.000000000000000
C      -0.735000000000000      1.273057343563125      0.000000000000000
C      -0.735000000000000     -1.273057343563125     -0.000000000000000
C       2.170000000000000     -0.746449868868797      0.955412263510238
C       2.170000000000000      0.746449868868797     -0.955412263510238
C      -1.994326673973660      1.354275126212230      0.606217782649107
C      -0.175673326026339      2.404275126212232     -0.606217782649106
C      -0.175673326026339     -2.404275126212231      0.606217782649108
C      -1.994326673973659     -1.354275126212218     -0.606217782649112
C       3.570000000000000     -0.746449868868796      0.955412263510238
C       3.570000000000000      0.746449868868797     -0.955412263510238
C      -2.694326673973661      2.566710691510444      0.606217782649108
C      -0.875673326026339      3.616710691510447     -0.606217782649107
C      -0.875673326026338     -3.616710691510445      0.606217782649108
C      -2.694326673973670     -2.566710691510425     -0.606217782649119
C       4.270000000000000      0.000000000000001      0.000000000000001
C      -2.135000000000002      3.697928474159552      0.000000000000001
C      -2.134999999999998     -3.697928474159553     -0.000000000000000
C       5.740000000000000      0.000000000000002      0.000000000000002
C       6.475000000000001     -1.273057343563122      0.000000000000004
C       6.474999999999999      1.273057343563128      0.000000000000001
C       5.915673326026342     -2.404275126212228      0.606217782649112
C       7.734326673973662     -1.354275126212228     -0.606217782649103
C       5.915673326026337      2.404275126212233     -0.606217782649108
C       7.734326673973658      1.354275126212237      0.606217782649108
C       6.615673326026342     -3.616710691510442      0.606217782649114
C       8.434326673973665     -2.566710691510441     -0.606217782649102
C       6.615673326026335      3.616710691510450     -0.606217782649110
C       8.434326673973656      2.566710691510452      0.606217782649107
C       7.875000000000003     -3.697928474159549      0.000000000000007
C       7.874999999999995      3.697928474159559     -0.000000000000003
H       1.630000000000000     -1.322282624853298      1.692444581075278
H       1.630000000000000      1.322282624853297     -1.692444581075279
H      -2.425807251039055      0.481621408168633      1.073871500692703
H       0.795807251039057      2.341621408168635     -1.073871500692703
H       0.795807251039055     -2.341621408168633      1.073871500692706
H      -2.425807251039044     -0.481621408168615     -1.073871500692707
H       4.109999999999999     -1.322282624853296      1.692444581075278
H       4.109999999999999      1.322282624853298     -1.692444581075279
H      -3.665807251039057      2.629364409554040      1.073871500692705
H      -0.444192748960944      4.489364409554044     -1.073871500692703
H      -0.444192748960943     -4.489364409554042      1.073871500692706
H      -3.665807251039064     -2.629364409554012     -1.073871500692720
H      -2.675000000000003      4.633235910246746      0.000000000000001
H      -2.674999999999997     -4.633235910246747      0.000000000000000
H       4.944192748960946     -2.341621408168632      1.073871500692710
H       8.165807251039057     -0.481621408168632     -1.073871500692702
H       4.944192748960941      2.341621408168634     -1.073871500692705
H       8.165807251039054      0.481621408168642      1.073871500692706
H       6.184192748960947     -4.489364409554040      1.073871500692713
H       9.405807251039061     -2.629364409554036     -1.073871500692699
H       6.184192748960938      4.489364409554045     -1.073871500692707
H       9.405807251039050      2.629364409554051      1.073871500692704
H       8.415000000000003     -4.633235910246743      0.000000000000008
H       8.414999999999994      4.633235910246754     -0.000000000000003
