56

C       0.000000000000000      0.000000000000000      0.000000000000000
C       1.470000000000000      0.000000000000000      0.000000000000000
C      -0.735000000000000      1.273057343563125      0.000000000000000
C      -0.735000000000002     -1.273057343563123     -0.000000000000000
C       2.170000000000000      1.194015944733420      0.210537226452609
C       2.170000000000000     -1.194015944733420     -0.210537226452610
C      -1.994326673973661      1.354275126212231      0.606217782649107
C      -0.175673326026339      2.404275126212231     -0.606217782649106
C      -0.175673326026344     -2.404275126212231      0.606217782649108
C      -1.994326673973662     -1.354275126212228     -0.606217782649107
C       3.570000000000000      1.194015944733420      0.210537226452609
C       3.570000000000000     -1.194015944733420     -0.210537226452610
C      -2.694326673973661      2.566710691510445      0.606217782649107
C      -0.875673326026338      3.616710691510445     -0.606217782649107
C      -0.875673326026346     -3.616710691510444      0.606217782649108
C      -2.694326673973664     -2.566710691510441     -0.606217782649107
C       4.270000000000000     -0.000000000000002     -0.000000000000000
C      -2.135000000000001      3.697928474159552     -0.000000000000000
C      -2.135000000000005     -3.697928474159549     -0.000000000000000
C       5.739999999999999     -0.000000000000003      0.000000000000000
C       6.474999999999998     -1.273057343563128      0.000000000000001
C       6.475000000000001      1.273057343563121     -0.000000000000000
C       5.915673326026337     -2.404275126212234      0.606217782649110
C       7.734326673973658     -1.354275126212237     -0.606217782649108
C       5.915673326026341      2.404275126212228     -0.606217782649108
C       7.734326673973660      1.354275126212228      0.606217782649107
C       6.615673326026336     -3.616710691510448      0.606217782649111
C       8.434326673973658     -2.566710691510452     -0.606217782649108
C       6.615673326026342      3.616710691510441     -0.606217782649108
C       8.434326673973661      2.566710691510442      0.606217782649107
C       7.874999999999996     -3.697928474159557      0.000000000000003
C       7.875000000000003      3.697928474159547     -0.000000000000001
H       1.630000000000000      2.115113959242058      0.372951658287480
H       1.629999999999999     -2.115113959242059     -0.372951658287480
H      -2.425807251039057      0.481621408168634      1.073871500692703
H       0.795807251039057      2.341621408168634     -1.073871500692702
H       0.795807251039051     -2.341621408168635      1.073871500692706
H      -2.425807251039056     -0.481621408168631     -1.073871500692704
H       4.110000000000000      2.115113959242059      0.372951658287480
H       4.110000000000000     -2.115113959242059     -0.372951658287480
H      -3.665807251039056      2.629364409554041      1.073871500692704
H      -0.444192748960942      4.489364409554042     -1.073871500692703
H      -0.444192748960951     -4.489364409554041      1.073871500692706
H      -3.665807251039058     -2.629364409554036     -1.073871500692704
H      -2.675000000000001      4.633235910246746     -0.000000000000000
H      -2.675000000000006     -4.633235910246742      0.000000000000000
H       4.944192748960941     -2.341621408168634      1.073871500692708
H       8.165807251039054     -0.481621408168642     -1.073871500692706
H       4.944192748960945      2.341621408168632     -1.073871500692705
H       8.165807251039055      0.481621408168631      1.073871500692704
H       6.184192748960941     -4.489364409554044      1.073871500692710
H       9.405807251039052     -2.629364409554049     -1.073871500692706
H       6.184192748960949      4.489364409554038     -1.073871500692705
H       9.405807251039056      2.629364409554038      1.073871500692704
H       8.414999999999996     -4.633235910246751      0.000000000000004
H       8.415000000000004      4.633235910246739     -0.000000000000000
