56

C       0.000000000000000      0.000000000000000      0.000000000000000
C       1.470000000000000      0.000000000000000      0.000000000000000
C      -0.735000000000000      1.273057343563124      0.000000000000000
C      -0.735000000000000     -1.273057343563125     -0.000000000000000
C       2.170000000000000     -1.005154637934231      0.677985364030305
C       2.170000000000000      1.005154637934231     -0.677985364030305
C      -1.994326673973661      1.354275126212231      0.606217782649107
C      -0.175673326026340      2.404275126212232     -0.606217782649106
C      -0.175673326026341     -2.404275126212234      0.606217782649106
C      -1.994326673973660     -1.354275126212233     -0.606217782649107
C       3.570000000000000     -1.005154637934230      0.677985364030305
C       3.570000000000000      1.005154637934232     -0.677985364030304
C      -2.694326673973661      2.566710691510445      0.606217782649108
C      -0.875673326026340      3.616710691510446     -0.606217782649106
C      -0.875673326026342     -3.616710691510446      0.606217782649106
C      -2.694326673973658     -2.566710691510449     -0.606217782649108
C       4.270000000000000      0.000000000000002      0.000000000000000
C      -2.135000000000000      3.697928474159553      0.000000000000002
C      -2.135000000000004     -3.697928474159552     -0.000000000000000
C       5.740000000000000      0.000000000000004      0.000000000000001
C       6.474999999999997     -1.273057343563123      0.000000000000002
C       6.474999999999998      1.273057343563130      0.000000000000001
C       5.915673326026334     -2.404275126212227      0.606217782649111
C       7.734326673973657     -1.354275126212234     -0.606217782649107
C       5.915673326026335      2.404275126212235     -0.606217782649107
C       7.734326673973658      1.354275126212239      0.606217782649108
C       6.615673326026331     -3.616710691510443      0.606217782649111
C       8.434326673973654     -2.566710691510449     -0.606217782649105
C       6.615673326026332      3.616710691510451     -0.606217782649108
C       8.434326673973658      2.566710691510455      0.606217782649107
C       7.874999999999991     -3.697928474159554      0.000000000000003
C       7.874999999999993      3.697928474159561     -0.000000000000001
H       1.630000000000002     -1.780559644340638      1.201002644853683
H       1.630000000000000      1.780559644340638     -1.201002644853683
H      -2.425807251039056      0.481621408168633      1.073871500692703
H       0.795807251039056      2.341621408168635     -1.073871500692702
H       0.795807251039054     -2.341621408168638      1.073871500692703
H      -2.425807251039056     -0.481621408168636     -1.073871500692704
H       4.110000000000001     -1.780559644340636      1.201002644853683
H       4.109999999999999      1.780559644340639     -1.201002644853681
H      -3.665807251039057      2.629364409554041      1.073871500692704
H      -0.444192748960945      4.489364409554042     -1.073871500692702
H      -0.444192748960949     -4.489364409554044      1.073871500692702
H      -3.665807251039054     -2.629364409554047     -1.073871500692704
H      -2.675000000000001      4.633235910246746      0.000000000000002
H      -2.675000000000006     -4.633235910246745     -0.000000000000002
H       4.944192748960939     -2.341621408168628      1.073871500692708
H       8.165807251039054     -0.481621408168640     -1.073871500692707
H       4.944192748960939      2.341621408168636     -1.073871500692704
H       8.165807251039055      0.481621408168643      1.073871500692705
H       6.184192748960935     -4.489364409554039      1.073871500692709
H       9.405807251039048     -2.629364409554049     -1.073871500692703
H       6.184192748960935      4.489364409554047     -1.073871500692705
H       9.405807251039052      2.629364409554054      1.073871500692704
H       8.414999999999990     -4.633235910246748      0.000000000000004
H       8.414999999999990      4.633235910246757     -0.000000000000001
