56

C       0.000000000000000      0.000000000000000      0.000000000000000
C       1.470000000000000      0.000000000000000      0.000000000000000
C      -0.735000000000000      1.273057343563125      0.000000000000000
C      -0.735000000000000     -1.273057343563125     -0.000000000000000
C       2.170000000000000      0.147758726263942      1.203398254449813
C       2.170000000000000     -0.147758726263941     -1.203398254449813
C      -1.994326673973660      1.354275126212231      0.606217782649106
C      -0.175673326026339      2.404275126212232     -0.606217782649106
C      -0.175673326026338     -2.404275126212232      0.606217782649106
C      -1.994326673973660     -1.354275126212231     -0.606217782649107
C       3.570000000000000      0.147758726263943      1.203398254449814
C       3.570000000000000     -0.147758726263940     -1.203398254449813
C      -2.694326673973661      2.566710691510445      0.606217782649107
C      -0.875673326026338      3.616710691510446     -0.606217782649106
C      -0.875673326026338     -3.616710691510446      0.606217782649107
C      -2.694326673973661     -2.566710691510445     -0.606217782649107
C       4.270000000000000      0.000000000000001      0.000000000000002
C      -2.135000000000001      3.697928474159553      0.000000000000002
C      -2.134999999999999     -3.697928474159553      0.000000000000001
C       5.740000000000000      0.000000000000002      0.000000000000002
C       6.475000000000001     -1.273057343563123      0.000000000000004
C       6.475000000000001      1.273057343563127      0.000000000000002
C       5.915673326026342     -2.404275126212229      0.606217782649113
C       7.734326673973662     -1.354275126212230     -0.606217782649105
C       5.915673326026340      2.404275126212234     -0.606217782649106
C       7.734326673973660      1.354275126212235      0.606217782649110
C       6.615673326026343     -3.616710691510443      0.606217782649114
C       8.434326673973663     -2.566710691510444     -0.606217782649104
C       6.615673326026339      3.616710691510447     -0.606217782649107
C       8.434326673973661      2.566710691510448      0.606217782649108
C       7.875000000000004     -3.697928474159549      0.000000000000007
C       7.874999999999999      3.697928474159554      0.000000000000002
H       1.630000000000000      0.261744029381840      2.131734050739669
H       1.630000000000000     -0.261744029381838     -2.131734050739669
H      -2.425807251039056      0.481621408168635      1.073871500692703
H       0.795807251039056      2.341621408168636     -1.073871500692703
H       0.795807251039058     -2.341621408168635      1.073871500692703
H      -2.425807251039056     -0.481621408168634     -1.073871500692703
H       4.109999999999999      0.261744029381841      2.131734050739671
H       4.109999999999999     -0.261744029381837     -2.131734050739669
H      -3.665807251039056      2.629364409554042      1.073871500692704
H      -0.444192748960943      4.489364409554043     -1.073871500692702
H      -0.444192748960941     -4.489364409554042      1.073871500692704
H      -3.665807251039057     -2.629364409554042     -1.073871500692704
H      -2.675000000000001      4.633235910246746      0.000000000000003
H      -2.674999999999999     -4.633235910246746      0.000000000000001
H       4.944192748960947     -2.341621408168633      1.073871500692710
H       8.165807251039057     -0.481621408168634     -1.073871500692704
H       4.944192748960946      2.341621408168636     -1.073871500692704
H       8.165807251039055      0.481621408168639      1.073871500692709
H       6.184192748960949     -4.489364409554040      1.073871500692712
H       9.405807251039057     -2.629364409554042     -1.073871500692702
H       6.184192748960944      4.489364409554042     -1.073871500692704
H       9.405807251039056      2.629364409554045      1.073871500692706
H       8.415000000000006     -4.633235910246743      0.000000000000007
H       8.414999999999999      4.633235910246748      0.000000000000001
