56

C       0.000000000000000      0.000000000000000      0.000000000000000
C       1.470000000000000      0.000000000000000      0.000000000000000
C      -0.735000000000000      1.273057343563125      0.000000000000000
C      -0.734999999999999     -1.273057343563125     -0.000000000000000
C       2.169999999999999     -0.394730409392359      1.146380348706720
C       2.170000000000000      0.394730409392360     -1.146380348706720
C      -1.994326673973661      1.354275126212231      0.606217782649107
C      -0.175673326026340      2.404275126212232     -0.606217782649106
C      -0.175673326026338     -2.404275126212232      0.606217782649108
C      -1.994326673973659     -1.354275126212233     -0.606217782649109
C       3.569999999999999     -0.394730409392359      1.146380348706721
C       3.570000000000000      0.394730409392360     -1.146380348706720
C      -2.694326673973661      2.566710691510445      0.606217782649107
C      -0.875673326026339      3.616710691510447     -0.606217782649106
C      -0.875673326026337     -3.616710691510447      0.606217782649108
C      -2.694326673973658     -2.566710691510447     -0.606217782649110
C       4.270000000000000      0.000000000000001      0.000000000000001
C      -2.135000000000000      3.697928474159553      0.000000000000002
C      -2.134999999999996     -3.697928474159556     -0.000000000000001
C       5.740000000000000      0.000000000000001      0.000000000000002
C       6.475000000000001     -1.273057343563123      0.000000000000002
C       6.475000000000000      1.273057343563127      0.000000000000002
C       5.915673326026341     -2.404275126212230      0.606217782649108
C       7.734326673973662     -1.354275126212229     -0.606217782649104
C       5.915673326026338      2.404275126212233     -0.606217782649105
C       7.734326673973660      1.354275126212234      0.606217782649109
C       6.615673326026341     -3.616710691510444      0.606217782649108
C       8.434326673973665     -2.566710691510443     -0.606217782649105
C       6.615673326026338      3.616710691510448     -0.606217782649105
C       8.434326673973661      2.566710691510448      0.606217782649110
C       7.875000000000002     -3.697928474159551      0.000000000000001
C       7.874999999999998      3.697928474159557      0.000000000000002
H       1.629999999999998     -0.699236725209321      2.030730903423333
H       1.630000000000000      0.699236725209323     -2.030730903423332
H      -2.425807251039056      0.481621408168634      1.073871500692703
H       0.795807251039056      2.341621408168635     -1.073871500692703
H       0.795807251039056     -2.341621408168634      1.073871500692707
H      -2.425807251039053     -0.481621408168636     -1.073871500692707
H       4.110000000000000     -0.699236725209322      2.030730903423333
H       4.110000000000000      0.699236725209324     -2.030730903423333
H      -3.665807251039056      2.629364409554041      1.073871500692703
H      -0.444192748960943      4.489364409554043     -1.073871500692703
H      -0.444192748960941     -4.489364409554042      1.073871500692706
H      -3.665807251039053     -2.629364409554043     -1.073871500692710
H      -2.675000000000001      4.633235910246746      0.000000000000003
H      -2.674999999999996     -4.633235910246750     -0.000000000000001
H       4.944192748960946     -2.341621408168634      1.073871500692705
H       8.165807251039057     -0.481621408168633     -1.073871500692701
H       4.944192748960942      2.341621408168635     -1.073871500692703
H       8.165807251039057      0.481621408168638      1.073871500692706
H       6.184192748960946     -4.489364409554041      1.073871500692705
H       9.405807251039061     -2.629364409554038     -1.073871500692701
H       6.184192748960942      4.489364409554044     -1.073871500692702
H       9.405807251039057      2.629364409554043      1.073871500692707
H       8.415000000000001     -4.633235910246746      0.000000000000001
H       8.414999999999997      4.633235910246751      0.000000000000002
