56

C       0.000000000000000      0.000000000000000      0.000000000000000
C       1.470000000000000      0.000000000000000      0.000000000000000
C      -0.734999999999999      1.273057343563125      0.000000000000000
C      -0.735000000000000     -1.273057343563125     -0.000000000000000
C       2.170000000000000      0.968294096091417      0.729661937800312
C       2.170000000000000     -0.968294096091417     -0.729661937800311
C      -1.994326673973660      1.354275126212233      0.606217782649107
C      -0.175673326026338      2.404275126212232     -0.606217782649106
C      -0.175673326026340     -2.404275126212231      0.606217782649108
C      -1.994326673973660     -1.354275126212231     -0.606217782649108
C       3.570000000000000      0.968294096091418      0.729661937800312
C       3.570000000000000     -0.968294096091417     -0.729661937800310
C      -2.694326673973659      2.566710691510447      0.606217782649106
C      -0.875673326026338      3.616710691510447     -0.606217782649106
C      -0.875673326026340     -3.616710691510445      0.606217782649109
C      -2.694326673973661     -2.566710691510444     -0.606217782649109
C       4.270000000000001      0.000000000000001      0.000000000000000
C      -2.134999999999998      3.697928474159554     -0.000000000000000
C      -2.135000000000001     -3.697928474159554      0.000000000000001
C       5.740000000000001      0.000000000000003      0.000000000000000
C       6.475000000000002     -1.273057343563121     -0.000000000000000
C       6.475000000000001      1.273057343563128      0.000000000000001
C       5.915673326026344     -2.404275126212228      0.606217782649107
C       7.734326673973664     -1.354275126212227     -0.606217782649108
C       5.915673326026340      2.404275126212235     -0.606217782649107
C       7.734326673973660      1.354275126212236      0.606217782649110
C       6.615673326026346     -3.616710691510443      0.606217782649107
C       8.434326673973665     -2.566710691510441     -0.606217782649108
C       6.615673326026340      3.616710691510450     -0.606217782649106
C       8.434326673973660      2.566710691510451      0.606217782649110
C       7.875000000000006     -3.697928474159548     -0.000000000000001
C       7.875000000000000      3.697928474159556      0.000000000000001
H       1.630000000000000      1.715263827361939      1.292544004103408
H       1.630000000000000     -1.715263827361938     -1.292544004103408
H      -2.425807251039056      0.481621408168635      1.073871500692703
H       0.795807251039058      2.341621408168635     -1.073871500692701
H       0.795807251039055     -2.341621408168634      1.073871500692706
H      -2.425807251039055     -0.481621408168634     -1.073871500692705
H       4.110000000000001      1.715263827361940      1.292544004103409
H       4.110000000000000     -1.715263827361938     -1.292544004103407
H      -3.665807251039055      2.629364409554045      1.073871500692703
H      -0.444192748960941      4.489364409554043     -1.073871500692702
H      -0.444192748960945     -4.489364409554041      1.073871500692708
H      -3.665807251039056     -2.629364409554039     -1.073871500692706
H      -2.674999999999997      4.633235910246748     -0.000000000000000
H      -2.675000000000001     -4.633235910246746     -0.000000000000000
H       4.944192748960948     -2.341621408168633      1.073871500692705
H       8.165807251039059     -0.481621408168631     -1.073871500692704
H       4.944192748960946      2.341621408168638     -1.073871500692704
H       8.165807251039055      0.481621408168639      1.073871500692707
H       6.184192748960952     -4.489364409554040      1.073871500692703
H       9.405807251039061     -2.629364409554038     -1.073871500692705
H       6.184192748960945      4.489364409554046     -1.073871500692703
H       9.405807251039054      2.629364409554049      1.073871500692708
H       8.415000000000008     -4.633235910246741     -0.000000000000002
H       8.415000000000001      4.633235910246749      0.000000000000003
