56

C       0.000000000000000      0.000000000000000      0.000000000000000
C       1.470000000000000      0.000000000000000      0.000000000000000
C      -0.734999999999999      1.273057343563125      0.000000000000000
C      -0.735000000000000     -1.273057343563125     -0.000000000000000
C       2.169999999999999     -0.872153157465097      0.842228514076591
C       2.170000000000000      0.872153157465097     -0.842228514076590
C      -1.994326673973660      1.354275126212233      0.606217782649107
C      -0.175673326026338      2.404275126212232     -0.606217782649106
C      -0.175673326026336     -2.404275126212229      0.606217782649109
C      -1.994326673973660     -1.354275126212231     -0.606217782649108
C       3.570000000000000     -0.872153157465097      0.842228514076591
C       3.569999999999999      0.872153157465097     -0.842228514076590
C      -2.694326673973660      2.566710691510447      0.606217782649107
C      -0.875673326026337      3.616710691510447     -0.606217782649106
C      -0.875673326026333     -3.616710691510445      0.606217782649111
C      -2.694326673973661     -2.566710691510445     -0.606217782649108
C       4.270000000000000     -0.000000000000000      0.000000000000001
C      -2.134999999999998      3.697928474159554     -0.000000000000000
C      -2.134999999999994     -3.697928474159556      0.000000000000005
C       5.739999999999999     -0.000000000000001      0.000000000000002
C       6.475000000000000     -1.273057343563126      0.000000000000002
C       6.474999999999999      1.273057343563124      0.000000000000002
C       5.915673326026338     -2.404275126212233      0.606217782649108
C       7.734326673973661     -1.354275126212232     -0.606217782649105
C       5.915673326026338      2.404275126212231     -0.606217782649107
C       7.734326673973658      1.354275126212232      0.606217782649111
C       6.615673326026338     -3.616710691510447      0.606217782649109
C       8.434326673973663     -2.566710691510446     -0.606217782649106
C       6.615673326026337      3.616710691510445     -0.606217782649106
C       8.434326673973658      2.566710691510446      0.606217782649111
C       7.874999999999998     -3.697928474159554      0.000000000000002
C       7.874999999999996      3.697928474159554      0.000000000000002
H       1.629999999999999     -1.544957021795315      1.491947653507103
H       1.630000000000000      1.544957021795315     -1.491947653507102
H      -2.425807251039056      0.481621408168636      1.073871500692703
H       0.795807251039057      2.341621408168635     -1.073871500692703
H       0.795807251039058     -2.341621408168630      1.073871500692706
H      -2.425807251039055     -0.481621408168634     -1.073871500692705
H       4.109999999999999     -1.544957021795315      1.491947653507104
H       4.109999999999999      1.544957021795315     -1.491947653507101
H      -3.665807251039056      2.629364409554043      1.073871500692702
H      -0.444192748960941      4.489364409554043     -1.073871500692702
H      -0.444192748960936     -4.489364409554040      1.073871500692709
H      -3.665807251039056     -2.629364409554042     -1.073871500692706
H      -2.674999999999998      4.633235910246747      0.000000000000000
H      -2.674999999999991     -4.633235910246752      0.000000000000007
H       4.944192748960943     -2.341621408168636      1.073871500692704
H       8.165807251039057     -0.481621408168635     -1.073871500692701
H       4.944192748960943      2.341621408168633     -1.073871500692705
H       8.165807251039054      0.481621408168636      1.073871500692709
H       6.184192748960943     -4.489364409554043      1.073871500692705
H       9.405807251039059     -2.629364409554041     -1.073871500692703
H       6.184192748960941      4.489364409554041     -1.073871500692704
H       9.405807251039052      2.629364409554043      1.073871500692710
H       8.414999999999997     -4.633235910246748      0.000000000000003
H       8.414999999999994      4.633235910246748      0.000000000000002
