56

C       0.000000000000000      0.000000000000000      0.000000000000000
C       1.470000000000000      0.000000000000000      0.000000000000000
C      -0.735000000000000      1.273057343563125      0.000000000000000
C      -0.734999999999999     -1.273057343563125     -0.000000000000000
C       2.170000000000001     -0.695424470849015      0.993169071882711
C       2.170000000000000      0.695424470849016     -0.993169071882711
C      -1.994326673973661      1.354275126212231      0.606217782649106
C      -0.175673326026339      2.404275126212232     -0.606217782649106
C      -0.175673326026336     -2.404275126212231      0.606217782649107
C      -1.994326673973660     -1.354275126212233     -0.606217782649106
C       3.570000000000000     -0.695424470849015      0.993169071882710
C       3.570000000000000      0.695424470849016     -0.993169071882711
C      -2.694326673973661      2.566710691510445      0.606217782649107
C      -0.875673326026339      3.616710691510446     -0.606217782649107
C      -0.875673326026334     -3.616710691510447      0.606217782649108
C      -2.694326673973660     -2.566710691510447     -0.606217782649106
C       4.270000000000000      0.000000000000001     -0.000000000000003
C      -2.135000000000001      3.697928474159553      0.000000000000000
C      -2.134999999999995     -3.697928474159555      0.000000000000003
C       5.740000000000000      0.000000000000002     -0.000000000000004
C       6.475000000000001     -1.273057343563123     -0.000000000000007
C       6.474999999999997      1.273057343563128     -0.000000000000003
C       5.915673326026341     -2.404275126212230      0.606217782649099
C       7.734326673973660     -1.354275126212228     -0.606217782649115
C       5.915673326026334      2.404275126212234     -0.606217782649109
C       7.734326673973657      1.354275126212238      0.606217782649105
C       6.615673326026341     -3.616710691510444      0.606217782649096
C       8.434326673973661     -2.566710691510441     -0.606217782649118
C       6.615673326026331      3.616710691510449     -0.606217782649108
C       8.434326673973652      2.566710691510454      0.606217782649108
C       7.875000000000001     -3.697928474159550     -0.000000000000012
C       7.874999999999990      3.697928474159560     -0.000000000000001
H       1.630000000000001     -1.231894776932542      1.759328070192231
H       1.630000000000000      1.231894776932542     -1.759328070192231
H      -2.425807251039056      0.481621408168635      1.073871500692703
H       0.795807251039056      2.341621408168635     -1.073871500692703
H       0.795807251039060     -2.341621408168633      1.073871500692703
H      -2.425807251039056     -0.481621408168635     -1.073871500692703
H       4.110000000000000     -1.231894776932542      1.759328070192230
H       4.109999999999999      1.231894776932543     -1.759328070192232
H      -3.665807251039056      2.629364409554041      1.073871500692704
H      -0.444192748960945      4.489364409554042     -1.073871500692703
H      -0.444192748960938     -4.489364409554042      1.073871500692705
H      -3.665807251039055     -2.629364409554042     -1.073871500692702
H      -2.675000000000001      4.633235910246746     -0.000000000000000
H      -2.674999999999994     -4.633235910246750      0.000000000000004
H       4.944192748960946     -2.341621408168634      1.073871500692697
H       8.165807251039054     -0.481621408168630     -1.073871500692710
H       4.944192748960940      2.341621408168635     -1.073871500692706
H       8.165807251039054      0.481621408168641      1.073871500692702
H       6.184192748960947     -4.489364409554041      1.073871500692693
H       9.405807251039057     -2.629364409554037     -1.073871500692716
H       6.184192748960934      4.489364409554046     -1.073871500692705
H       9.405807251039047      2.629364409554053      1.073871500692705
H       8.415000000000001     -4.633235910246744     -0.000000000000014
H       8.414999999999987      4.633235910246755     -0.000000000000001
