56

C       0.000000000000000      0.000000000000000      0.000000000000000
C       1.470000000000000      0.000000000000000      0.000000000000000
C      -0.735000000000000      1.273057343563125      0.000000000000000
C      -0.735000000000000     -1.273057343563125     -0.000000000000000
C       2.170000000000000      0.252079528388738      1.185940939240783
C       2.170000000000000     -0.252079528388737     -1.185940939240784
C      -1.994326673973660      1.354275126212232      0.606217782649106
C      -0.175673326026337      2.404275126212231     -0.606217782649107
C      -0.175673326026332     -2.404275126212227      0.606217782649110
C      -1.994326673973660     -1.354275126212231     -0.606217782649107
C       3.570000000000000      0.252079528388738      1.185940939240783
C       3.569999999999999     -0.252079528388737     -1.185940939240783
C      -2.694326673973661      2.566710691510447      0.606217782649107
C      -0.875673326026337      3.616710691510446     -0.606217782649108
C      -0.875673326026324     -3.616710691510445      0.606217782649114
C      -2.694326673973660     -2.566710691510445     -0.606217782649108
C       4.270000000000000      0.000000000000001     -0.000000000000000
C      -2.135000000000000      3.697928474159553     -0.000000000000001
C      -2.134999999999985     -3.697928474159562      0.000000000000009
C       5.740000000000000      0.000000000000001     -0.000000000000001
C       6.475000000000001     -1.273057343563123     -0.000000000000005
C       6.475000000000000      1.273057343563127      0.000000000000000
C       5.915673326026343     -2.404275126212232      0.606217782649100
C       7.734326673973662     -1.354275126212228     -0.606217782649113
C       5.915673326026338      2.404275126212234     -0.606217782649105
C       7.734326673973660      1.354275126212233      0.606217782649107
C       6.615673326026344     -3.616710691510445      0.606217782649096
C       8.434326673973663     -2.566710691510441     -0.606217782649116
C       6.615673326026338      3.616710691510448     -0.606217782649103
C       8.434326673973660      2.566710691510448      0.606217782649107
C       7.875000000000004     -3.697928474159549     -0.000000000000012
C       7.874999999999999      3.697928474159555      0.000000000000004
H       1.630000000000000      0.446540878860049      2.100809663797960
H       1.629999999999999     -0.446540878860048     -2.100809663797960
H      -2.425807251039056      0.481621408168635      1.073871500692703
H       0.795807251039058      2.341621408168633     -1.073871500692703
H       0.795807251039063     -2.341621408168622      1.073871500692706
H      -2.425807251039054     -0.481621408168633     -1.073871500692704
H       4.109999999999999      0.446540878860050      2.100809663797959
H       4.110000000000000     -0.446540878860048     -2.100809663797960
H      -3.665807251039056      2.629364409554044      1.073871500692703
H      -0.444192748960939      4.489364409554041     -1.073871500692705
H      -0.444192748960923     -4.489364409554038      1.073871500692714
H      -3.665807251039055     -2.629364409554042     -1.073871500692706
H      -2.675000000000000      4.633235910246746     -0.000000000000001
H      -2.674999999999980     -4.633235910246759      0.000000000000011
H       4.944192748960948     -2.341621408168638      1.073871500692698
H       8.165807251039057     -0.481621408168629     -1.073871500692708
H       4.944192748960942      2.341621408168637     -1.073871500692702
H       8.165807251039057      0.481621408168636      1.073871500692702
H       6.184192748960951     -4.489364409554043      1.073871500692691
H       9.405807251039057     -2.629364409554035     -1.073871500692713
H       6.184192748960942      4.489364409554046     -1.073871500692699
H       9.405807251039056      2.629364409554045      1.073871500692704
H       8.415000000000004     -4.633235910246742     -0.000000000000015
H       8.414999999999999      4.633235910246749      0.000000000000005
