56

C       0.000000000000000      0.000000000000000      0.000000000000000
C       1.470000000000000      0.000000000000000      0.000000000000000
C      -0.735000000000000      1.273057343563124      0.000000000000000
C      -0.735000000000000     -1.273057343563125     -0.000000000000000
C       2.170000000000000     -0.826879067214830      0.886719238655580
C       2.170000000000001      0.826879067214830     -0.886719238655579
C      -1.994326673973660      1.354275126212233      0.606217782649106
C      -0.175673326026339      2.404275126212232     -0.606217782649107
C      -0.175673326026323     -2.404275126212220      0.606217782649112
C      -1.994326673973660     -1.354275126212231     -0.606217782649107
C       3.570000000000000     -0.826879067214829      0.886719238655580
C       3.570000000000002      0.826879067214830     -0.886719238655578
C      -2.694326673973659      2.566710691510447      0.606217782649105
C      -0.875673326026338      3.616710691510447     -0.606217782649107
C      -0.875673326026308     -3.616710691510443      0.606217782649123
C      -2.694326673973661     -2.566710691510443     -0.606217782649108
C       4.270000000000000      0.000000000000003     -0.000000000000000
C      -2.134999999999997      3.697928474159553     -0.000000000000002
C      -2.134999999999970     -3.697928474159570      0.000000000000021
C       5.740000000000000      0.000000000000004     -0.000000000000001
C       6.475000000000003     -1.273057343563120     -0.000000000000003
C       6.474999999999959      1.273057343563152      0.000000000000001
C       5.915673326026345     -2.404275126212229      0.606217782649103
C       7.734326673973664     -1.354275126212223     -0.606217782649110
C       5.915673326026262      2.404275126212243     -0.606217782649105
C       7.734326673973616      1.354275126212300      0.606217782649108
C       6.615673326026347     -3.616710691510442      0.606217782649101
C       8.434326673973667     -2.566710691510436     -0.606217782649114
C       6.615673326026223      3.616710691510479     -0.606217782649103
C       8.434326673973578      2.566710691510536      0.606217782649110
C       7.875000000000007     -3.697928474159546     -0.000000000000006
C       7.874999999999880      3.697928474159625      0.000000000000004
H       1.630000000000001     -1.464757204780557      1.570759794189885
H       1.630000000000002      1.464757204780557     -1.570759794189885
H      -2.425807251039056      0.481621408168636      1.073871500692703
H       0.795807251039057      2.341621408168635     -1.073871500692703
H       0.795807251039073     -2.341621408168608      1.073871500692706
H      -2.425807251039054     -0.481621408168633     -1.073871500692704
H       4.110000000000000     -1.464757204780554      1.570759794189885
H       4.110000000000002      1.464757204780557     -1.570759794189882
H      -3.665807251039054      2.629364409554046      1.073871500692702
H      -0.444192748960943      4.489364409554043     -1.073871500692703
H      -0.444192748960902     -4.489364409554033      1.073871500692724
H      -3.665807251039056     -2.629364409554038     -1.073871500692705
H      -2.674999999999997      4.633235910246746     -0.000000000000002
H      -2.674999999999960     -4.633235910246770      0.000000000000028
H       4.944192748960950     -2.341621408168635      1.073871500692700
H       8.165807251039057     -0.481621408168625     -1.073871500692705
H       4.944192748960869      2.341621408168615     -1.073871500692702
H       8.165807251039039      0.481621408168717      1.073871500692704
H       6.184192748960954     -4.489364409554040      1.073871500692697
H       9.405807251039061     -2.629364409554029     -1.073871500692711
H       6.184192748960800      4.489364409554063     -1.073871500692699
H       9.405807251038970      2.629364409554162      1.073871500692707
H       8.415000000000010     -4.633235910246738     -0.000000000000008
H       8.414999999999850      4.633235910246836      0.000000000000006
