56

C       0.000000000000000      0.000000000000000      0.000000000000000
C       1.470000000000000      0.000000000000000      0.000000000000000
C      -0.735000000000000      1.273057343563125      0.000000000000000
C      -0.735000000000000     -1.273057343563125     -0.000000000000000
C       2.170000000000000     -1.070517063876611      0.569204019617747
C       2.170000000000000      1.070517063876611     -0.569204019617748
C      -1.994326673973660      1.354275126212232      0.606217782649106
C      -0.175673326026339      2.404275126212232     -0.606217782649106
C      -0.175673326026340     -2.404275126212233      0.606217782649108
C      -1.994326673973660     -1.354275126212235     -0.606217782649107
C       3.570000000000000     -1.070517063876610      0.569204019617748
C       3.570000000000000      1.070517063876611     -0.569204019617749
C      -2.694326673973660      2.566710691510447      0.606217782649107
C      -0.875673326026339      3.616710691510446     -0.606217782649107
C      -0.875673326026340     -3.616710691510447      0.606217782649107
C      -2.694326673973658     -2.566710691510450     -0.606217782649106
C       4.270000000000000      0.000000000000000      0.000000000000001
C      -2.134999999999999      3.697928474159554      0.000000000000000
C      -2.135000000000000     -3.697928474159554     -0.000000000000002
C       5.740000000000000      0.000000000000001      0.000000000000002
C       6.475000000000000     -1.273057343563123      0.000000000000003
C       6.475000000000000      1.273057343563127      0.000000000000001
C       5.915673326026339     -2.404275126212229      0.606217782649113
C       7.734326673973660     -1.354275126212231     -0.606217782649104
C       5.915673326026338      2.404275126212232     -0.606217782649108
C       7.734326673973658      1.354275126212235      0.606217782649108
C       6.615673326026339     -3.616710691510443      0.606217782649115
C       8.434326673973661     -2.566710691510445     -0.606217782649102
C       6.615673326026337      3.616710691510447     -0.606217782649108
C       8.434326673973658      2.566710691510449      0.606217782649107
C       7.874999999999999     -3.697928474159551      0.000000000000008
C       7.874999999999996      3.697928474159555     -0.000000000000001
H       1.630000000000000     -1.896344513152854      1.008304263322867
H       1.629999999999999      1.896344513152853     -1.008304263322868
H      -2.425807251039056      0.481621408168635      1.073871500692703
H       0.795807251039057      2.341621408168634     -1.073871500692703
H       0.795807251039055     -2.341621408168636      1.073871500692706
H      -2.425807251039057     -0.481621408168638     -1.073871500692705
H       4.110000000000000     -1.896344513152853      1.008304263322868
H       4.110000000000000      1.896344513152854     -1.008304263322868
H      -3.665807251039056      2.629364409554043      1.073871500692703
H      -0.444192748960942      4.489364409554042     -1.073871500692704
H      -0.444192748960946     -4.489364409554044      1.073871500692705
H      -3.665807251039054     -2.629364409554049     -1.073871500692703
H      -2.674999999999999      4.633235910246747     -0.000000000000000
H      -2.675000000000001     -4.633235910246748     -0.000000000000003
H       4.944192748960945     -2.341621408168631      1.073871500692710
H       8.165807251039055     -0.481621408168635     -1.073871500692702
H       4.944192748960943      2.341621408168634     -1.073871500692705
H       8.165807251039055      0.481621408168639      1.073871500692706
H       6.184192748960945     -4.489364409554039      1.073871500692712
H       9.405807251039056     -2.629364409554042     -1.073871500692699
H       6.184192748960940      4.489364409554043     -1.073871500692706
H       9.405807251039052      2.629364409554047      1.073871500692704
H       8.414999999999999     -4.633235910246746      0.000000000000009
H       8.414999999999996      4.633235910246750     -0.000000000000000
