56

C       0.000000000000000      0.000000000000000      0.000000000000000
C       1.470000000000000      0.000000000000000      0.000000000000000
C      -0.735000000000000      1.273057343563125      0.000000000000000
C      -0.735000000000000     -1.273057343563125     -0.000000000000000
C       2.169999999999999     -1.028203672863491      0.642492962693000
C       2.170000000000000      1.028203672863490     -0.642492962692999
C      -1.994326673973661      1.354275126212231      0.606217782649107
C      -0.175673326026339      2.404275126212232     -0.606217782649106
C      -0.175673326026340     -2.404275126212232      0.606217782649108
C      -1.994326673973660     -1.354275126212233     -0.606217782649109
C       3.569999999999999     -1.028203672863491      0.642492962692999
C       3.570000000000001      1.028203672863490     -0.642492962692998
C      -2.694326673973661      2.566710691510445      0.606217782649107
C      -0.875673326026339      3.616710691510447     -0.606217782649107
C      -0.875673326026340     -3.616710691510446      0.606217782649106
C      -2.694326673973660     -2.566710691510448     -0.606217782649109
C       4.269999999999999     -0.000000000000000      0.000000000000000
C      -2.135000000000000      3.697928474159553      0.000000000000001
C      -2.135000000000001     -3.697928474159552     -0.000000000000001
C       5.739999999999998     -0.000000000000001      0.000000000000000
C       6.474999999999998     -1.273057343563126     -0.000000000000000
C       6.474999999999996      1.273057343563125      0.000000000000001
C       5.915673326026337     -2.404275126212233      0.606217782649106
C       7.734326673973658     -1.354275126212233     -0.606217782649108
C       5.915673326026334      2.404275126212231     -0.606217782649106
C       7.734326673973657      1.354275126212234      0.606217782649109
C       6.615673326026336     -3.616710691510447      0.606217782649105
C       8.434326673973658     -2.566710691510447     -0.606217782649109
C       6.615673326026331      3.616710691510446     -0.606217782649106
C       8.434326673973654      2.566710691510449      0.606217782649110
C       7.874999999999996     -3.697928474159555     -0.000000000000002
C       7.874999999999991      3.697928474159555      0.000000000000002
H       1.629999999999999     -1.821389363358183      1.138130391056170
H       1.630000000000000      1.821389363358183     -1.138130391056170
H      -2.425807251039057      0.481621408168635      1.073871500692703
H       0.795807251039056      2.341621408168635     -1.073871500692704
H       0.795807251039055     -2.341621408168636      1.073871500692706
H      -2.425807251039055     -0.481621408168637     -1.073871500692707
H       4.109999999999999     -1.821389363358183      1.138130391056170
H       4.110000000000001      1.821389363358183     -1.138130391056169
H      -3.665807251039056      2.629364409554041      1.073871500692704
H      -0.444192748960943      4.489364409554043     -1.073871500692704
H      -0.444192748960947     -4.489364409554044      1.073871500692704
H      -3.665807251039054     -2.629364409554044     -1.073871500692706
H      -2.675000000000001      4.633235910246746      0.000000000000001
H      -2.675000000000000     -4.633235910246745     -0.000000000000000
H       4.944192748960941     -2.341621408168636      1.073871500692703
H       8.165807251039054     -0.481621408168635     -1.073871500692704
H       4.944192748960939      2.341621408168632     -1.073871500692704
H       8.165807251039054      0.481621408168638      1.073871500692704
H       6.184192748960940     -4.489364409554044      1.073871500692702
H       9.405807251039050     -2.629364409554045     -1.073871500692705
H       6.184192748960935      4.489364409554042     -1.073871500692703
H       9.405807251039050      2.629364409554048      1.073871500692708
H       8.414999999999996     -4.633235910246750     -0.000000000000001
H       8.414999999999988      4.633235910246750      0.000000000000003
