56

C       0.000000000000000      0.000000000000000      0.000000000000000
C       1.470000000000000      0.000000000000000      0.000000000000000
C      -0.735000000000000      1.273057343563125      0.000000000000000
C      -0.735000000000000     -1.273057343563124     -0.000000000000000
C       2.170000000000000     -1.124150680847060      0.454186356852660
C       2.170000000000000      1.124150680847060     -0.454186356852660
C      -1.994326673973661      1.354275126212231      0.606217782649106
C      -0.175673326026340      2.404275126212232     -0.606217782649106
C      -0.175673326026340     -2.404275126212231      0.606217782649108
C      -1.994326673973660     -1.354275126212237     -0.606217782649107
C       3.570000000000000     -1.124150680847060      0.454186356852659
C       3.570000000000000      1.124150680847059     -0.454186356852659
C      -2.694326673973661      2.566710691510446      0.606217782649106
C      -0.875673326026340      3.616710691510446     -0.606217782649106
C      -0.875673326026340     -3.616710691510444      0.606217782649109
C      -2.694326673973656     -2.566710691510454     -0.606217782649103
C       4.270000000000000     -0.000000000000000     -0.000000000000001
C      -2.135000000000000      3.697928474159553     -0.000000000000000
C      -2.135000000000000     -3.697928474159552      0.000000000000001
C       5.740000000000000     -0.000000000000000     -0.000000000000001
C       6.475000000000001     -1.273057343563125     -0.000000000000003
C       6.475000000000001      1.273057343563125     -0.000000000000001
C       5.915673326026340     -2.404275126212233      0.606217782649103
C       7.734326673973660     -1.354275126212231     -0.606217782649111
C       5.915673326026340      2.404275126212231     -0.606217782649107
C       7.734326673973661      1.354275126212231      0.606217782649107
C       6.615673326026340     -3.616710691510447      0.606217782649101
C       8.434326673973660     -2.566710691510444     -0.606217782649113
C       6.615673326026339      3.616710691510444     -0.606217782649107
C       8.434326673973661      2.566710691510444      0.606217782649109
C       7.875000000000002     -3.697928474159553     -0.000000000000007
C       7.875000000000000      3.697928474159550      0.000000000000000
H       1.630000000000000     -1.991352634643363      0.804558689281854
H       1.630000000000000      1.991352634643363     -0.804558689281854
H      -2.425807251039056      0.481621408168634      1.073871500692703
H       0.795807251039056      2.341621408168636     -1.073871500692703
H       0.795807251039054     -2.341621408168634      1.073871500692706
H      -2.425807251039058     -0.481621408168642     -1.073871500692706
H       4.110000000000000     -1.991352634643364      0.804558689281855
H       4.110000000000000      1.991352634643363     -0.804558689281854
H      -3.665807251039057      2.629364409554043      1.073871500692703
H      -0.444192748960945      4.489364409554043     -1.073871500692702
H      -0.444192748960945     -4.489364409554041      1.073871500692706
H      -3.665807251039051     -2.629364409554056     -1.073871500692699
H      -2.675000000000000      4.633235910246746     -0.000000000000000
H      -2.674999999999999     -4.633235910246746      0.000000000000002
H       4.944192748960945     -2.341621408168636      1.073871500692700
H       8.165807251039055     -0.481621408168634     -1.073871500692707
H       4.944192748960945      2.341621408168634     -1.073871500692705
H       8.165807251039055      0.481621408168634      1.073871500692704
H       6.184192748960945     -4.489364409554044      1.073871500692698
H       9.405807251039054     -2.629364409554041     -1.073871500692711
H       6.184192748960944      4.489364409554041     -1.073871500692704
H       9.405807251039057      2.629364409554039      1.073871500692706
H       8.415000000000003     -4.633235910246746     -0.000000000000008
H       8.414999999999999      4.633235910246744      0.000000000000001
