56

C       0.000000000000000      0.000000000000000      0.000000000000000
C       1.470000000000000      0.000000000000000      0.000000000000000
C      -0.735000000000000      1.273057343563125      0.000000000000000
C      -0.735000000000000     -1.273057343563125     -0.000000000000000
C       2.170000000000000      0.512397411078933      1.098839794109954
C       2.170000000000000     -0.512397411078932     -1.098839794109955
C      -1.994326673973660      1.354275126212232      0.606217782649106
C      -0.175673326026339      2.404275126212232     -0.606217782649106
C      -0.175673326026339     -2.404275126212231      0.606217782649108
C      -1.994326673973660     -1.354275126212232     -0.606217782649107
C       3.570000000000000      0.512397411078934      1.098839794109954
C       3.569999999999999     -0.512397411078931     -1.098839794109955
C      -2.694326673973660      2.566710691510447      0.606217782649106
C      -0.875673326026339      3.616710691510446     -0.606217782649106
C      -0.875673326026338     -3.616710691510446      0.606217782649108
C      -2.694326673973660     -2.566710691510446     -0.606217782649108
C       4.270000000000000      0.000000000000002     -0.000000000000001
C      -2.134999999999999      3.697928474159554     -0.000000000000001
C      -2.134999999999998     -3.697928474159555     -0.000000000000000
C       5.739999999999999      0.000000000000003     -0.000000000000001
C       6.475000000000001     -1.273057343563122     -0.000000000000002
C       6.474999999999999      1.273057343563128     -0.000000000000000
C       5.915673326026341     -2.404275126212230      0.606217782649105
C       7.734326673973660     -1.354275126212228     -0.606217782649110
C       5.915673326026337      2.404275126212235     -0.606217782649108
C       7.734326673973659      1.354275126212235      0.606217782649107
C       6.615673326026342     -3.616710691510443      0.606217782649104
C       8.434326673973661     -2.566710691510441     -0.606217782649111
C       6.615673326026337      3.616710691510450     -0.606217782649107
C       8.434326673973658      2.566710691510448      0.606217782649108
C       7.875000000000002     -3.697928474159549     -0.000000000000003
C       7.874999999999997      3.697928474159559      0.000000000000001
H       1.630000000000000      0.907675413911253      1.946516206709062
H       1.629999999999999     -0.907675413911251     -1.946516206709064
H      -2.425807251039056      0.481621408168635      1.073871500692703
H       0.795807251039057      2.341621408168635     -1.073871500692702
H       0.795807251039056     -2.341621408168633      1.073871500692706
H      -2.425807251039056     -0.481621408168635     -1.073871500692704
H       4.109999999999999      0.907675413911255      1.946516206709061
H       4.109999999999999     -0.907675413911250     -1.946516206709064
H      -3.665807251039055      2.629364409554044      1.073871500692703
H      -0.444192748960944      4.489364409554043     -1.073871500692702
H      -0.444192748960943     -4.489364409554042      1.073871500692706
H      -3.665807251039056     -2.629364409554042     -1.073871500692704
H      -2.674999999999998      4.633235910246748     -0.000000000000001
H      -2.674999999999999     -4.633235910246748      0.000000000000000
H       4.944192748960946     -2.341621408168634      1.073871500692702
H       8.165807251039055     -0.481621408168631     -1.073871500692706
H       4.944192748960942      2.341621408168638     -1.073871500692705
H       8.165807251039055      0.481621408168638      1.073871500692703
H       6.184192748960948     -4.489364409554042      1.073871500692700
H       9.405807251039057     -2.629364409554036     -1.073871500692709
H       6.184192748960941      4.489364409554047     -1.073871500692704
H       9.405807251039052      2.629364409554045      1.073871500692704
H       8.415000000000003     -4.633235910246743     -0.000000000000004
H       8.414999999999997      4.633235910246753      0.000000000000002
