56

C       0.000000000000000      0.000000000000000      0.000000000000000
C       1.470000000000000      0.000000000000000      0.000000000000000
C      -0.735000000000000      1.273057343563124      0.000000000000000
C      -0.734999999999999     -1.273057343563125     -0.000000000000000
C       2.169999999999999     -1.194015944733420      0.210537226452609
C       2.170000000000000      1.194015944733420     -0.210537226452610
C      -1.994326673973661      1.354275126212232      0.606217782649107
C      -0.175673326026340      2.404275126212232     -0.606217782649106
C      -0.175673326026339     -2.404275126212231      0.606217782649108
C      -1.994326673973660     -1.354275126212233     -0.606217782649108
C       3.569999999999999     -1.194015944733420      0.210537226452608
C       3.569999999999999      1.194015944733420     -0.210537226452610
C      -2.694326673973661      2.566710691510446      0.606217782649107
C      -0.875673326026341      3.616710691510445     -0.606217782649107
C      -0.875673326026339     -3.616710691510445      0.606217782649108
C      -2.694326673973659     -2.566710691510447     -0.606217782649108
C       4.269999999999999      0.000000000000001     -0.000000000000003
C      -2.135000000000001      3.697928474159553     -0.000000000000001
C      -2.134999999999999     -3.697928474159553     -0.000000000000000
C       5.739999999999999      0.000000000000002     -0.000000000000005
C       6.475000000000001     -1.273057343563122     -0.000000000000011
C       6.474999999999998      1.273057343563128     -0.000000000000001
C       5.915673326026342     -2.404275126212232      0.606217782649093
C       7.734326673973660     -1.354275126212225     -0.606217782649119
C       5.915673326026335      2.404275126212236     -0.606217782649105
C       7.734326673973659      1.354275126212235      0.606217782649106
C       6.615673326026344     -3.616710691510446      0.606217782649088
C       8.434326673973661     -2.566710691510439     -0.606217782649124
C       6.615673326026332      3.616710691510450     -0.606217782649102
C       8.434326673973660      2.566710691510449      0.606217782649110
C       7.875000000000004     -3.697928474159549     -0.000000000000022
C       7.874999999999993      3.697928474159558      0.000000000000005
H       1.629999999999999     -2.115113959242059      0.372951658287479
H       1.629999999999999      2.115113959242059     -0.372951658287480
H      -2.425807251039056      0.481621408168635      1.073871500692703
H       0.795807251039055      2.341621408168636     -1.073871500692703
H       0.795807251039056     -2.341621408168634      1.073871500692706
H      -2.425807251039055     -0.481621408168636     -1.073871500692705
H       4.109999999999999     -2.115113959242059      0.372951658287478
H       4.109999999999999      2.115113959242059     -0.372951658287480
H      -3.665807251039057      2.629364409554043      1.073871500692703
H      -0.444192748960946      4.489364409554042     -1.073871500692703
H      -0.444192748960944     -4.489364409554041      1.073871500692706
H      -3.665807251039054     -2.629364409554043     -1.073871500692704
H      -2.675000000000000      4.633235910246747     -0.000000000000002
H      -2.674999999999998     -4.633235910246746     -0.000000000000001
H       4.944192748960946     -2.341621408168638      1.073871500692692
H       8.165807251039054     -0.481621408168626     -1.073871500692714
H       4.944192748960939      2.341621408168639     -1.073871500692702
H       8.165807251039055      0.481621408168637      1.073871500692700
H       6.184192748960951     -4.489364409554044      1.073871500692682
H       9.405807251039056     -2.629364409554033     -1.073871500692723
H       6.184192748960935      4.489364409554048     -1.073871500692695
H       9.405807251039056      2.629364409554044      1.073871500692706
H       8.415000000000004     -4.633235910246741     -0.000000000000025
H       8.414999999999992      4.633235910246753      0.000000000000008
