56

C       0.000000000000000      0.000000000000000      0.000000000000000
C       1.470000000000000      0.000000000000000      0.000000000000000
C      -0.735000000000000      1.273057343563125      0.000000000000000
C      -0.734999999999999     -1.273057343563125     -0.000000000000000
C       2.169999999999999      1.197508471567921      0.189666709053176
C       2.169999999999999     -1.197508471567921     -0.189666709053176
C      -1.994326673973660      1.354275126212232      0.606217782649106
C      -0.175673326026339      2.404275126212232     -0.606217782649106
C      -0.175673326026339     -2.404275126212232      0.606217782649106
C      -1.994326673973660     -1.354275126212231     -0.606217782649107
C       3.569999999999999      1.197508471567922      0.189666709053175
C       3.569999999999999     -1.197508471567921     -0.189666709053177
C      -2.694326673973660      2.566710691510445      0.606217782649107
C      -0.875673326026340      3.616710691510446     -0.606217782649107
C      -0.875673326026339     -3.616710691510446      0.606217782649106
C      -2.694326673973660     -2.566710691510446     -0.606217782649108
C       4.270000000000000      0.000000000000002     -0.000000000000002
C      -2.135000000000000      3.697928474159552      0.000000000000000
C      -2.135000000000001     -3.697928474159552      0.000000000000001
C       5.739999999999999      0.000000000000002     -0.000000000000004
C       6.474999999999999     -1.273057343563123     -0.000000000000007
C       6.474999999999999      1.273057343563127     -0.000000000000002
C       5.915673326026338     -2.404275126212231      0.606217782649098
C       7.734326673973658     -1.354275126212229     -0.606217782649116
C       5.915673326026337      2.404275126212235     -0.606217782649106
C       7.734326673973660      1.354275126212235      0.606217782649105
C       6.615673326026339     -3.616710691510446      0.606217782649095
C       8.434326673973658     -2.566710691510443     -0.606217782649119
C       6.615673326026337      3.616710691510449     -0.606217782649104
C       8.434326673973660      2.566710691510449      0.606217782649107
C       7.874999999999999     -3.697928474159551     -0.000000000000013
C       7.874999999999997      3.697928474159555      0.000000000000004
H       1.629999999999999      2.121300721063174      0.335981027465627
H       1.629999999999999     -2.121300721063174     -0.335981027465626
H      -2.425807251039057      0.481621408168635      1.073871500692703
H       0.795807251039056      2.341621408168635     -1.073871500692704
H       0.795807251039057     -2.341621408168635      1.073871500692702
H      -2.425807251039055     -0.481621408168634     -1.073871500692704
H       4.109999999999999      2.121300721063175      0.335981027465624
H       4.109999999999999     -2.121300721063175     -0.335981027465627
H      -3.665807251039055      2.629364409554042      1.073871500692704
H      -0.444192748960945      4.489364409554043     -1.073871500692703
H      -0.444192748960944     -4.489364409554042      1.073871500692702
H      -3.665807251039055     -2.629364409554043     -1.073871500692705
H      -2.675000000000001      4.633235910246746     -0.000000000000000
H      -2.675000000000000     -4.633235910246746      0.000000000000000
H       4.944192748960943     -2.341621408168635      1.073871500692696
H       8.165807251039054     -0.481621408168630     -1.073871500692711
H       4.944192748960942      2.341621408168639     -1.073871500692702
H       8.165807251039057      0.481621408168638      1.073871500692701
H       6.184192748960943     -4.489364409554044      1.073871500692690
H       9.405807251039052     -2.629364409554039     -1.073871500692717
H       6.184192748960942      4.489364409554047     -1.073871500692698
H       9.405807251039054      2.629364409554046      1.073871500692704
H       8.414999999999999     -4.633235910246745     -0.000000000000016
H       8.414999999999999      4.633235910246748      0.000000000000006
