56

C       0.000000000000000      0.000000000000000      0.000000000000000
C       1.470000000000000      0.000000000000000      0.000000000000000
C      -0.735000000000000      1.273057343563125      0.000000000000000
C      -0.735000000000000     -1.273057343563125     -0.000000000000000
C       2.170000000000000     -0.677985364030304      1.005154637934231
C       2.170000000000000      0.677985364030305     -1.005154637934230
C      -1.994326673973660      1.354275126212233      0.606217782649106
C      -0.175673326026338      2.404275126212232     -0.606217782649106
C      -0.175673326026338     -2.404275126212231      0.606217782649107
C      -1.994326673973660     -1.354275126212233     -0.606217782649107
C       3.569999999999999     -0.677985364030304      1.005154637934230
C       3.569999999999999      0.677985364030305     -1.005154637934230
C      -2.694326673973660      2.566710691510447      0.606217782649107
C      -0.875673326026337      3.616710691510447     -0.606217782649107
C      -0.875673326026336     -3.616710691510446      0.606217782649107
C      -2.694326673973660     -2.566710691510448     -0.606217782649106
C       4.269999999999999      0.000000000000001     -0.000000000000002
C      -2.134999999999999      3.697928474159554      0.000000000000000
C      -2.134999999999997     -3.697928474159554      0.000000000000000
C       5.739999999999998      0.000000000000001     -0.000000000000003
C       6.474999999999999     -1.273057343563122     -0.000000000000005
C       6.475000000000007      1.273057343563121     -0.000000000000002
C       5.915673326026340     -2.404275126212231      0.606217782649100
C       7.734326673973660     -1.354275126212227     -0.606217782649114
C       5.915673326026354      2.404275126212232     -0.606217782649109
C       7.734326673973668      1.354275126212218      0.606217782649105
C       6.615673326026341     -3.616710691510444      0.606217782649098
C       8.434326673973661     -2.566710691510441     -0.606217782649117
C       6.615673326026362      3.616710691510440     -0.606217782649108
C       8.434326673973677      2.566710691510426      0.606217782649106
C       7.875000000000001     -3.697928474159549     -0.000000000000010
C       7.875000000000023      3.697928474159538     -0.000000000000001
H       1.630000000000000     -1.201002644853682      1.780559644340638
H       1.630000000000000      1.201002644853683     -1.780559644340637
H      -2.425807251039057      0.481621408168636      1.073871500692703
H       0.795807251039057      2.341621408168634     -1.073871500692703
H       0.795807251039058     -2.341621408168634      1.073871500692703
H      -2.425807251039056     -0.481621408168637     -1.073871500692704
H       4.110000000000001     -1.201002644853681      1.780559644340636
H       4.110000000000000      1.201002644853683     -1.780559644340637
H      -3.665807251039056      2.629364409554044      1.073871500692703
H      -0.444192748960941      4.489364409554043     -1.073871500692703
H      -0.444192748960941     -4.489364409554042      1.073871500692704
H      -3.665807251039056     -2.629364409554046     -1.073871500692702
H      -2.674999999999998      4.633235910246748      0.000000000000000
H      -2.674999999999995     -4.633235910246749      0.000000000000001
H       4.944192748960944     -2.341621408168636      1.073871500692698
H       8.165807251039055     -0.481621408168629     -1.073871500692709
H       4.944192748960959      2.341621408168642     -1.073871500692706
H       8.165807251039057      0.481621408168618      1.073871500692701
H       6.184192748960948     -4.489364409554041      1.073871500692693
H       9.405807251039057     -2.629364409554035     -1.073871500692715
H       6.184192748960973      4.489364409554041     -1.073871500692705
H       9.405807251039073      2.629364409554015      1.073871500692702
H       8.415000000000003     -4.633235910246742     -0.000000000000011
H       8.415000000000029      4.633235910246727     -0.000000000000001
