56

C       0.000000000000000      0.000000000000000      0.000000000000000
C       1.470000000000000      0.000000000000000      0.000000000000000
C      -0.735000000000000      1.273057343563125      0.000000000000000
C      -0.735000000000000     -1.273057343563125     -0.000000000000000
C       2.170000000000000     -1.212250905489056      0.021159918264602
C       2.170000000000000      1.212250905489056     -0.021159918264602
C      -1.994326673973660      1.354275126212231      0.606217782649106
C      -0.175673326026338      2.404275126212232     -0.606217782649106
C      -0.175673326026340     -2.404275126212231      0.606217782649108
C      -1.994326673973660     -1.354275126212232     -0.606217782649108
C       3.570000000000000     -1.212250905489056      0.021159918264603
C       3.570000000000000      1.212250905489056     -0.021159918264602
C      -2.694326673973661      2.566710691510445      0.606217782649107
C      -0.875673326026337      3.616710691510447     -0.606217782649105
C      -0.875673326026340     -3.616710691510445      0.606217782649107
C      -2.694326673973661     -2.566710691510445     -0.606217782649107
C       4.270000000000000      0.000000000000000      0.000000000000002
C      -2.135000000000001      3.697928474159553      0.000000000000002
C      -2.134999999999999     -3.697928474159552     -0.000000000000002
C       5.739999999999999      0.000000000000000      0.000000000000003
C       6.475000000000001     -1.273057343563124      0.000000000000003
C       6.474999999999998      1.273057343563126      0.000000000000004
C       5.915673326026342     -2.404275126212232      0.606217782649110
C       7.734326673973664     -1.354275126212228     -0.606217782649103
C       5.915673326026337      2.404275126212233     -0.606217782649103
C       7.734326673973657      1.354275126212235      0.606217782649114
C       6.615673326026343     -3.616710691510446      0.606217782649110
C       8.434326673973667     -2.566710691510441     -0.606217782649104
C       6.615673326026338      3.616710691510447     -0.606217782649102
C       8.434326673973656      2.566710691510450      0.606217782649116
C       7.875000000000004     -3.697928474159552      0.000000000000005
C       7.874999999999997      3.697928474159554      0.000000000000006
H       1.629999999999999     -2.147415889723470      0.037483283783009
H       1.630000000000000      2.147415889723470     -0.037483283783009
H      -2.425807251039055      0.481621408168634      1.073871500692702
H       0.795807251039057      2.341621408168635     -1.073871500692702
H       0.795807251039055     -2.341621408168633      1.073871500692706
H      -2.425807251039056     -0.481621408168635     -1.073871500692705
H       4.109999999999999     -2.147415889723470      0.037483283783010
H       4.110000000000001      2.147415889723470     -0.037483283783009
H      -3.665807251039056      2.629364409554042      1.073871500692704
H      -0.444192748960941      4.489364409554043     -1.073871500692701
H      -0.444192748960944     -4.489364409554041      1.073871500692706
H      -3.665807251039057     -2.629364409554041     -1.073871500692704
H      -2.675000000000001      4.633235910246746      0.000000000000003
H      -2.674999999999998     -4.633235910246746     -0.000000000000001
H       4.944192748960946     -2.341621408168636      1.073871500692706
H       8.165807251039057     -0.481621408168631     -1.073871500692699
H       4.944192748960943      2.341621408168636     -1.073871500692701
H       8.165807251039052      0.481621408168639      1.073871500692712
H       6.184192748960949     -4.489364409554042      1.073871500692707
H       9.405807251039063     -2.629364409554035     -1.073871500692700
H       6.184192748960943      4.489364409554045     -1.073871500692699
H       9.405807251039050      2.629364409554047      1.073871500692715
H       8.415000000000004     -4.633235910246745      0.000000000000005
H       8.414999999999996      4.633235910246747      0.000000000000006
