56

C       0.000000000000000      0.000000000000000      0.000000000000000
C       1.470000000000000      0.000000000000000      0.000000000000000
C      -0.735000000000000      1.273057343563125      0.000000000000000
C      -0.735000000000000     -1.273057343563125     -0.000000000000000
C       2.170000000000000     -0.210537226452609      1.194015944733420
C       2.170000000000001      0.210537226452609     -1.194015944733420
C      -1.994326673973660      1.354275126212232      0.606217782649106
C      -0.175673326026338      2.404275126212232     -0.606217782649106
C      -0.175673326026341     -2.404275126212231      0.606217782649108
C      -1.994326673973660     -1.354275126212233     -0.606217782649109
C       3.570000000000000     -0.210537226452608      1.194015944733420
C       3.570000000000001      0.210537226452609     -1.194015944733419
C      -2.694326673973659      2.566710691510447      0.606217782649107
C      -0.875673326026338      3.616710691510446     -0.606217782649107
C      -0.875673326026341     -3.616710691510445      0.606217782649108
C      -2.694326673973660     -2.566710691510447     -0.606217782649109
C       4.269999999999999      0.000000000000003      0.000000000000000
C      -2.134999999999998      3.697928474159554      0.000000000000000
C      -2.135000000000000     -3.697928474159552      0.000000000000000
C       5.739999999999998      0.000000000000004     -0.000000000000001
C       6.475000000000001     -1.273057343563119     -0.000000000000004
C       6.474999999999997      1.273057343563130      0.000000000000002
C       5.915673326026343     -2.404275126212229      0.606217782649102
C       7.734326673973662     -1.354275126212221     -0.606217782649111
C       5.915673326026335      2.404275126212238     -0.606217782649104
C       7.734326673973657      1.354275126212237      0.606217782649110
C       6.615673326026345     -3.616710691510442      0.606217782649099
C       8.434326673973665     -2.566710691510433     -0.606217782649116
C       6.615673326026334      3.616710691510455     -0.606217782649101
C       8.434326673973656      2.566710691510453      0.606217782649112
C       7.875000000000005     -3.697928474159546     -0.000000000000009
C       7.874999999999995      3.697928474159563      0.000000000000007
H       1.630000000000000     -0.372951658287479      2.115113959242059
H       1.630000000000002      0.372951658287479     -2.115113959242059
H      -2.425807251039056      0.481621408168636      1.073871500692702
H       0.795807251039058      2.341621408168635     -1.073871500692703
H       0.795807251039054     -2.341621408168634      1.073871500692706
H      -2.425807251039054     -0.481621408168637     -1.073871500692707
H       4.109999999999999     -0.372951658287478      2.115113959242059
H       4.110000000000001      0.372951658287479     -2.115113959242056
H      -3.665807251039055      2.629364409554044      1.073871500692703
H      -0.444192748960942      4.489364409554043     -1.073871500692704
H      -0.444192748960946     -4.489364409554041      1.073871500692707
H      -3.665807251039054     -2.629364409554044     -1.073871500692707
H      -2.674999999999997      4.633235910246748     -0.000000000000001
H      -2.674999999999999     -4.633235910246746      0.000000000000000
H       4.944192748960949     -2.341621408168635      1.073871500692699
H       8.165807251039055     -0.481621408168622     -1.073871500692707
H       4.944192748960940      2.341621408168641     -1.073871500692701
H       8.165807251039052      0.481621408168640      1.073871500692704
H       6.184192748960951     -4.489364409554041      1.073871500692694
H       9.405807251039061     -2.629364409554027     -1.073871500692713
H       6.184192748960938      4.489364409554051     -1.073871500692696
H       9.405807251039050      2.629364409554050      1.073871500692708
H       8.415000000000006     -4.633235910246738     -0.000000000000010
H       8.414999999999994      4.633235910246757      0.000000000000009
