56

C       0.000000000000000      0.000000000000000      0.000000000000000
C       1.470000000000000      0.000000000000000      0.000000000000000
C      -0.735000000000000      1.273057343563125      0.000000000000000
C      -0.735000000000000     -1.273057343563125     -0.000000000000000
C       2.169999999999999      0.493141971775106      1.107615003362522
C       2.169999999999999     -0.493141971775106     -1.107615003362522
C      -1.994326673973661      1.354275126212231      0.606217782649106
C      -0.175673326026340      2.404275126212232     -0.606217782649106
C      -0.175673326026340     -2.404275126212232      0.606217782649108
C      -1.994326673973660     -1.354275126212238     -0.606217782649108
C       3.569999999999999      0.493141971775106      1.107615003362522
C       3.569999999999999     -0.493141971775106     -1.107615003362522
C      -2.694326673973661      2.566710691510445      0.606217782649106
C      -0.875673326026340      3.616710691510447     -0.606217782649105
C      -0.875673326026341     -3.616710691510445      0.606217782649108
C      -2.694326673973656     -2.566710691510455     -0.606217782649106
C       4.270000000000000      0.000000000000001     -0.000000000000001
C      -2.135000000000001      3.697928474159552     -0.000000000000001
C      -2.135000000000001     -3.697928474159552     -0.000000000000000
C       5.739999999999999      0.000000000000001     -0.000000000000001
C       6.475000000000000     -1.273057343563123      0.000000000000000
C       6.474999999999995      1.273057343563128     -0.000000000000001
C       5.915673326026340     -2.404275126212229      0.606217782649110
C       7.734326673973659     -1.354275126212231     -0.606217782649109
C       5.915673326026331      2.404275126212233     -0.606217782649108
C       7.734326673973656      1.354275126212240      0.606217782649105
C       6.615673326026341     -3.616710691510443      0.606217782649110
C       8.434326673973658     -2.566710691510445     -0.606217782649108
C       6.615673326026328      3.616710691510449     -0.606217782649109
C       8.434326673973651      2.566710691510457      0.606217782649105
C       7.875000000000001     -3.697928474159550      0.000000000000002
C       7.874999999999988      3.697928474159560     -0.000000000000002
H       1.630000000000000      0.873565778573044      1.962060863099326
H       1.629999999999999     -0.873565778573045     -1.962060863099325
H      -2.425807251039056      0.481621408168634      1.073871500692702
H       0.795807251039056      2.341621408168635     -1.073871500692703
H       0.795807251039054     -2.341621408168635      1.073871500692706
H      -2.425807251039058     -0.481621408168645     -1.073871500692708
H       4.109999999999999      0.873565778573045      1.962060863099325
H       4.109999999999999     -0.873565778573045     -1.962060863099325
H      -3.665807251039057      2.629364409554042      1.073871500692702
H      -0.444192748960945      4.489364409554044     -1.073871500692701
H      -0.444192748960946     -4.489364409554042      1.073871500692706
H      -3.665807251039050     -2.629364409554055     -1.073871500692704
H      -2.675000000000001      4.633235910246746      0.000000000000001
H      -2.675000000000000     -4.633235910246746     -0.000000000000002
H       4.944192748960945     -2.341621408168632      1.073871500692707
H       8.165807251039055     -0.481621408168636     -1.073871500692707
H       4.944192748960936      2.341621408168633     -1.073871500692705
H       8.165807251039055      0.481621408168644      1.073871500692702
H       6.184192748960948     -4.489364409554040      1.073871500692709
H       9.405807251039054     -2.629364409554044     -1.073871500692706
H       6.184192748960930      4.489364409554044     -1.073871500692705
H       9.405807251039045      2.629364409554059      1.073871500692701
H       8.415000000000001     -4.633235910246743      0.000000000000003
H       8.414999999999985      4.633235910246755     -0.000000000000001
