56

C       0.000000000000000      0.000000000000000      0.000000000000000
C       1.470000000000000      0.000000000000000      0.000000000000000
C      -0.735000000000000      1.273057343563125      0.000000000000000
C      -0.734999999999999     -1.273057343563125     -0.000000000000000
C       2.169999999999999      1.005154637934231      0.677985364030305
C       2.170000000000000     -1.005154637934230     -0.677985364030305
C      -1.994326673973660      1.354275126212232      0.606217782649106
C      -0.175673326026339      2.404275126212233     -0.606217782649106
C      -0.175673326026339     -2.404275126212232      0.606217782649108
C      -1.994326673973659     -1.354275126212234     -0.606217782649107
C       3.569999999999999      1.005154637934233      0.677985364030304
C       3.569999999999999     -1.005154637934230     -0.677985364030305
C      -2.694326673973661      2.566710691510447      0.606217782649107
C      -0.875673326026340      3.616710691510446     -0.606217782649106
C      -0.875673326026338     -3.616710691510447      0.606217782649107
C      -2.694326673973658     -2.566710691510449     -0.606217782649107
C       4.270000000000000      0.000000000000003     -0.000000000000001
C      -2.135000000000000      3.697928474159554      0.000000000000000
C      -2.134999999999997     -3.697928474159554     -0.000000000000003
C       5.740000000000001      0.000000000000006     -0.000000000000002
C       6.475000000000007     -1.273057343563116     -0.000000000000004
C       6.474999999999999      1.273057343563132     -0.000000000000002
C       5.915673326026351     -2.404275126212227      0.606217782649103
C       7.734326673973667     -1.354275126212217     -0.606217782649111
C       5.915673326026337      2.404275126212239     -0.606217782649109
C       7.734326673973658      1.354275126212242      0.606217782649107
C       6.615673326026355     -3.616710691510437      0.606217782649101
C       8.434326673973672     -2.566710691510426     -0.606217782649113
C       6.615673326026335      3.616710691510454     -0.606217782649108
C       8.434326673973656      2.566710691510458      0.606217782649108
C       7.875000000000016     -3.697928474159538     -0.000000000000006
C       7.874999999999996      3.697928474159562      0.000000000000001
H       1.629999999999998      1.780559644340638      1.201002644853683
H       1.630000000000000     -1.780559644340637     -1.201002644853683
H      -2.425807251039056      0.481621408168636      1.073871500692703
H       0.795807251039056      2.341621408168637     -1.073871500692702
H       0.795807251039056     -2.341621408168634      1.073871500692706
H      -2.425807251039055     -0.481621408168637     -1.073871500692704
H       4.109999999999999      1.780559644340640      1.201002644853682
H       4.109999999999999     -1.780559644340636     -1.201002644853683
H      -3.665807251039056      2.629364409554043      1.073871500692704
H      -0.444192748960946      4.489364409554044     -1.073871500692701
H      -0.444192748960943     -4.489364409554044      1.073871500692703
H      -3.665807251039054     -2.629364409554046     -1.073871500692705
H      -2.674999999999999      4.633235910246749     -0.000000000000000
H      -2.674999999999997     -4.633235910246748     -0.000000000000003
H       4.944192748960956     -2.341621408168634      1.073871500692700
H       8.165807251039059     -0.481621408168618     -1.073871500692706
H       4.944192748960941      2.341621408168640     -1.073871500692706
H       8.165807251039055      0.481621408168646      1.073871500692705
H       6.184192748960964     -4.489364409554036      1.073871500692698
H       9.405807251039068     -2.629364409554018     -1.073871500692710
H       6.184192748960938      4.489364409554051     -1.073871500692705
H       9.405807251039050      2.629364409554058      1.073871500692705
H       8.415000000000020     -4.633235910246730     -0.000000000000006
H       8.414999999999996      4.633235910246756      0.000000000000002
