56

C       0.000000000000000      0.000000000000000      0.000000000000000
C       1.470000000000000      0.000000000000000      0.000000000000000
C      -0.734999999999998      1.273057343563126      0.000000000000000
C      -0.735000000000000     -1.273057343563125     -0.000000000000000
C       2.169999999999999      0.354481853092714      1.159457897393414
C       2.169999999999999     -0.354481853092714     -1.159457897393414
C      -1.994326673973659      1.354275126212235      0.606217782649106
C      -0.175673326026335      2.404275126212232     -0.606217782649106
C      -0.175673326026338     -2.404275126212231      0.606217782649106
C      -1.994326673973637     -1.354275126211828     -0.606217782649210
C       3.569999999999999      0.354481853092715      1.159457897393415
C       3.569999999999999     -0.354481853092714     -1.159457897393415
C      -2.694326673973658      2.566710691510449      0.606217782649106
C      -0.875673326026333      3.616710691510447     -0.606217782649106
C      -0.875673326026337     -3.616710691510446      0.606217782649107
C      -2.694326673973950     -2.566710691509862     -0.606217782649419
C       4.270000000000000      0.000000000000001      0.000000000000002
C      -2.134999999999996      3.697928474159555     -0.000000000000001
C      -2.134999999999998     -3.697928474159554      0.000000000000002
C       5.739999999999999      0.000000000000002      0.000000000000002
C       6.475000000000000     -1.273057343563123      0.000000000000002
C       6.475000000000000      1.273057343563126      0.000000000000003
C       5.915673326026339     -2.404275126212230      0.606217782649108
C       7.734326673973660     -1.354275126212230     -0.606217782649105
C       5.915673326026340      2.404275126212234     -0.606217782649104
C       7.734326673973659      1.354275126212232      0.606217782649111
C       6.615673326026341     -3.616710691510444      0.606217782649108
C       8.434326673973661     -2.566710691510444     -0.606217782649104
C       6.615673326026340      3.616710691510447     -0.606217782649104
C       8.434326673973660      2.566710691510445      0.606217782649112
C       7.875000000000002     -3.697928474159549      0.000000000000001
C       7.875000000000001      3.697928474159553      0.000000000000004
H       1.629999999999999      0.627939282621379      2.053896846811190
H       1.629999999999998     -0.627939282621379     -2.053896846811190
H      -2.425807251039056      0.481621408168639      1.073871500692703
H       0.795807251039060      2.341621408168634     -1.073871500692703
H       0.795807251039057     -2.341621408168634      1.073871500692702
H      -2.425807251038773     -0.481621408168060     -1.073871500692725
H       4.109999999999999      0.627939282621380      2.053896846811191
H       4.109999999999998     -0.627939282621380     -2.053896846811192
H      -3.665807251039054      2.629364409554046      1.073871500692703
H      -0.444192748960935      4.489364409554044     -1.073871500692703
H      -0.444192748960940     -4.489364409554041      1.073871500692704
H      -3.665807251039327     -2.629364409553148     -1.073871500693095
H      -2.674999999999994      4.633235910246750     -0.000000000000001
H      -2.674999999999997     -4.633235910246748      0.000000000000002
H       4.944192748960943     -2.341621408168634      1.073871500692704
H       8.165807251039055     -0.481621408168634     -1.073871500692702
H       4.944192748960945      2.341621408168638     -1.073871500692702
H       8.165807251039054      0.481621408168634      1.073871500692710
H       6.184192748960947     -4.489364409554041      1.073871500692703
H       9.405807251039057     -2.629364409554040     -1.073871500692702
H       6.184192748960946      4.489364409554044     -1.073871500692701
H       9.405807251039056      2.629364409554042      1.073871500692710
H       8.415000000000003     -4.633235910246741      0.000000000000002
H       8.415000000000001      4.633235910246746      0.000000000000006
