56

C       0.000000000000000      0.000000000000000      0.000000000000000
C       1.470000000000000      0.000000000000000      0.000000000000000
C      -0.735000000000000      1.273057343563125      0.000000000000000
C      -0.735000000000000     -1.273057343563124     -0.000000000000000
C       2.170000000000000     -1.171122825232931      0.313801415258820
C       2.169999999999999      1.171122825232931     -0.313801415258820
C      -1.994326673973660      1.354275126212232      0.606217782649106
C      -0.175673326026338      2.404275126212232     -0.606217782649106
C      -0.175673326026340     -2.404275126212232      0.606217782649106
C      -1.994326673973661     -1.354275126212231     -0.606217782649107
C       3.569999999999999     -1.171122825232931      0.313801415258821
C       3.569999999999999      1.171122825232932     -0.313801415258820
C      -2.694326673973660      2.566710691510446      0.606217782649106
C      -0.875673326026339      3.616710691510446     -0.606217782649108
C      -0.875673326026340     -3.616710691510446      0.606217782649107
C      -2.694326673973661     -2.566710691510445     -0.606217782649107
C       4.270000000000000      0.000000000000001      0.000000000000002
C      -2.134999999999999      3.697928474159553     -0.000000000000000
C      -2.135000000000001     -3.697928474159551      0.000000000000001
C       5.739999999999999      0.000000000000002      0.000000000000004
C       6.474999999999999     -1.273057343563123      0.000000000000009
C       6.474999999999999      1.273057343563127      0.000000000000002
C       5.915673326026337     -2.404275126212227      0.606217782649119
C       7.734326673973659     -1.354275126212232     -0.606217782649098
C       5.915673326026338      2.404275126212232     -0.606217782649109
C       7.734326673973658      1.354275126212237      0.606217782649111
C       6.615673326026337     -3.616710691510442      0.606217782649122
C       8.434326673973660     -2.566710691510447     -0.606217782649095
C       6.615673326026338      3.616710691510447     -0.606217782649112
C       8.434326673973660      2.566710691510451      0.606217782649109
C       7.874999999999998     -3.697928474159552      0.000000000000016
C       7.874999999999998      3.697928474159556     -0.000000000000004
H       1.630000000000001     -2.074560433269764      0.555876792744195
H       1.629999999999999      2.074560433269763     -0.555876792744195
H      -2.425807251039056      0.481621408168634      1.073871500692703
H       0.795807251039057      2.341621408168635     -1.073871500692703
H       0.795807251039056     -2.341621408168636      1.073871500692703
H      -2.425807251039057     -0.481621408168634     -1.073871500692703
H       4.109999999999999     -2.074560433269763      0.555876792744196
H       4.109999999999998      2.074560433269766     -0.555876792744195
H      -3.665807251039056      2.629364409554043      1.073871500692703
H      -0.444192748960943      4.489364409554043     -1.073871500692704
H      -0.444192748960944     -4.489364409554042      1.073871500692703
H      -3.665807251039057     -2.629364409554042     -1.073871500692702
H      -2.675000000000000      4.633235910246746     -0.000000000000001
H      -2.675000000000001     -4.633235910246745     -0.000000000000000
H       4.944192748960942     -2.341621408168629      1.073871500692714
H       8.165807251039055     -0.481621408168636     -1.073871500692697
H       4.944192748960943      2.341621408168633     -1.073871500692707
H       8.165807251039054      0.481621408168641      1.073871500692711
H       6.184192748960941     -4.489364409554037      1.073871500692721
H       9.405807251039054     -2.629364409554046     -1.073871500692691
H       6.184192748960943      4.489364409554042     -1.073871500692711
H       9.405807251039054      2.629364409554048      1.073871500692707
H       8.414999999999997     -4.633235910246746      0.000000000000019
H       8.414999999999999      4.633235910246750     -0.000000000000006
