56

C       0.000000000000000      0.000000000000000      0.000000000000000
C       1.470000000000000      0.000000000000000      0.000000000000000
C      -0.735000000000000      1.273057343563125      0.000000000000000
C      -0.735000000000000     -1.273057343563125     -0.000000000000000
C       2.170000000000000      1.207821881927949      0.105670722227243
C       2.170000000000001     -1.207821881927949     -0.105670722227242
C      -1.994326673973660      1.354275126212232      0.606217782649106
C      -0.175673326026338      2.404275126212232     -0.606217782649106
C      -0.175673326026333     -2.404275126212228      0.606217782649109
C      -1.994326673973660     -1.354275126212228     -0.606217782649108
C       3.570000000000000      1.207821881927949      0.105670722227241
C       3.570000000000000     -1.207821881927948     -0.105670722227242
C      -2.694326673973660      2.566710691510447      0.606217782649107
C      -0.875673326026338      3.616710691510446     -0.606217782649107
C      -0.875673326026326     -3.616710691510446      0.606217782649114
C      -2.694326673973662     -2.566710691510441     -0.606217782649111
C       4.270000000000000     -0.000000000000000     -0.000000000000002
C      -2.135000000000000      3.697928474159554     -0.000000000000000
C      -2.134999999999987     -3.697928474159562      0.000000000000008
C       5.739999999999999     -0.000000000000001     -0.000000000000004
C       6.475000000000001     -1.273057343563125     -0.000000000000007
C       6.475000000000000      1.273057343563123     -0.000000000000002
C       5.915673326026342     -2.404275126212234      0.606217782649099
C       7.734326673973661     -1.354275126212230     -0.606217782649115
C       5.915673326026340      2.404275126212230     -0.606217782649108
C       7.734326673973659      1.354275126212228      0.606217782649106
C       6.615673326026344     -3.616710691510447      0.606217782649096
C       8.434326673973661     -2.566710691510445     -0.606217782649117
C       6.615673326026340      3.616710691510443     -0.606217782649106
C       8.434326673973660      2.566710691510441      0.606217782649108
C       7.875000000000004     -3.697928474159551     -0.000000000000013
C       7.875000000000000      3.697928474159549      0.000000000000002
H       1.629999999999999      2.139570190843796      0.187188136516829
H       1.630000000000001     -2.139570190843796     -0.187188136516829
H      -2.425807251039056      0.481621408168635      1.073871500692703
H       0.795807251039057      2.341621408168635     -1.073871500692703
H       0.795807251039063     -2.341621408168625      1.073871500692705
H      -2.425807251039053     -0.481621408168630     -1.073871500692702
H       4.109999999999999      2.139570190843796      0.187188136516828
H       4.110000000000001     -2.139570190843795     -0.187188136516829
H      -3.665807251039055      2.629364409554043      1.073871500692702
H      -0.444192748960942      4.489364409554043     -1.073871500692704
H      -0.444192748960926     -4.489364409554041      1.073871500692713
H      -3.665807251039058     -2.629364409554035     -1.073871500692707
H      -2.674999999999999      4.633235910246748     -0.000000000000000
H      -2.674999999999983     -4.633235910246759      0.000000000000010
H       4.944192748960948     -2.341621408168639      1.073871500692696
H       8.165807251039057     -0.481621408168632     -1.073871500692709
H       4.944192748960944      2.341621408168634     -1.073871500692705
H       8.165807251039054      0.481621408168631      1.073871500692703
H       6.184192748960951     -4.489364409554045      1.073871500692690
H       9.405807251039057     -2.629364409554041     -1.073871500692714
H       6.184192748960945      4.489364409554042     -1.073871500692702
H       9.405807251039056      2.629364409554037      1.073871500692705
H       8.415000000000006     -4.633235910246744     -0.000000000000015
H       8.415000000000001      4.633235910246742      0.000000000000003
