56

C       0.000000000000000      0.000000000000000      0.000000000000000
C       1.470000000000000      0.000000000000000      0.000000000000000
C      -0.735000000000000      1.273057343563125      0.000000000000000
C      -0.735000000000000     -1.273057343563125     -0.000000000000000
C       2.170000000000000      1.159457897393413      0.354481853092714
C       2.169999999999999     -1.159457897393414     -0.354481853092713
C      -1.994326673973661      1.354275126212231      0.606217782649107
C      -0.175673326026339      2.404275126212232     -0.606217782649107
C      -0.175673326026341     -2.404275126212233      0.606217782649106
C      -1.994326673973660     -1.354275126212230     -0.606217782649108
C       3.570000000000000      1.159457897393414      0.354481853092714
C       3.570000000000000     -1.159457897393413     -0.354481853092713
C      -2.694326673973661      2.566710691510445      0.606217782649107
C      -0.875673326026338      3.616710691510447     -0.606217782649106
C      -0.875673326026344     -3.616710691510445      0.606217782649105
C      -2.694326673973662     -2.566710691510443     -0.606217782649108
C       4.270000000000000      0.000000000000000      0.000000000000001
C      -2.135000000000002      3.697928474159553      0.000000000000001
C      -2.135000000000005     -3.697928474159550     -0.000000000000002
C       5.740000000000000      0.000000000000001      0.000000000000001
C       6.474999999999999     -1.273057343563124      0.000000000000001
C       6.474999999999984      1.273057343563135      0.000000000000001
C       5.915673326026337     -2.404275126212231      0.606217782649107
C       7.734326673973660     -1.354275126212233     -0.606217782649106
C       5.915673326026309      2.404275126212235     -0.606217782649107
C       7.734326673973642      1.354275126212258      0.606217782649109
C       6.615673326026336     -3.616710691510446      0.606217782649106
C       8.434326673973660     -2.566710691510447     -0.606217782649106
C       6.615673326026293      3.616710691510457     -0.606217782649107
C       8.434326673973626      2.566710691510481      0.606217782649108
C       7.874999999999996     -3.697928474159554     -0.000000000000000
C       7.874999999999952      3.697928474159581      0.000000000000000
H       1.630000000000000      2.053896846811190      0.627939282621379
H       1.629999999999999     -2.053896846811190     -0.627939282621378
H      -2.425807251039056      0.481621408168634      1.073871500692703
H       0.795807251039057      2.341621408168636     -1.073871500692703
H       0.795807251039054     -2.341621408168637      1.073871500692703
H      -2.425807251039054     -0.481621408168632     -1.073871500692705
H       4.109999999999999      2.053896846811190      0.627939282621379
H       4.110000000000000     -2.053896846811188     -0.627939282621377
H      -3.665807251039057      2.629364409554042      1.073871500692703
H      -0.444192748960941      4.489364409554043     -1.073871500692703
H      -0.444192748960951     -4.489364409554044      1.073871500692701
H      -3.665807251039057     -2.629364409554038     -1.073871500692705
H      -2.675000000000002      4.633235910246746      0.000000000000002
H      -2.675000000000006     -4.633235910246742     -0.000000000000003
H       4.944192748960942     -2.341621408168634      1.073871500692704
H       8.165807251039057     -0.481621408168636     -1.073871500692701
H       4.944192748960915      2.341621408168625     -1.073871500692705
H       8.165807251039048      0.481621408168667      1.073871500692706
H       6.184192748960940     -4.489364409554041      1.073871500692702
H       9.405807251039056     -2.629364409554044     -1.073871500692702
H       6.184192748960887      4.489364409554048     -1.073871500692704
H       9.405807251039020      2.629364409554091      1.073871500692706
H       8.414999999999996     -4.633235910246748     -0.000000000000001
H       8.414999999999941      4.633235910246781      0.000000000000000
