56

C       0.000000000000000      0.000000000000000      0.000000000000000
C       1.470000000000000      0.000000000000000      0.000000000000000
C      -0.735000000000000      1.273057343563125      0.000000000000000
C      -0.735000000000000     -1.273057343563125     -0.000000000000000
C       2.170000000000000     -1.098839794109954      0.512397411078934
C       2.170000000000000      1.098839794109954     -0.512397411078933
C      -1.994326673973660      1.354275126212231      0.606217782649107
C      -0.175673326026338      2.404275126212232     -0.606217782649107
C      -0.175673326026339     -2.404275126212231      0.606217782649108
C      -1.994326673973660     -1.354275126212230     -0.606217782649108
C       3.570000000000000     -1.098839794109955      0.512397411078934
C       3.569999999999999      1.098839794109953     -0.512397411078934
C      -2.694326673973662      2.566710691510444      0.606217782649108
C      -0.875673326026337      3.616710691510446     -0.606217782649107
C      -0.875673326026338     -3.616710691510446      0.606217782649108
C      -2.694326673973661     -2.566710691510443     -0.606217782649109
C       4.270000000000001     -0.000000000000002      0.000000000000001
C      -2.135000000000003      3.697928474159553      0.000000000000002
C      -2.134999999999998     -3.697928474159554     -0.000000000000000
C       5.740000000000002     -0.000000000000003      0.000000000000002
C       6.475000000000001     -1.273057343563128      0.000000000000006
C       6.475000000000003      1.273057343563121      0.000000000000000
C       5.915673326026339     -2.404275126212233      0.606217782649116
C       7.734326673973660     -1.354275126212238     -0.606217782649101
C       5.915673326026345      2.404275126212227     -0.606217782649109
C       7.734326673973664      1.354275126212228      0.606217782649108
C       6.615673326026339     -3.616710691510448      0.606217782649118
C       8.434326673973660     -2.566710691510452     -0.606217782649099
C       6.615673326026346      3.616710691510440     -0.606217782649112
C       8.434326673973665      2.566710691510441      0.606217782649106
C       7.874999999999999     -3.697928474159557      0.000000000000011
C       7.875000000000005      3.697928474159547     -0.000000000000004
H       1.630000000000000     -1.946516206709062      0.907675413911254
H       1.630000000000000      1.946516206709062     -0.907675413911254
H      -2.425807251039056      0.481621408168633      1.073871500692703
H       0.795807251039058      2.341621408168635     -1.073871500692702
H       0.795807251039056     -2.341621408168634      1.073871500692706
H      -2.425807251039053     -0.481621408168632     -1.073871500692704
H       4.109999999999999     -1.946516206709064      0.907675413911255
H       4.109999999999999      1.946516206709060     -0.907675413911254
H      -3.665807251039057      2.629364409554039      1.073871500692704
H      -0.444192748960941      4.489364409554043     -1.073871500692703
H      -0.444192748960942     -4.489364409554041      1.073871500692706
H      -3.665807251039056     -2.629364409554039     -1.073871500692706
H      -2.675000000000003      4.633235910246746      0.000000000000002
H      -2.674999999999997     -4.633235910246747      0.000000000000000
H       4.944192748960944     -2.341621408168634      1.073871500692712
H       8.165807251039055     -0.481621408168643     -1.073871500692700
H       4.944192748960949      2.341621408168630     -1.073871500692707
H       8.165807251039057      0.481621408168632      1.073871500692708
H       6.184192748960942     -4.489364409554044      1.073871500692718
H       9.405807251039054     -2.629364409554050     -1.073871500692696
H       6.184192748960952      4.489364409554036     -1.073871500692711
H       9.405807251039061      2.629364409554038      1.073871500692704
H       8.414999999999997     -4.633235910246752      0.000000000000013
H       8.415000000000006      4.633235910246741     -0.000000000000005
