56

C       0.000000000000000      0.000000000000000      0.000000000000000
C       1.470000000000000      0.000000000000000      0.000000000000000
C      -0.734999999999999      1.273057343563125      0.000000000000000
C      -0.735000000000000     -1.273057343563124     -0.000000000000000
C       2.170000000000000      1.210773964493654      0.063453974692836
C       2.170000000000000     -1.210773964493654     -0.063453974692837
C      -1.994326673973660      1.354275126212231      0.606217782649107
C      -0.175673326026338      2.404275126212232     -0.606217782649106
C      -0.175673326026341     -2.404275126212232      0.606217782649108
C      -1.994326673973661     -1.354275126212234     -0.606217782649107
C       3.570000000000000      1.210773964493653      0.063453974692836
C       3.570000000000000     -1.210773964493654     -0.063453974692837
C      -2.694326673973660      2.566710691510445      0.606217782649107
C      -0.875673326026336      3.616710691510447     -0.606217782649106
C      -0.875673326026342     -3.616710691510445      0.606217782649105
C      -2.694326673973659     -2.566710691510449     -0.606217782649108
C       4.269999999999999     -0.000000000000002     -0.000000000000001
C      -2.135000000000001      3.697928474159553     -0.000000000000000
C      -2.135000000000001     -3.697928474159550     -0.000000000000005
C       5.739999999999998     -0.000000000000003     -0.000000000000003
C       6.474999999999997     -1.273057343563129     -0.000000000000007
C       6.475000000000000      1.273057343563121      0.000000000000000
C       5.915673326026335     -2.404275126212237      0.606217782649098
C       7.734326673973657     -1.354275126212236     -0.606217782649115
C       5.915673326026340      2.404275126212229     -0.606217782649104
C       7.734326673973661      1.354275126212225      0.606217782649107
C       6.615673326026333     -3.616710691510452      0.606217782649095
C       8.434326673973654     -2.566710691510452     -0.606217782649118
C       6.615673326026341      3.616710691510442     -0.606217782649101
C       8.434326673973661      2.566710691510440      0.606217782649109
C       7.874999999999994     -3.697928474159558     -0.000000000000013
C       7.875000000000002      3.697928474159546      0.000000000000006
H       1.630000000000001      2.144799594245902      0.112404183741596
H       1.630000000000000     -2.144799594245901     -0.112404183741596
H      -2.425807251039055      0.481621408168633      1.073871500692703
H       0.795807251039058      2.341621408168635     -1.073871500692702
H       0.795807251039054     -2.341621408168636      1.073871500692706
H      -2.425807251039058     -0.481621408168638     -1.073871500692705
H       4.110000000000000      2.144799594245900      0.112404183741595
H       4.110000000000000     -2.144799594245901     -0.112404183741597
H      -3.665807251039056      2.629364409554041      1.073871500692704
H      -0.444192748960940      4.489364409554042     -1.073871500692702
H      -0.444192748960948     -4.489364409554042      1.073871500692702
H      -3.665807251039054     -2.629364409554048     -1.073871500692706
H      -2.675000000000001      4.633235910246746      0.000000000000001
H      -2.675000000000001     -4.633235910246745     -0.000000000000006
H       4.944192748960939     -2.341621408168640      1.073871500692696
H       8.165807251039054     -0.481621408168639     -1.073871500692710
H       4.944192748960945      2.341621408168634     -1.073871500692700
H       8.165807251039057      0.481621408168627      1.073871500692701
H       6.184192748960936     -4.489364409554049      1.073871500692689
H       9.405807251039050     -2.629364409554050     -1.073871500692716
H       6.184192748960946      4.489364409554041     -1.073871500692695
H       9.405807251039057      2.629364409554035      1.073871500692705
H       8.414999999999994     -4.633235910246753     -0.000000000000016
H       8.415000000000004      4.633235910246739      0.000000000000008
