56

C       0.000000000000000      0.000000000000000      0.000000000000000
C       1.470000000000000      0.000000000000000      0.000000000000000
C      -0.734999999999990      1.273057343563130      0.000000000000000
C      -0.735000000000000     -1.273057343563125     -0.000000000000000
C       2.170000000000000      0.550434228191736      1.080287998838721
C       2.169999999999999     -0.550434228191736     -1.080287998838721
C      -1.994326673973650      1.354275126212247      0.606217782649106
C      -0.175673326026321      2.404275126212233     -0.606217782649106
C      -0.175673326026336     -2.404275126212229      0.606217782649109
C      -1.994326673973660     -1.354275126212223     -0.606217782649109
C       3.570000000000000      0.550434228191737      1.080287998838721
C       3.569999999999999     -0.550434228191736     -1.080287998838720
C      -2.694326673973642      2.566710691510466      0.606217782649107
C      -0.875673326026311      3.616710691510453     -0.606217782649106
C      -0.875673326026333     -3.616710691510445      0.606217782649110
C      -2.694326673973665     -2.566710691510433     -0.606217782649114
C       4.270000000000000      0.000000000000001      0.000000000000000
C      -2.134999999999972      3.697928474159569      0.000000000000001
C      -2.134999999999994     -3.697928474159556      0.000000000000003
C       5.739999999999998      0.000000000000001     -0.000000000000001
C       6.474999999999999     -1.273057343563123     -0.000000000000005
C       6.475000000000037      1.273057343563103      0.000000000000001
C       5.915673326026339     -2.404275126212232      0.606217782649100
C       7.734326673973658     -1.354275126212229     -0.606217782649112
C       5.915673326026410      2.404275126212228     -0.606217782649104
C       7.734326673973700      1.354275126212171      0.606217782649108
C       6.615673326026339     -3.616710691510445      0.606217782649096
C       8.434326673973658     -2.566710691510443     -0.606217782649117
C       6.615673326026446      3.616710691510421     -0.606217782649103
C       8.434326673973738      2.566710691510365      0.606217782649110
C       7.874999999999999     -3.697928474159549     -0.000000000000013
C       7.875000000000109      3.697928474159490      0.000000000000005
H       1.630000000000000      0.975054918511076      1.913653026514305
H       1.629999999999999     -0.975054918511075     -1.913653026514304
H      -2.425807251039053      0.481621408168654      1.073871500692703
H       0.795807251039074      2.341621408168628     -1.073871500692703
H       0.795807251039059     -2.341621408168630      1.073871500692705
H      -2.425807251039049     -0.481621408168622     -1.073871500692704
H       4.110000000000001      0.975054918511076      1.913653026514305
H       4.109999999999999     -0.975054918511075     -1.913653026514304
H      -3.665807251039037      2.629364409554070      1.073871500692704
H      -0.444192748960908      4.489364409554046     -1.073871500692703
H      -0.444192748960936     -4.489364409554041      1.073871500692709
H      -3.665807251039060     -2.629364409554024     -1.073871500692712
H      -2.674999999999965      4.633235910246768      0.000000000000000
H      -2.674999999999992     -4.633235910246750      0.000000000000004
H       4.944192748960943     -2.341621408168637      1.073871500692698
H       8.165807251039054     -0.481621408168631     -1.073871500692708
H       4.944192748961012      2.341621408168661     -1.073871500692702
H       8.165807251039070      0.481621408168561      1.073871500692703
H       6.184192748960946     -4.489364409554044      1.073871500692691
H       9.405807251039052     -2.629364409554039     -1.073871500692715
H       6.184192748961077      4.489364409554032     -1.073871500692699
H       9.405807251039136      2.629364409553931      1.073871500692707
H       8.414999999999999     -4.633235910246742     -0.000000000000016
H       8.415000000000136      4.633235910246666      0.000000000000005
