56

C       0.000000000000000      0.000000000000000      0.000000000000000
C       1.470000000000000      0.000000000000000      0.000000000000000
C      -0.735000000000001      1.273057343563124      0.000000000000000
C      -0.735000000000000     -1.273057343563125     -0.000000000000000
C       2.170000000000000     -1.176421047393879      0.293314710249398
C       2.169999999999999      1.176421047393879     -0.293314710249398
C      -1.994326673973662      1.354275126212229      0.606217782649107
C      -0.175673326026340      2.404275126212232     -0.606217782649106
C      -0.175673326026340     -2.404275126212231      0.606217782649108
C      -1.994326673973660     -1.354275126212232     -0.606217782649107
C       3.570000000000000     -1.176421047393878      0.293314710249399
C       3.569999999999999      1.176421047393880     -0.293314710249398
C      -2.694326673973663      2.566710691510442      0.606217782649108
C      -0.875673326026341      3.616710691510446     -0.606217782649106
C      -0.875673326026340     -3.616710691510445      0.606217782649108
C      -2.694326673973660     -2.566710691510446     -0.606217782649107
C       4.270000000000000      0.000000000000002      0.000000000000002
C      -2.135000000000004      3.697928474159551      0.000000000000002
C      -2.135000000000000     -3.697928474159551     -0.000000000000000
C       5.740000000000000      0.000000000000002      0.000000000000003
C       6.475000000000000     -1.273057343563123      0.000000000000005
C       6.475000000000002      1.273057343563125      0.000000000000002
C       5.915673326026339     -2.404275126212228      0.606217782649115
C       7.734326673973660     -1.354275126212232     -0.606217782649103
C       5.915673326026345      2.404275126212232     -0.606217782649107
C       7.734326673973663      1.354275126212231      0.606217782649110
C       6.615673326026339     -3.616710691510443      0.606217782649117
C       8.434326673973661     -2.566710691510447     -0.606217782649101
C       6.615673326026347      3.616710691510444     -0.606217782649108
C       8.434326673973665      2.566710691510444      0.606217782649110
C       7.874999999999998     -3.697928474159551      0.000000000000011
C       7.875000000000007      3.697928474159550     -0.000000000000001
H       1.630000000000000     -2.083945855383443      0.519586058156078
H       1.629999999999999      2.083945855383444     -0.519586058156077
H      -2.425807251039056      0.481621408168631      1.073871500692703
H       0.795807251039055      2.341621408168635     -1.073871500692703
H       0.795807251039054     -2.341621408168634      1.073871500692706
H      -2.425807251039056     -0.481621408168635     -1.073871500692704
H       4.110000000000000     -2.083945855383441      0.519586058156078
H       4.109999999999999      2.083945855383444     -0.519586058156077
H      -3.665807251039058      2.629364409554037      1.073871500692704
H      -0.444192748960946      4.489364409554042     -1.073871500692703
H      -0.444192748960946     -4.489364409554042      1.073871500692706
H      -3.665807251039055     -2.629364409554042     -1.073871500692704
H      -2.675000000000005      4.633235910246744      0.000000000000003
H      -2.675000000000000     -4.633235910246745     -0.000000000000000
H       4.944192748960943     -2.341621408168630      1.073871500692712
H       8.165807251039055     -0.481621408168636     -1.073871500692702
H       4.944192748960949      2.341621408168636     -1.073871500692705
H       8.165807251039057      0.481621408168634      1.073871500692708
H       6.184192748960944     -4.489364409554040      1.073871500692716
H       9.405807251039056     -2.629364409554044     -1.073871500692699
H       6.184192748960953      4.489364409554042     -1.073871500692706
H       9.405807251039061      2.629364409554041      1.073871500692707
H       8.414999999999999     -4.633235910246746      0.000000000000013
H       8.415000000000008      4.633235910246741     -0.000000000000002
