56

C       0.000000000000000      0.000000000000000      0.000000000000000
C       1.470000000000000      0.000000000000000      0.000000000000000
C      -0.735000000000000      1.273057343563125      0.000000000000000
C      -0.735000000000000     -1.273057343563124     -0.000000000000000
C       2.169999999999999     -0.147758726263942      1.203398254449813
C       2.169999999999999      0.147758726263942     -1.203398254449813
C      -1.994326673973661      1.354275126212231      0.606217782649107
C      -0.175673326026338      2.404275126212231     -0.606217782649107
C      -0.175673326026341     -2.404275126212231      0.606217782649108
C      -1.994326673973660     -1.354275126212231     -0.606217782649109
C       3.569999999999999     -0.147758726263942      1.203398254449813
C       3.570000000000000      0.147758726263941     -1.203398254449814
C      -2.694326673973662      2.566710691510445      0.606217782649107
C      -0.875673326026338      3.616710691510446     -0.606217782649107
C      -0.875673326026341     -3.616710691510445      0.606217782649108
C      -2.694326673973660     -2.566710691510444     -0.606217782649109
C       4.270000000000000     -0.000000000000000      0.000000000000001
C      -2.135000000000003      3.697928474159553      0.000000000000001
C      -2.135000000000001     -3.697928474159552     -0.000000000000001
C       5.739999999999999      0.000000000000000      0.000000000000001
C       6.474999999999998     -1.273057343563125      0.000000000000002
C       6.475000000000000      1.273057343563125      0.000000000000001
C       5.915673326026337     -2.404275126212230      0.606217782649111
C       7.734326673973658     -1.354275126212234     -0.606217782649106
C       5.915673326026339      2.404275126212232     -0.606217782649106
C       7.734326673973661      1.354275126212231      0.606217782649108
C       6.615673326026336     -3.616710691510445      0.606217782649113
C       8.434326673973656     -2.566710691510448     -0.606217782649104
C       6.615673326026339      3.616710691510446     -0.606217782649106
C       8.434326673973663      2.566710691510445      0.606217782649109
C       7.874999999999996     -3.697928474159554      0.000000000000006
C       7.875000000000000      3.697928474159553      0.000000000000001
H       1.629999999999999     -0.261744029381840      2.131734050739669
H       1.629999999999999      0.261744029381840     -2.131734050739669
H      -2.425807251039056      0.481621408168634      1.073871500692703
H       0.795807251039058      2.341621408168634     -1.073871500692703
H       0.795807251039054     -2.341621408168634      1.073871500692706
H      -2.425807251039053     -0.481621408168634     -1.073871500692707
H       4.109999999999999     -0.261744029381840      2.131734050739670
H       4.109999999999999      0.261744029381839     -2.131734050739670
H      -3.665807251039058      2.629364409554040      1.073871500692704
H      -0.444192748960942      4.489364409554043     -1.073871500692703
H      -0.444192748960947     -4.489364409554041      1.073871500692707
H      -3.665807251039054     -2.629364409554039     -1.073871500692709
H      -2.675000000000003      4.633235910246746     -0.000000000000000
H      -2.675000000000001     -4.633235910246746     -0.000000000000002
H       4.944192748960941     -2.341621408168632      1.073871500692709
H       8.165807251039054     -0.481621408168638     -1.073871500692704
H       4.944192748960943      2.341621408168635     -1.073871500692703
H       8.165807251039057      0.481621408168633      1.073871500692704
H       6.184192748960940     -4.489364409554041      1.073871500692711
H       9.405807251039050     -2.629364409554048     -1.073871500692702
H       6.184192748960944      4.489364409554042     -1.073871500692703
H       9.405807251039057      2.629364409554040      1.073871500692706
H       8.414999999999996     -4.633235910246748      0.000000000000008
H       8.414999999999999      4.633235910246746      0.000000000000001
