56

C       0.000000000000000      0.000000000000000      0.000000000000000
C       1.470000000000000      0.000000000000000      0.000000000000000
C      -0.735000000000000      1.273057343563125      0.000000000000000
C      -0.735000000000000     -1.273057343563125     -0.000000000000000
C       2.170000000000000     -1.016834024145884      0.660339736301918
C       2.169999999999999      1.016834024145885     -0.660339736301918
C      -1.994326673973660      1.354275126212231      0.606217782649106
C      -0.175673326026338      2.404275126212231     -0.606217782649106
C      -0.175673326026338     -2.404275126212230      0.606217782649108
C      -1.994326673973660     -1.354275126212228     -0.606217782649109
C       3.570000000000001     -1.016834024145884      0.660339736301919
C       3.569999999999999      1.016834024145885     -0.660339736301918
C      -2.694326673973661      2.566710691510446      0.606217782649107
C      -0.875673326026338      3.616710691510446     -0.606217782649107
C      -0.875673326026337     -3.616710691510446      0.606217782649109
C      -2.694326673973662     -2.566710691510441     -0.606217782649111
C       4.270000000000000      0.000000000000001      0.000000000000001
C      -2.134999999999999      3.697928474159553      0.000000000000001
C      -2.134999999999996     -3.697928474159555      0.000000000000001
C       5.740000000000000      0.000000000000002      0.000000000000000
C       6.475000000000001     -1.273057343563123     -0.000000000000000
C       6.475000000000000      1.273057343563126      0.000000000000001
C       5.915673326026340     -2.404275126212230      0.606217782649106
C       7.734326673973661     -1.354275126212231     -0.606217782649108
C       5.915673326026339      2.404275126212233     -0.606217782649106
C       7.734326673973659      1.354275126212234      0.606217782649110
C       6.615673326026340     -3.616710691510445      0.606217782649105
C       8.434326673973661     -2.566710691510445     -0.606217782649109
C       6.615673326026339      3.616710691510448     -0.606217782649105
C       8.434326673973660      2.566710691510449      0.606217782649110
C       7.875000000000002     -3.697928474159552     -0.000000000000002
C       7.875000000000000      3.697928474159555      0.000000000000003
H       1.630000000000001     -1.801248842772709      1.169744675734827
H       1.629999999999999      1.801248842772710     -1.169744675734827
H      -2.425807251039056      0.481621408168634      1.073871500692703
H       0.795807251039057      2.341621408168633     -1.073871500692702
H       0.795807251039057     -2.341621408168631      1.073871500692705
H      -2.425807251039052     -0.481621408168630     -1.073871500692706
H       4.110000000000001     -1.801248842772709      1.169744675734827
H       4.109999999999999      1.801248842772711     -1.169744675734826
H      -3.665807251039056      2.629364409554042      1.073871500692703
H      -0.444192748960942      4.489364409554042     -1.073871500692703
H      -0.444192748960941     -4.489364409554042      1.073871500692706
H      -3.665807251039057     -2.629364409554035     -1.073871500692710
H      -2.675000000000000      4.633235910246746      0.000000000000001
H      -2.674999999999995     -4.633235910246749      0.000000000000001
H       4.944192748960946     -2.341621408168634      1.073871500692703
H       8.165807251039057     -0.481621408168634     -1.073871500692704
H       4.944192748960944      2.341621408168636     -1.073871500692704
H       8.165807251039055      0.481621408168638      1.073871500692708
H       6.184192748960945     -4.489364409554042      1.073871500692702
H       9.405807251039057     -2.629364409554040     -1.073871500692706
H       6.184192748960943      4.489364409554046     -1.073871500692702
H       9.405807251039054      2.629364409554046      1.073871500692708
H       8.415000000000001     -4.633235910246746     -0.000000000000001
H       8.414999999999999      4.633235910246749      0.000000000000004
