56

C       0.000000000000000      0.000000000000000      0.000000000000000
C       1.470000000000000      0.000000000000000      0.000000000000000
C      -0.735000000000000      1.273057343563125      0.000000000000000
C      -0.735000000000000     -1.273057343563125     -0.000000000000000
C       2.169999999999994     -0.105670722227243      1.207821881927953
C       2.170000000000000      0.105670722227243     -1.207821881927949
C      -1.994326673973661      1.354275126212231      0.606217782649106
C      -0.175673326026339      2.404275126212232     -0.606217782649106
C      -0.175673326026338     -2.404275126212232      0.606217782649107
C      -1.994326673973660     -1.354275126212230     -0.606217782649107
C       3.569999999999994     -0.105670722227243      1.207821881927960
C       3.570000000000000      0.105670722227243     -1.207821881927949
C      -2.694326673973661      2.566710691510445      0.606217782649106
C      -0.875673326026339      3.616710691510447     -0.606217782649107
C      -0.875673326026337     -3.616710691510447      0.606217782649107
C      -2.694326673973662     -2.566710691510444     -0.606217782649108
C       4.270000000000000      0.000000000000000      0.000000000000014
C      -2.135000000000000      3.697928474159553      0.000000000000001
C      -2.134999999999998     -3.697928474159555      0.000000000000001
C       5.739999999999999      0.000000000000001      0.000000000000022
C       6.475000000000001     -1.273057343563123      0.000000000000035
C       6.474999999999998      1.273057343563126      0.000000000000015
C       5.915673326026338     -2.404275126212226      0.606217782649146
C       7.734326673973666     -1.354275126212232     -0.606217782649063
C       5.915673326026338      2.404275126212228     -0.606217782649105
C       7.734326673973655      1.354275126212240      0.606217782649127
C       6.615673326026340     -3.616710691510439      0.606217782649159
C       8.434326673973668     -2.566710691510446     -0.606217782649050
C       6.615673326026336      3.616710691510443     -0.606217782649112
C       8.434326673973652      2.566710691510455      0.606217782649120
C       7.875000000000005     -3.697928474159550      0.000000000000061
C       7.874999999999993      3.697928474159557      0.000000000000001
H       1.629999999999989     -0.187188136516830      2.139570190843797
H       1.630000000000000      0.187188136516830     -2.139570190843796
H      -2.425807251039056      0.481621408168634      1.073871500692703
H       0.795807251039056      2.341621408168635     -1.073871500692703
H       0.795807251039058     -2.341621408168634      1.073871500692703
H      -2.425807251039055     -0.481621408168633     -1.073871500692704
H       4.109999999999990     -0.187188136516830      2.139570190843809
H       4.110000000000001      0.187188136516830     -2.139570190843795
H      -3.665807251039057      2.629364409554042      1.073871500692702
H      -0.444192748960943      4.489364409554044     -1.073871500692703
H      -0.444192748960940     -4.489364409554042      1.073871500692704
H      -3.665807251039057     -2.629364409554040     -1.073871500692706
H      -2.675000000000001      4.633235910246746      0.000000000000001
H      -2.674999999999998     -4.633235910246749      0.000000000000001
H       4.944192748960939     -2.341621408168628      1.073871500692737
H       8.165807251039064     -0.481621408168637     -1.073871500692663
H       4.944192748960945      2.341621408168626     -1.073871500692706
H       8.165807251039048      0.481621408168647      1.073871500692733
H       6.184192748960943     -4.489364409554033      1.073871500692759
H       9.405807251039068     -2.629364409554045     -1.073871500692640
H       6.184192748960941      4.489364409554035     -1.073871500692718
H       9.405807251039045      2.629364409554058      1.073871500692720
H       8.415000000000006     -4.633235910246744      0.000000000000073
H       8.414999999999992      4.633235910246751     -0.000000000000004
