56

C       0.000000000000000      0.000000000000000      0.000000000000000
C       1.470000000000000      0.000000000000000      0.000000000000000
C      -0.735000000000000      1.273057343563125      0.000000000000000
C      -0.735000000000000     -1.273057343563125     -0.000000000000000
C       2.170000000000000      0.334192533317288      1.165467867714496
C       2.170000000000000     -0.334192533317289     -1.165467867714495
C      -1.994326673973661      1.354275126212231      0.606217782649107
C      -0.175673326026338      2.404275126212232     -0.606217782649107
C      -0.175673326026339     -2.404275126212231      0.606217782649108
C      -1.994326673973660     -1.354275126212231     -0.606217782649107
C       3.570000000000000      0.334192533317289      1.165467867714495
C       3.569999999999999     -0.334192533317289     -1.165467867714495
C      -2.694326673973662      2.566710691510445      0.606217782649108
C      -0.875673326026338      3.616710691510446     -0.606217782649106
C      -0.875673326026337     -3.616710691510446      0.606217782649109
C      -2.694326673973660     -2.566710691510445     -0.606217782649108
C       4.270000000000000      0.000000000000001     -0.000000000000001
C      -2.135000000000002      3.697928474159554      0.000000000000002
C      -2.134999999999998     -3.697928474159555      0.000000000000002
C       5.740000000000000      0.000000000000001     -0.000000000000001
C       6.475000000000003     -1.273057343563121     -0.000000000000002
C       6.474999999999996      1.273057343563128     -0.000000000000001
C       5.915673326026345     -2.404275126212229      0.606217782649105
C       7.734326673973665     -1.354275126212223     -0.606217782649109
C       5.915673326026332      2.404275126212234     -0.606217782649108
C       7.734326673973656      1.354275126212239      0.606217782649106
C       6.615673326026349     -3.616710691510442      0.606217782649104
C       8.434326673973668     -2.566710691510436     -0.606217782649110
C       6.615673326026328      3.616710691510450     -0.606217782649107
C       8.434326673973652      2.566710691510455      0.606217782649108
C       7.875000000000010     -3.697928474159544     -0.000000000000004
C       7.874999999999988      3.697928474159561      0.000000000000000
H       1.630000000000000      0.591998201876339      2.064543079951393
H       1.630000000000000     -0.591998201876340     -2.064543079951392
H      -2.425807251039056      0.481621408168634      1.073871500692703
H       0.795807251039057      2.341621408168634     -1.073871500692703
H       0.795807251039057     -2.341621408168634      1.073871500692705
H      -2.425807251039055     -0.481621408168635     -1.073871500692704
H       4.110000000000000      0.591998201876340      2.064543079951391
H       4.109999999999999     -0.591998201876340     -2.064543079951392
H      -3.665807251039058      2.629364409554040      1.073871500692705
H      -0.444192748960941      4.489364409554041     -1.073871500692703
H      -0.444192748960942     -4.489364409554042      1.073871500692707
H      -3.665807251039055     -2.629364409554042     -1.073871500692705
H      -2.675000000000002      4.633235910246747      0.000000000000002
H      -2.674999999999998     -4.633235910246750      0.000000000000002
H       4.944192748960950     -2.341621408168635      1.073871500692702
H       8.165807251039059     -0.481621408168625     -1.073871500692705
H       4.944192748960937      2.341621408168634     -1.073871500692706
H       8.165807251039054      0.481621408168642      1.073871500692702
H       6.184192748960956     -4.489364409554041      1.073871500692700
H       9.405807251039063     -2.629364409554030     -1.073871500692706
H       6.184192748960930      4.489364409554045     -1.073871500692704
H       9.405807251039048      2.629364409554053      1.073871500692705
H       8.415000000000013     -4.633235910246736     -0.000000000000003
H       8.414999999999985      4.633235910246758      0.000000000000002
