56

C       0.000000000000000      0.000000000000000      0.000000000000000
C       1.470000000000000      0.000000000000000      0.000000000000000
C      -0.735000000000000      1.273057343563125      0.000000000000000
C      -0.735000000000000     -1.273057343563125     -0.000000000000000
C       2.170000000000000     -0.272738658737833      1.181360920307544
C       2.169999999999994      0.272738658737834     -1.181360920307547
C      -1.994326673973661      1.354275126212231      0.606217782649106
C      -0.175673326026339      2.404275126212232     -0.606217782649106
C      -0.175673326026335     -2.404275126212229      0.606217782649110
C      -1.994326673973660     -1.354275126212226     -0.606217782649110
C       3.569999999999999     -0.272738658737833      1.181360920307543
C       3.569999999999994      0.272738658737836     -1.181360920307555
C      -2.694326673973661      2.566710691510446      0.606217782649106
C      -0.875673326026339      3.616710691510447     -0.606217782649107
C      -0.875673326026331     -3.616710691510446      0.606217782649112
C      -2.694326673973664     -2.566710691510438     -0.606217782649114
C       4.269999999999998      0.000000000000001     -0.000000000000001
C      -2.135000000000000      3.697928474159553     -0.000000000000002
C      -2.134999999999991     -3.697928474159560      0.000000000000006
C       5.739999999999998      0.000000000000002     -0.000000000000002
C       6.474999999999998     -1.273057343563122     -0.000000000000003
C       6.474999999999997      1.273057343563128     -0.000000000000001
C       5.915673326026338     -2.404275126212229      0.606217782649104
C       7.734326673973657     -1.354275126212228     -0.606217782649109
C       5.915673326026337      2.404275126212234     -0.606217782649108
C       7.734326673973656      1.354275126212236      0.606217782649107
C       6.615673326026339     -3.616710691510443      0.606217782649103
C       8.434326673973658     -2.566710691510441     -0.606217782649110
C       6.615673326026337      3.616710691510448     -0.606217782649108
C       8.434326673973654      2.566710691510450      0.606217782649107
C       7.874999999999998     -3.697928474159549     -0.000000000000004
C       7.874999999999996      3.697928474159555     -0.000000000000001
H       1.630000000000000     -0.483137052621305      2.092696487401935
H       1.629999999999990      0.483137052621305     -2.092696487401936
H      -2.425807251039056      0.481621408168634      1.073871500692703
H       0.795807251039057      2.341621408168635     -1.073871500692703
H       0.795807251039060     -2.341621408168627      1.073871500692706
H      -2.425807251039050     -0.481621408168627     -1.073871500692707
H       4.109999999999999     -0.483137052621305      2.092696487401934
H       4.109999999999990      0.483137052621309     -2.092696487401948
H      -3.665807251039056      2.629364409554044      1.073871500692702
H      -0.444192748960943      4.489364409554043     -1.073871500692704
H      -0.444192748960932     -4.489364409554039      1.073871500692711
H      -3.665807251039058     -2.629364409554031     -1.073871500692713
H      -2.675000000000001      4.633235910246746     -0.000000000000003
H      -2.674999999999988     -4.633235910246756      0.000000000000009
H       4.944192748960943     -2.341621408168634      1.073871500692701
H       8.165807251039052     -0.481621408168630     -1.073871500692706
H       4.944192748960941      2.341621408168636     -1.073871500692705
H       8.165807251039050      0.481621408168639      1.073871500692704
H       6.184192748960943     -4.489364409554041      1.073871500692700
H       9.405807251039054     -2.629364409554037     -1.073871500692708
H       6.184192748960942      4.489364409554045     -1.073871500692705
H       9.405807251039048      2.629364409554049      1.073871500692705
H       8.414999999999999     -4.633235910246742     -0.000000000000004
H       8.414999999999997      4.633235910246749      0.000000000000001
