56

C       0.000000000000000      0.000000000000000      0.000000000000000
C       1.470000000000000      0.000000000000000      0.000000000000000
C      -0.735000000000000      1.273057343563125      0.000000000000000
C      -0.735000000000000     -1.273057343563125     -0.000000000000000
C       2.170000000000000      0.569204019617748      1.070517063876610
C       2.169999999999998     -0.569204019617748     -1.070517063876611
C      -1.994326673973661      1.354275126212231      0.606217782649106
C      -0.175673326026339      2.404275126212231     -0.606217782649106
C      -0.175673326026338     -2.404275126212230      0.606217782649108
C      -1.994326673973659     -1.354275126212232     -0.606217782649109
C       3.569999999999999      0.569204019617748      1.070517063876609
C       3.569999999999998     -0.569204019617749     -1.070517063876614
C      -2.694326673973661      2.566710691510445      0.606217782649106
C      -0.875673326026339      3.616710691510446     -0.606217782649106
C      -0.875673326026337     -3.616710691510444      0.606217782649109
C      -2.694326673973659     -2.566710691510446     -0.606217782649109
C       4.270000000000000      0.000000000000002     -0.000000000000002
C      -2.135000000000001      3.697928474159552      0.000000000000000
C      -2.134999999999997     -3.697928474159554      0.000000000000001
C       5.740000000000000      0.000000000000002     -0.000000000000002
C       6.475000000000003     -1.273057343563121     -0.000000000000005
C       6.475000000000179      1.273057343563024     -0.000000000000001
C       5.915673326026345     -2.404275126212229      0.606217782649101
C       7.734326673973664     -1.354275126212223     -0.606217782649113
C       5.915673326026678      2.404275126212210     -0.606217782649108
C       7.734326673973850      1.354275126211954      0.606217782649107
C       6.615673326026348     -3.616710691510441      0.606217782649099
C       8.434326673973667     -2.566710691510436     -0.606217782649115
C       6.615673326026848      3.616710691510326     -0.606217782649108
C       8.434326673974020      2.566710691510069      0.606217782649108
C       7.875000000000009     -3.697928474159543     -0.000000000000010
C       7.875000000000520      3.697928474159256      0.000000000000001
H       1.630000000000000      1.008304263322866      1.896344513152853
H       1.629999999999997     -1.008304263322867     -1.896344513152853
H      -2.425807251039056      0.481621408168634      1.073871500692703
H       0.795807251039056      2.341621408168634     -1.073871500692704
H       0.795807251039057     -2.341621408168631      1.073871500692706
H      -2.425807251039054     -0.481621408168636     -1.073871500692707
H       4.109999999999999      1.008304263322868      1.896344513152852
H       4.109999999999998     -1.008304263322869     -1.896344513152857
H      -3.665807251039057      2.629364409554041      1.073871500692702
H      -0.444192748960943      4.489364409554042     -1.073871500692703
H      -0.444192748960942     -4.489364409554041      1.073871500692706
H      -3.665807251039054     -2.629364409554043     -1.073871500692707
H      -2.675000000000001      4.633235910246745      0.000000000000001
H      -2.674999999999996     -4.633235910246748      0.000000000000001
H       4.944192748960950     -2.341621408168635      1.073871500692698
H       8.165807251039057     -0.481621408168624     -1.073871500692709
H       4.944192748961274      2.341621408168749     -1.073871500692706
H       8.165807251039123      0.481621408168296      1.073871500692704
H       6.184192748960956     -4.489364409554041      1.073871500692694
H       9.405807251039063     -2.629364409554030     -1.073871500692712
H       6.184192748961577      4.489364409553983     -1.073871500692704
H       9.405807251039423      2.629364409553530      1.073871500692705
H       8.415000000000013     -4.633235910246737     -0.000000000000012
H       8.415000000000651      4.633235910246374      0.000000000000001
