56

C       0.000000000000000      0.000000000000000      0.000000000000000
C       1.470000000000000      0.000000000000000      0.000000000000000
C      -0.735000000000000      1.273057343563125      0.000000000000000
C      -0.735000000000000     -1.273057343563125     -0.000000000000000
C       2.169999999999999      1.039260120781910      0.624450479503676
C       2.169999999999999     -1.039260120781910     -0.624450479503676
C      -1.994326673973661      1.354275126212231      0.606217782649107
C      -0.175673326026340      2.404275126212232     -0.606217782649106
C      -0.175673326026338     -2.404275126212231      0.606217782649107
C      -1.994326673973661     -1.354275126212232     -0.606217782649106
C       3.569999999999999      1.039260120781911      0.624450479503676
C       3.569999999999999     -1.039260120781910     -0.624450479503676
C      -2.694326673973662      2.566710691510445      0.606217782649107
C      -0.875673326026340      3.616710691510446     -0.606217782649106
C      -0.875673326026336     -3.616710691510445      0.606217782649107
C      -2.694326673973660     -2.566710691510446     -0.606217782649106
C       4.270000000000001      0.000000000000003      0.000000000000000
C      -2.135000000000001      3.697928474159553      0.000000000000000
C      -2.134999999999997     -3.697928474159553     -0.000000000000001
C       5.740000000000001      0.000000000000005      0.000000000000001
C       6.475000000000003     -1.273057343563119      0.000000000000003
C       6.475000000000001      1.273057343563130     -0.000000000000000
C       5.915673326026345     -2.404275126212226      0.606217782649112
C       7.734326673973664     -1.354275126212226     -0.606217782649105
C       5.915673326026340      2.404275126212236     -0.606217782649108
C       7.734326673973660      1.354275126212238      0.606217782649107
C       6.615673326026347     -3.616710691510439      0.606217782649114
C       8.434326673973665     -2.566710691510439     -0.606217782649103
C       6.615673326026339      3.616710691510450     -0.606217782649109
C       8.434326673973660      2.566710691510451      0.606217782649106
C       7.875000000000007     -3.697928474159544      0.000000000000009
C       7.875000000000000      3.697928474159559     -0.000000000000002
H       1.629999999999999      1.840975071099383      1.106169420835082
H       1.629999999999999     -1.840975071099383     -1.106169420835083
H      -2.425807251039057      0.481621408168635      1.073871500692703
H       0.795807251039056      2.341621408168635     -1.073871500692703
H       0.795807251039058     -2.341621408168632      1.073871500692704
H      -2.425807251039057     -0.481621408168634     -1.073871500692702
H       4.109999999999998      1.840975071099386      1.106169420835083
H       4.109999999999999     -1.840975071099384     -1.106169420835083
H      -3.665807251039057      2.629364409554041      1.073871500692704
H      -0.444192748960944      4.489364409554042     -1.073871500692703
H      -0.444192748960941     -4.489364409554041      1.073871500692705
H      -3.665807251039056     -2.629364409554044     -1.073871500692702
H      -2.675000000000002      4.633235910246746      0.000000000000001
H      -2.674999999999995     -4.633235910246748     -0.000000000000001
H       4.944192748960950     -2.341621408168629      1.073871500692709
H       8.165807251039057     -0.481621408168629     -1.073871500692703
H       4.944192748960946      2.341621408168638     -1.073871500692705
H       8.165807251039055      0.481621408168642      1.073871500692704
H       6.184192748960952     -4.489364409554035      1.073871500692713
H       9.405807251039061     -2.629364409554035     -1.073871500692701
H       6.184192748960944      4.489364409554046     -1.073871500692707
H       9.405807251039056      2.629364409554049      1.073871500692704
H       8.415000000000008     -4.633235910246737      0.000000000000011
H       8.415000000000001      4.633235910246754     -0.000000000000002
