56

C       0.000000000000000      0.000000000000000      0.000000000000000
C       1.470000000000000      0.000000000000000      0.000000000000000
C      -0.735000000000000      1.273057343563125      0.000000000000000
C      -0.735000000000000     -1.273057343563125     -0.000000000000000
C       2.170000000000000      1.205793716412284      0.126734026451671
C       2.170000000000000     -1.205793716412284     -0.126734026451670
C      -1.994326673973660      1.354275126212231      0.606217782649106
C      -0.175673326026338      2.404275126212232     -0.606217782649106
C      -0.175673326026340     -2.404275126212232      0.606217782649108
C      -1.994326673973660     -1.354275126212232     -0.606217782649107
C       3.570000000000000      1.205793716412284      0.126734026451671
C       3.570000000000000     -1.205793716412283     -0.126734026451670
C      -2.694326673973660      2.566710691510445      0.606217782649107
C      -0.875673326026338      3.616710691510446     -0.606217782649106
C      -0.875673326026340     -3.616710691510446      0.606217782649107
C      -2.694326673973660     -2.566710691510446     -0.606217782649108
C       4.270000000000000     -0.000000000000000     -0.000000000000001
C      -2.135000000000000      3.697928474159553      0.000000000000001
C      -2.135000000000001     -3.697928474159551     -0.000000000000001
C       5.739999999999999     -0.000000000000001     -0.000000000000001
C       6.474999999999998     -1.273057343563126      0.000000000000000
C       6.475000000000001      1.273057343563122     -0.000000000000001
C       5.915673326026337     -2.404275126212232      0.606217782649109
C       7.734326673973657     -1.354275126212236     -0.606217782649109
C       5.915673326026343      2.404275126212230     -0.606217782649108
C       7.734326673973662      1.354275126212227      0.606217782649106
C       6.615673326026335     -3.616710691510447      0.606217782649110
C       8.434326673973656     -2.566710691510451     -0.606217782649109
C       6.615673326026346      3.616710691510443     -0.606217782649108
C       8.434326673973665      2.566710691510440      0.606217782649106
C       7.874999999999995     -3.697928474159556      0.000000000000001
C       7.875000000000006      3.697928474159547     -0.000000000000002
H       1.630000000000000      2.135977440501760      0.224500275428675
H       1.630000000000001     -2.135977440501760     -0.224500275428673
H      -2.425807251039056      0.481621408168635      1.073871500692703
H       0.795807251039058      2.341621408168635     -1.073871500692702
H       0.795807251039055     -2.341621408168636      1.073871500692705
H      -2.425807251039056     -0.481621408168635     -1.073871500692704
H       4.110000000000001      2.135977440501759      0.224500275428674
H       4.110000000000001     -2.135977440501759     -0.224500275428672
H      -3.665807251039055      2.629364409554042      1.073871500692704
H      -0.444192748960942      4.489364409554042     -1.073871500692702
H      -0.444192748960946     -4.489364409554042      1.073871500692704
H      -3.665807251039056     -2.629364409554043     -1.073871500692704
H      -2.675000000000000      4.633235910246747      0.000000000000001
H      -2.675000000000001     -4.633235910246746     -0.000000000000002
H       4.944192748960942     -2.341621408168634      1.073871500692707
H       8.165807251039052     -0.481621408168639     -1.073871500692706
H       4.944192748960947      2.341621408168634     -1.073871500692705
H       8.165807251039057      0.481621408168629      1.073871500692703
H       6.184192748960938     -4.489364409554043      1.073871500692709
H       9.405807251039050     -2.629364409554050     -1.073871500692707
H       6.184192748960952      4.489364409554041     -1.073871500692704
H       9.405807251039061      2.629364409554034      1.073871500692704
H       8.414999999999994     -4.633235910246750      0.000000000000002
H       8.415000000000008      4.633235910246739     -0.000000000000001
