56

C       0.000000000000000      0.000000000000000      0.000000000000000
C       1.470000000000000      0.000000000000000      0.000000000000000
C      -0.735000000000000      1.273057343563124      0.000000000000000
C      -0.735000000000000     -1.273057343563125     -0.000000000000000
C       2.170000000000000      1.153094744964865      0.374663194261744
C       2.169999999999999     -1.153094744964865     -0.374663194261744
C      -1.994326673973661      1.354275126212231      0.606217782649107
C      -0.175673326026339      2.404275126212231     -0.606217782649106
C      -0.175673326026340     -2.404275126212231      0.606217782649108
C      -1.994326673973660     -1.354275126212233     -0.606217782649109
C       3.569999999999999      1.153094744964864      0.374663194261744
C       3.569999999999999     -1.153094744964864     -0.374663194261744
C      -2.694326673973662      2.566710691510445      0.606217782649107
C      -0.875673326026339      3.616710691510446     -0.606217782649106
C      -0.875673326026339     -3.616710691510446      0.606217782649108
C      -2.694326673973660     -2.566710691510448     -0.606217782649110
C       4.269999999999999     -0.000000000000001     -0.000000000000000
C      -2.135000000000002      3.697928474159553      0.000000000000001
C      -2.134999999999998     -3.697928474159554     -0.000000000000001
C       5.739999999999998     -0.000000000000002      0.000000000000000
C       6.474999999999998     -1.273057343563126     -0.000000000000000
C       6.475000000000000      1.273057343563123     -0.000000000000000
C       5.915673326026337     -2.404275126212233      0.606217782649108
C       7.734326673973658     -1.354275126212234     -0.606217782649109
C       5.915673326026340      2.404275126212231     -0.606217782649108
C       7.734326673973660      1.354275126212230      0.606217782649107
C       6.615673326026337     -3.616710691510447      0.606217782649108
C       8.434326673973658     -2.566710691510448     -0.606217782649110
C       6.615673326026341      3.616710691510444     -0.606217782649108
C       8.434326673973660      2.566710691510444      0.606217782649108
C       7.874999999999997     -3.697928474159555      0.000000000000001
C       7.875000000000002      3.697928474159550     -0.000000000000001
H       1.630000000000000      2.042624976794903      0.663689086977947
H       1.629999999999999     -2.042624976794904     -0.663689086977948
H      -2.425807251039057      0.481621408168634      1.073871500692703
H       0.795807251039056      2.341621408168634     -1.073871500692704
H       0.795807251039055     -2.341621408168634      1.073871500692706
H      -2.425807251039055     -0.481621408168637     -1.073871500692708
H       4.109999999999999      2.042624976794902      0.663689086977947
H       4.109999999999999     -2.042624976794903     -0.663689086977947
H      -3.665807251039058      2.629364409554040      1.073871500692703
H      -0.444192748960943      4.489364409554042     -1.073871500692703
H      -0.444192748960944     -4.489364409554041      1.073871500692706
H      -3.665807251039054     -2.629364409554046     -1.073871500692710
H      -2.675000000000002      4.633235910246746      0.000000000000002
H      -2.674999999999998     -4.633235910246748     -0.000000000000001
H       4.944192748960942     -2.341621408168635      1.073871500692705
H       8.165807251039054     -0.481621408168637     -1.073871500692707
H       4.944192748960944      2.341621408168634     -1.073871500692705
H       8.165807251039055      0.481621408168632      1.073871500692704
H       6.184192748960943     -4.489364409554043      1.073871500692705
H       9.405807251039052     -2.629364409554046     -1.073871500692707
H       6.184192748960947      4.489364409554042     -1.073871500692704
H       9.405807251039054      2.629364409554040      1.073871500692705
H       8.414999999999997     -4.633235910246750      0.000000000000001
H       8.415000000000004      4.633235910246744     -0.000000000000000
