56

C       0.000000000000000      0.000000000000000      0.000000000000000
C       1.470000000000000      0.000000000000000      0.000000000000000
C      -0.735000000000000      1.273057343563124      0.000000000000000
C      -0.735000000000000     -1.273057343563124     -0.000000000000000
C       2.170000000000000      0.084575229677168      1.209482133197946
C       2.169999999999999     -0.084575229677168     -1.209482133197946
C      -1.994326673973661      1.354275126212231      0.606217782649106
C      -0.175673326026339      2.404275126212231     -0.606217782649106
C      -0.175673326026340     -2.404275126212231      0.606217782649108
C      -1.994326673973660     -1.354275126212233     -0.606217782649107
C       3.570000000000000      0.084575229677170      1.209482133197946
C       3.569999999999999     -0.084575229677167     -1.209482133197947
C      -2.694326673973662      2.566710691510445      0.606217782649106
C      -0.875673326026338      3.616710691510445     -0.606217782649106
C      -0.875673326026339     -3.616710691510445      0.606217782649108
C      -2.694326673973660     -2.566710691510448     -0.606217782649106
C       4.270000000000000      0.000000000000003     -0.000000000000000
C      -2.135000000000002      3.697928474159552     -0.000000000000001
C      -2.134999999999998     -3.697928474159552     -0.000000000000001
C       5.739999999999999      0.000000000000005     -0.000000000000000
C       6.475000000000001     -1.273057343563117     -0.000000000000001
C       6.475000000000000      1.273057343563130      0.000000000000000
C       5.915673326026344     -2.404275126212226      0.606217782649107
C       7.734326673973662     -1.354275126212222     -0.606217782649109
C       5.915673326026340      2.404275126212238     -0.606217782649106
C       7.734326673973661      1.354275126212237      0.606217782649107
C       6.615673326026347     -3.616710691510438      0.606217782649106
C       8.434326673973665     -2.566710691510435     -0.606217782649110
C       6.615673326026341      3.616710691510450     -0.606217782649104
C       8.434326673973661      2.566710691510450      0.606217782649108
C       7.875000000000006     -3.697928474159541     -0.000000000000002
C       7.875000000000003      3.697928474159555      0.000000000000002
H       1.630000000000000      0.149818978285269      2.142511207379219
H       1.629999999999999     -0.149818978285268     -2.142511207379219
H      -2.425807251039056      0.481621408168634      1.073871500692703
H       0.795807251039056      2.341621408168634     -1.073871500692703
H       0.795807251039055     -2.341621408168634      1.073871500692706
H      -2.425807251039057     -0.481621408168636     -1.073871500692705
H       4.109999999999999      0.149818978285271      2.142511207379218
H       4.109999999999999     -0.149818978285267     -2.142511207379220
H      -3.665807251039058      2.629364409554040      1.073871500692702
H      -0.444192748960942      4.489364409554041     -1.073871500692702
H      -0.444192748960944     -4.489364409554041      1.073871500692706
H      -3.665807251039056     -2.629364409554046     -1.073871500692703
H      -2.675000000000002      4.633235910246746     -0.000000000000000
H      -2.674999999999997     -4.633235910246746      0.000000000000000
H       4.944192748960948     -2.341621408168632      1.073871500692705
H       8.165807251039055     -0.481621408168623     -1.073871500692706
H       4.944192748960944      2.341621408168642     -1.073871500692703
H       8.165807251039055      0.481621408168639      1.073871500692704
H       6.184192748960954     -4.489364409554035      1.073871500692702
H       9.405807251039061     -2.629364409554029     -1.073871500692708
H       6.184192748960947      4.489364409554049     -1.073871500692700
H       9.405807251039057      2.629364409554047      1.073871500692704
H       8.415000000000010     -4.633235910246733     -0.000000000000004
H       8.415000000000004      4.633235910246747      0.000000000000003
