16  
    
  C     5.442577 -2.264172  1.865133
  C     5.289999  1.595315  1.655593
  C     4.254495 -2.619691  1.154597
  C     4.290012  0.962905  0.888819
  N     6.522409 -1.896936  1.104326
  N     6.226154  2.133164  0.901351
  N     4.406191 -2.680814 -0.201069
  N     4.491035  0.932352 -0.424980
  N     3.595117 -2.706414  3.683044
  N     3.379905  0.918890  3.285080
  S     2.936148 -3.038406  2.158810
  S     2.842368  0.561573  1.762919
  S     6.000133 -2.300166 -0.469661
  S     5.916063  1.709316 -0.652062
  S     5.216515 -2.166982  3.634707
  S     4.932929  1.627404  3.360021
