16  
    
  C     4.240678 -2.425236  1.611573
  C     4.063460  1.212541  1.586028
  C     3.156620 -3.225733  1.099630
  C     2.856307  0.689616  1.075020
  N     5.249542 -2.229450  0.760866
  N     5.093249  1.282867  0.789507
  N     3.346492 -3.647486 -0.137944
  N     2.920889  0.440474 -0.214792
  N     2.656994 -2.895268  3.618062
  N     2.331906  1.275289  3.492521
  S     1.826864 -3.349793  2.239935
  S     1.550742  0.825384  2.116631
  S     4.758169 -2.883828 -0.660051
  S     4.455034  0.889975 -0.700342
  S     4.139549 -2.179567  3.379438
  S     4.011614  1.460039  3.309372
