16  
    
  C    11.954489  1.465510  3.400743
  C    12.296951  5.185158  3.219252
  C    10.854656  0.781239  2.766940
  C    10.999138  4.823311  2.636354
  N    13.076855  1.528347  2.684947
  N    13.354039  4.983116  2.362966
  N    11.084798  0.472162  1.465691
  N    11.064050  4.364347  1.395942
  N    10.143721  1.180159  5.223385
  N    10.441092  5.365971  5.076696
  S     9.504031  0.707892  3.755622
  S     9.633541  4.827991  3.687239
  S    12.714507  0.797729  1.244501
  S    12.720554  4.461085  0.925621
  S    11.763343  1.607130  5.148965
  S    12.069304  5.680226  4.848943
