16  
    
  C     7.689563 -0.876105  1.767104
  C     7.747359  2.968489  2.239912
  C     6.469552 -1.496490  1.237546
  C     6.537790  2.459014  1.573340
  N     8.652065 -0.835568  0.848168
  N     8.822067  3.072283  1.477706
  N     6.484390 -1.765298 -0.073167
  N     6.753324  2.161992  0.341936
  N     6.033029 -1.126159  3.771759
  N     5.912110  2.662416  4.026230
  S     5.173632 -1.502885  2.457249
  S     5.177719  2.120553  2.664094
  S     8.026280 -1.368763 -0.593522
  S     8.351605  2.538959 -0.037556
  S     7.631946 -0.801116  3.478000
  S     7.474081  3.268163  3.917035
