16  
    
  C    11.290432  1.235483  3.191719
  C    11.380090  4.905749  2.913269
  C    10.071543  0.673545  2.652155
  C    10.303813  4.225914  2.225493
  N    12.340680  1.362088  2.335162
  N    12.366029  5.187937  2.075067
  N    10.175232  0.567662  1.336726
  N    10.425461  4.001556  0.920228
  N     9.811733  0.683485  5.282397
  N     9.662778  4.572637  4.775832
  S     8.934662  0.150906  3.951630
  S     8.982457  3.926377  3.391820
  S    11.714406  0.954764  0.809178
  S    11.912861  4.624757  0.518838
  S    11.308967  1.369057  4.917051
  S    11.249892  5.044048  4.612372
