16  
    
  C     7.116152 -1.297841  2.274142
  C     7.119811  2.260638  2.097093
  C     5.861959 -1.666000  1.599964
  C     5.885711  1.770023  1.474856
  N     8.125389 -1.163230  1.451921
  N     8.198380  2.294093  1.313618
  N     5.993908 -1.947497  0.325320
  N     5.985363  1.590707  0.147725
  N     5.352061 -1.764070  4.101422
  N     5.356241  1.961770  3.934530
  S     4.527441 -2.015620  2.704523
  S     4.523512  1.657767  2.551965
  S     7.539963 -1.615084 -0.054816
  S     7.606326  1.921822 -0.276967
  S     6.962859 -1.291043  3.998917
  S     6.858594  2.585853  3.776408
