16  
    
  C     7.356977 -1.630140  2.142300
  C     7.581507  2.477588  2.128901
  C     6.103134 -1.971935  1.512926
  C     6.324867  1.982965  1.573084
  N     8.329913 -1.273236  1.336187
  N     8.544948  2.711455  1.229911
  N     6.233428 -2.042586  0.216523
  N     6.272546  1.927362  0.241028
  N     5.589172 -2.117545  3.930846
  N     5.898225  2.101921  4.079912
  S     4.838295 -2.532464  2.514958
  S     4.998326  1.919221  2.759262
  S     7.765285 -1.583567 -0.177639
  S     7.866322  2.419384 -0.256033
  S     7.224399 -1.618643  3.900703
  S     7.426261  2.682000  3.861782
