16  
    
  C     4.637734 -2.105205  1.914681
  C     4.148733  1.059638  1.246314
  C     3.447314 -2.549288  1.223870
  C     2.880164  0.837997  0.586216
  N     5.727155 -1.984235  1.148479
  N     5.212155  1.191659  0.426920
  N     3.691616 -2.750292 -0.080129
  N     3.040714  0.725677 -0.736931
  N     2.857162 -2.390284  3.689422
  N     2.251927  1.065577  3.065640
  S     2.092204 -2.803203  2.265592
  S     1.595405  0.542217  1.606053
  S     5.282292 -2.437323 -0.340907
  S     4.634065  0.912723 -1.113919
  S     4.361993 -1.696668  3.580813
  S     3.846769  1.335665  2.975083
