16  
    
  C    12.168027  1.397106  3.458123
  C    12.091642  5.059771  3.790439
  C    10.974262  0.859017  2.820801
  C    10.803820  4.665312  3.227176
  N    13.138215  1.823266  2.624881
  N    13.033791  5.362345  2.907339
  N    11.099596  0.765811  1.513048
  N    10.859509  4.618469  1.874819
  N    10.309067  1.122281  5.216950
  N    10.616416  4.693354  5.799005
  S     9.628172  0.426761  3.868295
  S     9.679408  4.424888  4.456168
  S    12.598975  1.347252  1.065851
  S    12.420562  5.185184  1.421859
  S    11.828807  1.773477  5.079141
  S    12.214686  5.086044  5.547058
