16  
    
  C    10.190609  0.554707  2.660888
  C    10.756351  4.309062  2.808869
  C     8.971992  0.087367  2.038152
  C     9.490583  3.904787  2.277767
  N    11.210607  0.754736  1.817102
  N    11.771503  4.232594  1.904742
  N     9.103891 -0.227109  0.752905
  N     9.479050  3.687055  0.977783
  N     8.340489  0.460771  4.491655
  N     8.956709  4.178053  4.746951
  S     7.752582 -0.400289  3.175233
  S     8.143126  3.641901  3.387360
  S    10.652465  0.091263  0.402503
  S    11.003855  3.879043  0.462854
  S     9.953721  0.823738  4.388372
  S    10.553102  4.658668  4.519918
