16  
    
  C     5.728234 -1.979404  1.638836
  C     5.203577  1.469043  1.715010
  C     4.477096 -2.500748  1.130870
  C     4.059925  0.859108  1.158326
  N     6.767185 -1.998703  0.813971
  N     6.149873  1.695740  0.812696
  N     4.506245 -2.781086 -0.170902
  N     4.112537  0.565670 -0.139756
  N     4.171636 -2.338923  3.642316
  N     3.586864  1.175415  3.658492
  S     3.231218 -2.667912  2.377856
  S     2.754380  0.628381  2.301373
  S     6.064844 -2.394760 -0.691667
  S     5.551680  1.202331 -0.647297
  S     5.710460 -1.833728  3.397740
  S     5.179273  1.515042  3.448135
