16  
    
  C     3.684256 -2.810206  1.136478
  C     3.972926  0.903293  1.470878
  C     2.494288 -3.505683  0.606753
  C     2.778897  0.367991  0.870978
  N     4.682767 -2.741438  0.287421
  N     4.976749  1.163717  0.648574
  N     2.612851 -3.993320 -0.594989
  N     2.926429  0.098264 -0.402129
  N     1.904977 -2.985160  2.977241
  N     2.269373  0.590338  3.359928
  S     1.240967 -3.760345  1.687673
  S     1.457601  0.167910  2.011733
  S     4.104936 -3.427858 -1.109040
  S     4.412759  0.680400 -0.874849
  S     3.452444 -2.391051  2.826935
  S     3.829389  1.166737  3.169976
