16  
    
  C     6.240287 -1.504483  1.516945
  C     6.407800  2.148433  1.877782
  C     5.093811 -2.178344  0.915508
  C     5.214535  1.593142  1.241423
  N     7.341580 -1.439097  0.792720
  N     7.424452  2.366859  1.030769
  N     5.265464 -2.368289 -0.367227
  N     5.457500  1.245146 -0.038575
  N     4.449308 -1.823906  3.399071
  N     4.634866  1.774832  3.722878
  S     3.792822 -2.536419  1.986236
  S     3.853035  1.382766  2.326499
  S     6.898403 -1.990638 -0.733346
  S     6.951732  1.721705 -0.406554
  S     5.988942 -1.150122  3.219375
  S     6.157576  2.412800  3.572954
