16  
    
  C     9.166725 -0.492071  2.553709
  C     9.578407  3.577025  2.814464
  C     7.870684 -0.851197  1.918002
  C     8.380561  3.062629  2.245742
  N    10.071394 -0.224310  1.667151
  N    10.578982  3.668734  1.956786
  N     7.930849 -1.077366  0.631405
  N     8.376822  2.754106  0.952604
  N     7.372450 -0.720463  4.395337
  N     7.706755  3.763790  4.632181
  S     6.565031 -1.172423  3.001573
  S     6.974725  3.247191  3.238823
  S     9.453553 -0.606482  0.150731
  S     9.975256  3.036264  0.536727
  S     9.021593 -0.404421  4.301338
  S     9.326906  3.937880  4.516148
