16  
    
  C     7.350063 -1.040338  2.035809
  C     7.696676  2.790265  2.135449
  C     6.148035 -1.505195  1.380591
  C     6.462395  2.290980  1.576608
  N     8.397192 -0.985669  1.189310
  N     8.717579  2.934900  1.265656
  N     6.227935 -1.619103  0.036258
  N     6.525402  1.935079  0.295189
  N     5.676390 -1.511415  3.836392
  N     5.984086  2.778139  4.114473
  S     4.859949 -1.910963  2.448335
  S     5.245871  2.096561  2.786049
  S     7.825781 -1.304096 -0.314847
  S     8.106152  2.457640 -0.199919
  S     7.322379 -1.072942  3.732850
  S     7.574887  3.208544  3.849357
