16  
    
  C    11.393805  0.602391  3.065395
  C    11.074235  4.783505  3.552878
  C    10.324057  0.089531  2.257971
  C     9.879468  4.152520  2.992229
  N    12.490036  0.900015  2.331092
  N    12.128039  4.714259  2.713690
  N    10.676251 -0.211677  0.999215
  N     9.987971  3.706375  1.749308
  N     9.413340  0.420130  4.617354
  N     9.414233  4.483265  5.518645
  S     8.888063 -0.104157  3.122963
  S     8.570993  4.038314  4.187132
  S    12.199053  0.305930  0.807707
  S    11.526315  4.033456  1.235123
  S    11.003594  1.021205  4.694001
  S    10.913030  5.125936  5.218783
