16  
    
  C     7.254115 -1.428227  2.259520
  C     7.263803  2.216170  2.117256
  C     6.036878 -1.888233  1.650909
  C     6.108170  1.604321  1.516328
  N     8.292301 -1.302040  1.413244
  N     8.290194  2.345938  1.299759
  N     6.130601 -2.233304  0.370206
  N     6.180172  1.292187  0.229594
  N     5.453463 -1.293062  4.025142
  N     5.608000  2.075818  3.989701
  S     4.743570 -2.099855  2.736849
  S     4.804336  1.625019  2.643129
  S     7.647017 -1.821359 -0.066912
  S     7.727895  1.800201 -0.251473
  S     7.025599 -0.908884  3.879835
  S     7.187011  2.461218  3.823608
