16  
    
  C    12.039409  1.345314  3.495618
  C    11.891759  4.817423  3.763472
  C    10.869959  0.848477  2.861423
  C    10.734704  4.229936  3.170340
  N    13.046149  1.732968  2.707870
  N    12.776982  5.329493  2.879497
  N    10.963898  0.883447  1.522066
  N    10.751463  4.138010  1.818963
  N    10.406248  0.706304  5.374046
  N    10.154258  4.425913  5.683402
  S     9.693629  0.199986  3.976382
  S     9.427877  3.883135  4.290393
  S    12.462052  1.491554  1.190422
  S    12.133680  4.895536  1.357405
  S    11.927537  1.319529  5.192478
  S    11.703488  5.002130  5.487478
