16  
    
  C     4.255485 -2.404917  1.772723
  C     3.968653  1.305674  1.251280
  C     3.072621 -3.005571  1.180022
  C     2.866117  0.464730  0.743129
  N     5.280492 -2.238077  0.953563
  N     4.993201  1.462054  0.425648
  N     3.155619 -3.042188 -0.144231
  N     3.030421  0.224094 -0.546890
  N     2.620462 -2.802502  3.704345
  N     2.339843  0.993316  3.260415
  S     1.876028 -3.412659  2.344554
  S     1.688919  0.066430  1.948188
  S     4.699829 -2.742584 -0.517541
  S     4.608766  0.706826 -0.977759
  S     4.061515 -1.985522  3.441160
  S     3.788426  1.724829  2.969942
