16  
    
  C    10.227770  0.476957  2.901054
  C    10.762273  4.269371  2.907213
  C     9.002986  0.033671  2.302565
  C     9.545713  4.069585  2.175146
  N    11.141864  1.007883  2.126182
  N    11.885682  4.497766  2.220429
  N     9.076899  0.027770  0.989557
  N     9.716940  4.330751  0.884763
  N     8.584775 -0.075172  4.845264
  N     8.949281  3.745695  4.671165
  S     7.827554 -0.641258  3.451951
  S     8.162259  3.735479  3.222351
  S    10.596746  0.692964  0.573658
  S    11.286825  4.722606  0.621651
  S    10.165246  0.403933  4.603191
  S    10.515941  4.271178  4.571148
