16  
    
  C     7.102755 -1.362643  2.271395
  C     7.125420  2.253774  2.099203
  C     5.850916 -1.659398  1.626122
  C     5.905963  1.777361  1.457906
  N     8.133918 -1.162659  1.420255
  N     8.175795  2.320945  1.289604
  N     5.979477 -1.912960  0.321102
  N     5.999815  1.599011  0.127317
  N     5.320818 -1.803756  4.109724
  N     5.330926  1.972499  3.924553
  S     4.540858 -2.017724  2.703937
  S     4.516583  1.666289  2.555786
  S     7.542818 -1.604045 -0.057589
  S     7.619296  1.922178 -0.241462
  S     6.930106 -1.301932  4.011503
  S     6.834394  2.579060  3.769372
