16  
    
  C     8.757888 -0.096676  2.524384
  C     8.527783  3.161402  2.527124
  C     7.570809 -0.630665  1.897286
  C     7.388718  2.624962  1.825140
  N     9.730693  0.196379  1.696165
  N     9.582584  3.378840  1.749513
  N     7.691475 -0.735412  0.577607
  N     7.588814  2.336181  0.536372
  N     7.151904 -0.760140  4.363055
  N     6.721606  2.897590  4.337896
  S     6.273101 -0.969596  2.968386
  S     6.091027  2.319855  2.927804
  S     9.213200 -0.192990  0.160770
  S     9.135321  2.916324  0.268356
  S     8.661002 -0.136160  4.284034
  S     8.305164  3.295473  4.284176
