16  
    
  C     5.909893 -2.143476  1.729629
  C     5.551135  1.168514  1.768482
  C     4.585407 -2.520972  1.161044
  C     4.308306  0.731249  1.142250
  N     6.895216 -1.997545  0.882322
  N     6.556698  1.164645  0.884049
  N     4.593579 -2.513889 -0.162233
  N     4.421594  0.536599 -0.180144
  N     4.344565 -2.332282  3.722327
  N     3.738332  1.232778  3.630342
  S     3.393072 -2.576387  2.407604
  S     2.966269  0.725689  2.264862
  S     6.182639 -2.314110 -0.629197
  S     5.978370  0.780283 -0.595936
  S     5.926223 -2.075001  3.488311
  S     5.361666  1.592788  3.443177
