16  
    
  C    11.353903  1.030039  3.364140
  C    11.496394  4.739050  2.760664
  C    10.074250  0.565427  2.812270
  C    10.253287  4.201885  2.183427
  N    12.293847  1.201946  2.410589
  N    12.522313  4.952552  1.920616
  N    10.071337  0.378096  1.493906
  N    10.325248  4.161025  0.834866
  N     9.624736  0.735545  5.252236
  N     9.873659  4.357993  4.770352
  S     8.709552  0.456403  3.845780
  S     9.041201  4.008422  3.374775
  S    11.520241  0.877150  0.965525
  S    11.901280  4.513926  0.385273
  S    11.272710  1.239462  5.049507
  S    11.391216  4.994464  4.534212
