16  
    
  C    10.914305  0.576803  2.956961
  C    10.743634  4.386394  2.781353
  C     9.701249  0.144645  2.350709
  C     9.743933  3.581549  2.157029
  N    11.959796  0.451547  2.176717
  N    11.882186  4.640694  2.107785
  N     9.803468 -0.070709  1.050286
  N    10.127139  3.209905  0.947355
  N     9.236568  0.454115  4.888691
  N     8.933297  4.144429  4.554291
  S     8.412819  0.078649  3.496325
  S     8.329054  3.464987  3.191356
  S    11.391618  0.119015  0.671505
  S    11.637476  3.819705  0.610602
  S    10.776253  1.071629  4.637949
  S    10.436874  4.873147  4.447557
