16  
    
  C     8.976365 -0.403800  2.497314
  C     9.343642  3.579622  2.828787
  C     7.722152 -0.752062  1.906001
  C     8.123472  3.121606  2.130364
  N     9.981173 -0.117659  1.678459
  N    10.409644  3.523197  2.035570
  N     7.832698 -0.934255  0.583747
  N     8.249072  2.832339  0.824819
  N     7.416627 -0.861403  4.495888
  N     7.610741  3.455773  4.697527
  S     6.545487 -1.140223  3.096139
  S     6.812336  3.093134  3.271713
  S     9.429720 -0.522121  0.163313
  S     9.890619  3.198987  0.508775
  S     9.014370 -0.389583  4.246247
  S     9.211812  3.906213  4.566630
