16  
    
  C    10.529790  0.710083  3.028212
  C    10.578934  4.655651  2.789865
  C     9.312335  0.094068  2.469933
  C     9.442236  3.961487  2.219090
  N    11.545853  0.829606  2.163674
  N    11.597135  4.662968  1.924433
  N     9.324668 -0.104488  1.147767
  N     9.539460  3.502402  0.971246
  N     8.777778  0.572711  4.955694
  N     8.837672  4.486418  4.720511
  S     8.023564 -0.160971  3.633992
  S     8.157995  3.687227  3.411760
  S    10.903353  0.328010  0.690327
  S    11.093280  3.898272  0.519904
  S    10.355060  1.118691  4.701995
  S    10.427209  4.932002  4.545802
