16  
    
  C     9.684280 -0.152492  2.485844
  C     9.772320  3.489129  2.587162
  C     8.410593 -0.598059  1.972350
  C     8.508745  3.132737  1.907308
  N    10.678734 -0.063099  1.575340
  N    10.679202  3.800715  1.678844
  N     8.410241 -0.796382  0.627007
  N     8.505322  3.194410  0.569287
  N     8.205333 -0.619816  4.529909
  N     8.113883  2.938051  4.471461
  S     7.340696 -1.015375  3.221894
  S     7.321127  2.734096  3.050299
  S    10.001043 -0.459059  0.115238
  S    10.032094  3.665761  0.131293
  S     9.787041 -0.196918  4.237592
  S     9.771632  3.465746  4.399797
