16  
    
  C    12.847709  1.704048  3.718859
  C    12.906800  5.580440  3.696580
  C    11.613772  1.250141  3.035887
  C    11.662856  4.996911  3.232455
  N    13.845330  1.640523  2.901839
  N    13.924637  5.623061  2.812240
  N    11.672884  1.016476  1.722043
  N    11.681587  4.648701  1.991854
  N    10.970580  1.684812  5.478565
  N    11.241871  5.498384  5.666927
  S    10.223191  1.229278  4.072918
  S    10.410453  4.812206  4.433422
  S    13.312925  1.283740  1.365911
  S    13.205637  4.933848  1.440409
  S    12.599015  1.963852  5.438721
  S    12.768745  6.031187  5.438133
