16  
    
  C     7.047277 -1.553840  2.215475
  C     7.104158  2.225152  2.133136
  C     5.828966 -1.912285  1.502219
  C     5.936233  1.834013  1.418675
  N     8.144427 -1.362453  1.529904
  N     8.174920  2.397437  1.363300
  N     5.997479 -1.825785  0.208893
  N     6.110308  1.550978  0.115328
  N     5.183271 -1.674050  4.005398
  N     5.143178  1.982046  3.868640
  S     4.466369 -2.113852  2.536477
  S     4.505659  1.643838  2.348754
  S     7.590738 -1.473828 -0.057101
  S     7.695369  1.899836 -0.229174
  S     6.848499 -1.465958  3.923622
  S     6.734026  2.487552  3.795242
