16  
    
  C     7.307944 -1.457456  2.224581
  C     7.670213  2.716038  2.249591
  C     6.248113 -2.181350  1.512320
  C     6.457659  2.345134  1.613863
  N     8.265661 -1.025933  1.448277
  N     8.662872  3.025796  1.407145
  N     6.352819 -2.118680  0.209988
  N     6.597079  2.264219  0.290498
  N     5.513255 -2.102307  3.929154
  N     5.926329  2.261930  4.188539
  S     4.865036 -2.596473  2.446981
  S     5.128514  1.982318  2.756971
  S     7.777125 -1.369179 -0.098306
  S     8.105091  2.626372 -0.105244
  S     7.035167 -1.418619  3.916472
  S     7.520816  2.833735  3.956365
