16  
    
  C    10.043110 -0.190481  2.775277
  C    10.079490  3.894272  2.709100
  C     8.812194 -0.459062  2.160966
  C     9.030174  2.971235  2.296655
  N    11.064326  0.052540  1.916448
  N    10.950077  4.169162  1.726463
  N     8.832878 -0.602267  0.805062
  N     8.994414  2.625619  1.021138
  N     8.242931 -0.283807  4.659027
  N     8.474418  3.482167  4.711374
  S     7.503208 -0.759558  3.251213
  S     7.810581  2.663074  3.445795
  S    10.411436 -0.278516  0.418061
  S    10.373819  3.349516  0.364596
  S     9.863752 -0.112570  4.485734
  S     9.935181  4.240910  4.452446
