16  
    
  C     8.521506 -0.882478  2.385607
  C     8.278975  2.647577  2.031353
  C     7.273634 -1.245942  1.680077
  C     7.065376  2.261343  1.311909
  N     9.598633 -0.883721  1.631997
  N     9.344268  2.831257  1.249887
  N     7.416397 -1.245773  0.396683
  N     7.228262  2.093006  0.021887
  N     6.596760 -1.171001  4.086954
  N     6.347757  2.286694  3.777833
  S     5.828622 -1.501121  2.632682
  S     5.689207  1.889623  2.334250
  S     9.017302 -1.165520  0.078071
  S     8.853292  2.373851 -0.288071
  S     8.230585 -0.909374  4.085430
  S     7.917671  2.702370  3.721391
