16  
    
  C     5.633713 -2.043528  1.776025
  C     5.219026  1.417444  1.734607
  C     4.407750 -2.601554  1.177607
  C     4.065063  0.804429  1.105762
  N     6.631930 -1.763102  0.927667
  N     6.014956  1.979314  0.833264
  N     4.483782 -2.775399 -0.137486
  N     4.188989  0.674700 -0.222813
  N     3.981009 -2.399801  3.699245
  N     3.606683  1.001651  3.659010
  S     3.132311 -2.719435  2.337865
  S     2.787528  0.522505  2.286077
  S     6.055359 -2.391521 -0.541466
  S     5.554911  1.479292 -0.642010
  S     5.534014 -1.797035  3.522699
  S     5.142611  1.491578  3.455038
