16  
    
  C     9.886232 -0.083979  2.796019
  C     9.721939  3.842190  2.802268
  C     8.770218 -0.675070  2.052010
  C     8.562507  3.366704  2.072603
  N    11.003139  0.078884  2.034738
  N    10.771595  4.077748  2.041295
  N     8.940644 -0.787500  0.727686
  N     8.720334  3.100528  0.779877
  N     7.962832 -0.335926  4.471390
  N     7.828796  3.599252  4.532693
  S     7.411838 -0.917401  3.018047
  S     7.214125  3.187375  3.044095
  S    10.522137 -0.315628  0.468305
  S    10.310385  3.690412  0.473496
  S     9.552565  0.035060  4.520748
  S     9.386923  4.217311  4.539634
