16  
    
  C    10.923088  0.599166  2.952291
  C    10.780142  4.459515  2.790087
  C     9.675919  0.167413  2.393610
  C     9.693822  3.754857  2.201563
  N    11.932481  0.578873  2.090082
  N    11.889209  4.576716  2.012927
  N     9.744531 -0.084750  1.117292
  N     9.980489  3.258192  1.015653
  N     9.061711  0.630684  4.836670
  N     8.772062  4.335535  4.482740
  S     8.284289  0.209426  3.442071
  S     8.406730  3.298717  3.217730
  S    11.288298  0.088143  0.624597
  S    11.506979  3.741854  0.655599
  S    10.618508  1.192851  4.595128
  S    10.296415  5.001576  4.423880
