16  
    
  C     5.481582 -2.277349  1.765498
  C     5.220689  1.743339  1.545396
  C     4.272655 -2.688864  1.029811
  C     4.178398  1.065566  0.769800
  N     6.567343 -2.070075  1.079676
  N     6.361018  1.943144  0.841054
  N     4.510940 -2.812727 -0.238917
  N     4.517139  0.914511 -0.505574
  N     3.593975 -2.687131  3.518454
  N     3.258361  1.129217  3.231570
  S     2.905431 -2.974507  2.046351
  S     2.736935  0.679618  1.718679
  S     6.053289 -2.282305 -0.516865
  S     6.043961  1.484129 -0.723811
  S     5.190945 -2.203165  3.482636
  S     4.839724  1.757655  3.242061
