16  
    
  C     7.059895 -1.540014  2.261465
  C     7.032318  2.348443  2.111387
  C     5.816472 -1.825461  1.571769
  C     5.895139  1.798767  1.404791
  N     8.135461 -1.359507  1.510037
  N     8.131313  2.396821  1.381615
  N     5.975789 -1.815449  0.255569
  N     6.052591  1.520884  0.112096
  N     5.224065 -1.800445  4.055842
  N     5.230401  2.021744  3.832183
  S     4.477228 -2.079685  2.634565
  S     4.490404  1.662220  2.403908
  S     7.541052 -1.459536 -0.066462
  S     7.680934  1.904374 -0.188376
  S     6.871068 -1.371647  4.022305
  S     6.817071  2.545100  3.830956
