16  
    
  C    11.299193  1.088954  3.292623
  C    11.482460  4.758962  2.812460
  C    10.091194  0.558055  2.767453
  C    10.285518  4.294876  2.216465
  N    12.261418  1.240620  2.436448
  N    12.441390  5.018619  1.962098
  N    10.047819  0.497131  1.455088
  N    10.361788  4.079539  0.897881
  N     9.720048  0.653457  5.226314
  N     9.848032  4.376523  4.754045
  S     8.810350  0.405209  3.859195
  S     8.978327  3.977620  3.360473
  S    11.564675  0.872282  0.935307
  S    11.881546  4.536596  0.462351
  S    11.252053  1.283179  5.038814
  S    11.382061  5.024745  4.487493
