16  
    
  C    10.309357  0.293917  2.527116
  C    10.414492  4.248573  3.051696
  C     9.147499 -0.240196  1.903893
  C     9.137159  3.812746  2.557411
  N    11.442354  0.188909  1.863532
  N    11.459441  4.087431  2.242522
  N     9.370882 -0.673308  0.683015
  N     9.194726  3.430061  1.280509
  N     8.400665  0.559595  4.286575
  N     8.658650  4.296323  5.062216
  S     7.818962 -0.379060  3.088358
  S     7.736842  3.953980  3.696372
  S    10.997102 -0.537843  0.468229
  S    10.773964  3.597500  0.787660
  S    10.040712  0.833969  4.165799
  S    10.251790  4.701117  4.717998
