16  
    
  C     6.876781 -1.807540  1.716547
  C     6.602451  2.223774  1.992434
  C     5.608598 -2.253948  1.124491
  C     5.515121  1.513699  1.412777
  N     7.825650 -1.702221  0.829181
  N     7.537460  2.608802  1.100628
  N     5.579254 -2.257252 -0.196751
  N     5.663919  1.301920  0.098142
  N     5.171812 -2.071074  3.699436
  N     5.052632  1.537282  3.984262
  S     4.335062 -2.461198  2.308915
  S     4.283310  1.091731  2.577009
  S     7.150491 -1.813421 -0.670872
  S     7.029116  2.108823 -0.330488
  S     6.767058 -1.752041  3.438115
  S     6.522551  2.348190  3.719828
