16  
    
  C     8.467473 -0.987888  2.478141
  C     8.206515  2.602610  2.231166
  C     7.174567 -1.524682  2.098077
  C     7.037720  2.108456  1.544367
  N     9.328708 -0.896664  1.489044
  N     9.292320  2.767608  1.452579
  N     7.164955 -1.972951  0.865467
  N     7.189327  1.971537  0.221836
  N     6.791895 -0.694752  4.453324
  N     6.206273  2.744389  3.933719
  S     5.909576 -1.359751  3.258648
  S     5.549057  2.070844  2.517975
  S     8.615466 -1.590308  0.179266
  S     8.813159  2.359529 -0.039014
  S     8.434246 -0.440968  4.118323
  S     7.892752  2.942768  3.940185
