16  
    
  C    10.178751  0.573925  2.660791
  C    10.752086  4.265584  2.863241
  C     8.994153 -0.003448  2.014536
  C     9.450992  3.936836  2.287921
  N    11.187114  0.708423  1.814156
  N    11.679019  4.249150  1.914757
  N     9.147411 -0.284644  0.731262
  N     9.403875  3.645380  0.989459
  N     8.325151  0.510010  4.425479
  N     8.972348  4.176498  4.750546
  S     7.749751 -0.350014  3.139388
  S     8.155344  3.667830  3.381050
  S    10.690873  0.069962  0.381651
  S    10.990847  3.830800  0.482892
  S     9.959495  0.840854  4.367792
  S    10.560159  4.673697  4.568321
