16  
    
  C    12.056787  1.622344  3.489237
  C    12.161919  4.991708  3.801191
  C    10.985384  0.840678  2.835730
  C    10.882952  4.565893  3.233212
  N    13.058252  1.858800  2.611783
  N    13.026888  5.468501  2.907627
  N    11.085833  0.725578  1.510704
  N    10.830027  4.634552  1.910615
  N    10.288040  1.061940  5.322031
  N    10.585214  4.614203  5.834668
  S     9.745221  0.356882  3.900799
  S     9.658661  4.293159  4.500848
  S    12.526007  1.415677  1.127372
  S    12.276898  5.206536  1.411986
  S    11.817384  1.714401  5.172140
  S    12.152977  5.001095  5.516018
