16  
    
  C    12.874830  1.592169  3.312462
  C    12.465089  5.069934  3.335246
  C    11.558174  1.082655  2.791249
  C    11.275772  4.716035  2.638284
  N    13.827552  1.690114  2.431158
  N    13.498643  5.401517  2.542703
  N    11.598128  0.872460  1.487279
  N    11.350366  4.625979  1.355456
  N    11.322570  1.332269  5.325486
  N    10.533259  4.921299  5.147851
  S    10.381436  1.047337  3.986049
  S     9.892329  4.443910  3.673004
  S    13.129991  1.330255  0.962540
  S    12.863928  5.075719  0.962111
  S    12.832132  2.011042  5.061735
  S    12.217923  5.210776  5.051461
