16  
    
  C     9.004936 -0.401486  2.534668
  C     9.229301  3.523086  2.790701
  C     7.725981 -0.766191  1.874116
  C     8.060906  3.126627  2.129710
  N     9.963490 -0.119129  1.678099
  N    10.304512  3.551287  2.042935
  N     7.811512 -0.921617  0.564346
  N     8.200720  2.941623  0.819236
  N     7.445117 -0.889507  4.432089
  N     7.564022  3.427873  4.677555
  S     6.499999 -1.122929  3.080246
  S     6.810699  3.038258  3.291701
  S     9.389529 -0.486430  0.187716
  S     9.816604  3.200045  0.505741
  S     9.030778 -0.363322  4.277185
  S     9.143911  3.844483  4.533780
