16  
    
  C     8.771330 -0.243478  2.515282
  C     8.662614  3.037489  2.558988
  C     7.592729 -0.752247  1.866369
  C     7.440100  2.705728  1.910411
  N     9.760347  0.008130  1.706791
  N     9.734823  3.198037  1.778942
  N     7.679606 -0.870769  0.569591
  N     7.562412  2.579722  0.604257
  N     7.000229 -0.675005  4.316654
  N     6.736334  2.922398  4.334506
  S     6.221799 -0.978999  2.904413
  S     5.993761  2.451815  2.932986
  S     9.196246 -0.351730  0.188773
  S     9.155360  2.804028  0.273771
  S     8.508131 -0.085741  4.190848
  S     8.346994  3.249300  4.267733
