16  
    
  C     9.598462 -0.565711  2.754887
  C     9.413931  3.193017  2.576356
  C     8.362488 -0.796185  2.077131
  C     8.192328  3.029835  1.854794
  N    10.665560 -0.534469  1.981060
  N    10.500571  3.262584  1.842551
  N     8.439221 -1.016318  0.771494
  N     8.352926  3.008765  0.539304
  N     7.833492 -0.581487  4.647734
  N     7.632073  3.027450  4.358845
  S     7.038152 -0.998808  3.247613
  S     6.838842  3.018460  2.937227
  S    10.120741 -0.908471  0.467744
  S    10.013069  3.162310  0.222071
  S     9.505731 -0.449297  4.487625
  S     9.288749  3.431834  4.315914
