16  
    
  C     7.160445 -1.628408  1.697042
  C     6.919000  1.999574  1.894900
  C     5.989493 -2.195602  1.070111
  C     5.684734  1.588091  1.269159
  N     8.147803 -1.514713  0.839640
  N     7.899195  2.329724  1.036185
  N     6.033898 -2.312995 -0.247103
  N     5.761323  1.625959 -0.071877
  N     5.368921 -1.771841  3.551008
  N     5.279646  1.589545  3.890477
  S     4.605726 -2.302118  2.165123
  S     4.404113  1.279938  2.457331
  S     7.643671 -2.024194 -0.617859
  S     7.271455  2.051643 -0.480745
  S     6.985473 -1.368297  3.405884
  S     6.829329  2.181202  3.655053
