16  
    
  C    10.978099  0.716721  2.848189
  C    11.160760  4.154288  3.313215
  C     9.859622 -0.017676  2.370341
  C     9.893114  4.005914  2.686522
  N    11.951574  0.925734  1.955545
  N    12.161252  4.222068  2.456963
  N    10.005145 -0.497168  1.114237
  N     9.895678  3.938466  1.342202
  N     9.423661  0.627387  4.865180
  N     9.391575  4.348393  5.133556
  S     8.656556 -0.226041  3.608170
  S     8.515521  3.885596  3.774741
  S    11.519676  0.099333  0.577013
  S    11.504322  4.180753  0.965529
  S    11.041941  1.062805  4.563690
  S    11.027373  4.422070  4.969753
