16  
    
  C    10.365649  0.467733  2.983955
  C    10.743647  4.558406  2.918954
  C     9.183429 -0.054022  2.389446
  C     9.471608  4.233112  2.303924
  N    11.262949  0.942953  2.114585
  N    11.793326  4.714195  2.129146
  N     9.210805  0.018046  1.072122
  N     9.553119  4.281085  0.981851
  N     8.672859 -0.112375  4.892991
  N     9.058995  3.684257  4.739759
  S     7.936928 -0.595893  3.469363
  S     8.164906  3.886864  3.375190
  S    10.612568  0.644939  0.600469
  S    11.133056  4.628078  0.557837
  S    10.166402  0.551310  4.694019
  S    10.626725  4.199265  4.597893
