16  
    
  C    10.197568 -0.229132  2.834294
  C    10.354572  3.821623  3.165978
  C     8.950803 -0.459341  2.137914
  C     9.124034  3.956212  2.454582
  N    11.243008 -0.034889  2.070926
  N    11.382043  3.788710  2.316483
  N     9.078250 -0.367528  0.835379
  N     9.148141  3.868712  1.126579
  N     8.376337 -0.566990  4.646548
  N     8.500042  3.922015  4.951930
  S     7.545553 -0.553347  3.211759
  S     7.726128  3.892029  3.501203
  S    10.647934 -0.012680  0.546835
  S    10.751949  3.660041  0.750694
  S     9.985440 -0.186333  4.583390
  S    10.196438  3.963461  4.931748
