16  
    
  C     4.309986 -2.483577  1.735503
  C     4.085632  1.280443  1.469297
  C     3.214563 -3.171861  1.157137
  C     2.956390  0.600703  0.936487
  N     5.299864 -2.213643  0.860724
  N     5.060133  1.406697  0.579314
  N     3.310469 -3.331932 -0.189635
  N     2.977432  0.312537 -0.354558
  N     2.527068 -2.721323  3.636035
  N     2.317401  1.081146  3.404720
  S     1.894234 -3.468454  2.312062
  S     1.579606  0.413118  2.011342
  S     4.749760 -2.724440 -0.621448
  S     4.518699  0.784353 -0.851841
  S     4.088538 -2.166315  3.451486
  S     3.844486  1.636578  3.146832
