16  
    
  C     8.435967 -0.987720  2.387820
  C     8.181379  2.571182  2.038772
  C     7.237582 -1.097341  1.613397
  C     7.090386  2.056545  1.239697
  N     9.520103 -0.894820  1.651121
  N     9.266313  2.794558  1.312025
  N     7.433977 -1.301825  0.332913
  N     7.333458  1.945846 -0.055146
  N     6.522035 -1.173072  4.183243
  N     6.284222  2.262232  3.758460
  S     5.813346 -1.268239  2.677831
  S     5.679664  1.813185  2.244172
  S     9.078149 -1.124417  0.053346
  S     8.907719  2.333893 -0.264841
  S     8.143625 -0.835624  4.139453
  S     7.945543  2.586159  3.789765
