16  
    
  C     8.100530 -0.694316  2.449972
  C     8.303200  2.956546  2.344531
  C     6.984705 -1.379073  1.852036
  C     7.086451  2.470810  1.751055
  N     9.147014 -0.566214  1.679522
  N     9.286417  3.159860  1.450921
  N     7.162623 -1.644316  0.594538
  N     7.118890  2.187161  0.448759
  N     6.312135 -1.025971  4.241197
  N     6.461051  2.959658  4.188177
  S     5.562712 -1.497586  2.793810
  S     5.752824  2.222173  2.866583
  S     8.672997 -1.138767  0.199034
  S     8.640197  2.707485 -0.005863
  S     7.901430 -0.453766  4.195762
  S     8.043574  3.292747  4.057104
