16  
    
  C    11.322139  0.951457  3.296302
  C    11.643613  4.719323  2.878633
  C    10.059927  0.638676  2.721338
  C    10.434162  4.160113  2.331217
  N    12.302491  1.005022  2.379272
  N    12.658603  4.848672  2.037500
  N    10.000816  0.446460  1.372191
  N    10.543547  3.993532  0.998611
  N     9.619494  0.748946  5.330752
  N     9.813879  4.446673  4.809009
  S     8.830606  0.424064  3.898903
  S     9.085664  3.946045  3.405217
  S    11.607760  0.652632  0.925086
  S    12.055828  4.520761  0.541608
  S    11.162868  1.240912  5.058475
  S    11.430315  4.828894  4.688221
