16  
    
  C     7.365024 -1.618105  2.208898
  C     7.492268  2.391641  2.111707
  C     6.160826 -2.027193  1.520257
  C     6.234427  2.044242  1.536024
  N     8.351884 -1.312089  1.338489
  N     8.479327  2.568727  1.235458
  N     6.253198 -2.118095  0.180348
  N     6.351985  1.887775  0.213643
  N     5.597139 -2.083994  4.016794
  N     5.901851  2.059525  4.133018
  S     4.807188 -2.458526  2.534690
  S     4.985856  1.869004  2.734437
  S     7.763763 -1.606245 -0.206429
  S     7.810250  2.362179 -0.242201
  S     7.189075 -1.666149  3.915640
  S     7.417004  2.701421  3.846446
