16  
    
  C     9.743343 -0.095769  2.488794
  C     9.766811  3.467919  2.539122
  C     8.472369 -0.634445  1.949076
  C     8.538529  3.152478  1.943709
  N    10.660202 -0.019406  1.572375
  N    10.724481  3.868273  1.699938
  N     8.389202 -0.737217  0.652970
  N     8.500793  3.156803  0.629037
  N     8.248972 -0.639866  4.550627
  N     8.161359  2.960837  4.509244
  S     7.328470 -0.998630  3.204452
  S     7.376250  2.721026  3.049798
  S     9.964547 -0.386253  0.094846
  S    10.022672  3.683976  0.130154
  S     9.797637 -0.159973  4.255497
  S     9.724055  3.546886  4.331998
