16  
    
  C     4.577603 -2.144819  1.575082
  C     4.837540  1.525364  1.864402
  C     3.372679 -2.559125  0.911732
  C     3.548326  1.308577  1.211103
  N     5.663843 -1.996105  0.775924
  N     5.841999  1.465460  0.999779
  N     3.502496 -2.595830 -0.457093
  N     3.576556  1.274743 -0.104019
  N     2.831804 -2.246857  3.440698
  N     3.102088  1.213494  3.643573
  S     2.087420 -2.767163  2.060814
  S     2.186524  1.293754  2.220433
  S     5.114479 -2.311180 -0.739193
  S     5.200001  1.247456 -0.531601
  S     4.496289 -2.027961  3.314026
  S     4.687819  1.701561  3.616736
