16  
    
  C    11.912735  1.314343  3.347046
  C    11.882658  4.716320  3.572395
  C    10.758966  0.720749  2.648698
  C    10.676192  4.382183  2.827036
  N    12.994638  1.279820  2.567364
  N    12.950616  4.998720  2.749975
  N    10.936261  0.452327  1.353418
  N    10.867333  4.247412  1.531484
  N    10.031410  1.249786  5.030909
  N     9.914676  4.819909  5.244677
  S     9.454259  0.428423  3.677658
  S     9.218037  4.351625  3.797083
  S    12.532361  0.846090  1.024634
  S    12.488728  4.662146  1.211830
  S    11.686051  1.595064  5.112553
  S    11.548023  5.083091  5.190147
