16  
    
  C    12.656711  1.634661  3.751006
  C    12.250187  4.988499  3.444950
  C    11.359659  1.326501  3.121288
  C    11.165605  4.480537  2.720955
  N    13.773942  1.621924  2.994022
  N    13.368513  5.195423  2.696440
  N    11.545064  1.183729  1.808008
  N    11.333870  4.322559  1.415218
  N    10.892016  1.397201  5.597033
  N    10.481487  4.898206  5.167041
  S    10.001535  1.299706  4.228491
  S     9.796942  4.281914  3.804646
  S    13.140363  1.331613  1.394792
  S    12.953060  4.793290  1.151470
  S    12.490203  1.804734  5.496047
  S    12.136047  5.096366  5.139516
