16  
    
  C     6.190844 -1.545482  1.548766
  C     6.383904  2.013096  1.840140
  C     5.054260 -2.177466  0.935294
  C     5.174730  1.724930  1.164359
  N     7.238458 -1.383023  0.741058
  N     7.444584  2.158217  1.044588
  N     5.186726 -2.491404 -0.377600
  N     5.345531  1.524207 -0.142618
  N     4.507800 -1.911577  3.410094
  N     4.612718  1.832483  3.684904
  S     3.759686 -2.445427  2.027963
  S     3.862397  1.491397  2.275230
  S     6.811684 -2.098510 -0.724648
  S     6.913236  1.771199 -0.441108
  S     5.961640 -1.193581  3.214258
  S     6.200813  2.267898  3.616056
