16  
    
  C    12.537597  1.537911  3.322054
  C    12.755418  5.554778  3.469621
  C    11.340923  0.985075  2.704576
  C    11.654710  5.008736  2.704511
  N    13.521257  1.966827  2.528719
  N    13.852665  5.718707  2.844563
  N    11.410626  1.072637  1.410698
  N    11.922090  4.851159  1.409283
  N    10.809660  1.117498  5.230412
  N    11.028192  4.894498  5.173190
  S    10.039592  0.625779  3.852360
  S    10.236788  4.560365  3.753921
  S    12.892053  1.683400  0.985369
  S    13.530967  5.308600  1.224403
  S    12.397841  1.590641  5.058756
  S    12.509639  5.557465  5.161209
