16  
    
  C     6.136021 -1.760449  1.582267
  C     6.362572  1.856982  1.880632
  C     4.994266 -2.451372  1.043829
  C     5.123904  1.774831  1.170493
  N     7.192731 -1.637792  0.789653
  N     7.436530  1.936555  1.115022
  N     5.157226 -2.728920 -0.239969
  N     5.188988  1.696169 -0.168289
  N     4.348672 -1.727712  3.454039
  N     4.511199  2.008330  3.642930
  S     3.679758 -2.443216  2.109437
  S     3.738537  1.709751  2.201561
  S     6.663516 -2.149339 -0.691197
  S     6.857761  1.879360 -0.495770
  S     5.985442 -1.427024  3.294038
  S     6.167149  1.976062  3.626882
