16  
    
  C     8.704419 -0.943219  2.342114
  C     8.406161  3.295634  2.232525
  C     7.559730 -1.532635  1.736811
  C     7.240179  2.578775  1.725522
  N     9.741204 -0.687070  1.497603
  N     9.370427  3.585919  1.323202
  N     7.721721 -1.714914  0.399778
  N     7.360285  2.295959  0.412517
  N     7.050838 -1.496905  4.248144
  N     6.755905  2.817279  4.282029
  S     6.217980 -1.820126  2.868227
  S     5.967817  2.213706  2.916171
  S     9.249546 -1.217993  0.014918
  S     8.822483  2.896104 -0.052285
  S     8.553540 -0.836334  4.028643
  S     8.254540  3.439239  3.920464
