16  
    
  C     4.448513 -2.147442  1.886995
  C     3.984963  1.177368  1.185896
  C     3.291428 -2.736047  1.253576
  C     2.832071  0.647583  0.489306
  N     5.489866 -2.033158  1.063423
  N     5.043168  1.317537  0.390895
  N     3.495869 -3.136999  0.002761
  N     3.094794  0.258857 -0.789066
  N     2.581773 -2.352872  3.702619
  N     2.293631  0.930459  3.037235
  S     1.946788 -3.051017  2.331690
  S     1.532861  0.284994  1.650345
  S     5.003314 -2.549018 -0.444529
  S     4.637807  0.739542 -1.111740
  S     4.176926 -1.872996  3.602844
  S     3.844766  1.480384  2.840399
