16  
    
  C    11.601968  1.057558  3.219213
  C    12.026536  4.914126  3.266596
  C    10.398749  0.618635  2.558885
  C    10.835389  4.321765  2.719332
  N    12.678284  1.141679  2.457152
  N    12.902351  5.124244  2.289280
  N    10.573864  0.373650  1.267575
  N    10.874367  4.005550  1.461580
  N     9.869570  1.176420  5.023963
  N    10.236438  5.243148  5.053616
  S     9.120703  0.504438  3.717562
  S     9.509784  4.282586  3.872983
  S    12.151348  0.786462  0.925831
  S    12.316637  4.489237  0.896318
  S    11.543164  1.267341  5.002970
  S    11.872506  5.590306  4.817375
