16  
    
  C     9.608361 -0.579377  2.753128
  C     9.427758  3.199809  2.579505
  C     8.367301 -0.794939  2.074271
  C     8.192872  3.026118  1.861695
  N    10.663766 -0.530902  1.982171
  N    10.513278  3.263747  1.840559
  N     8.445763 -1.017095  0.774867
  N     8.354835  3.012657  0.549746
  N     7.838369 -0.579075  4.644742
  N     7.635667  3.022064  4.359261
  S     7.036762 -0.998069  3.247081
  S     6.846432  3.020436  2.939029
  S    10.122324 -0.904337  0.465821
  S    10.014115  3.169161  0.223484
  S     9.510016 -0.448383  4.485668
  S     9.286754  3.424729  4.309506
