16  
    
  C    12.521070  1.592791  3.499099
  C    12.365689  5.234169  3.485175
  C    11.335594  1.030021  3.002306
  C    11.134900  4.798880  2.896106
  N    13.584336  1.788978  2.682248
  N    13.324686  5.429676  2.570621
  N    11.397734  0.884841  1.689301
  N    11.161840  4.514217  1.568914
  N    10.828183  1.337331  5.476111
  N    10.657346  4.897548  5.439016
  S    10.023430  0.753684  4.103550
  S     9.871133  4.643666  3.960406
  S    12.870247  1.379856  1.146480
  S    12.728474  4.914056  1.090849
  S    12.463190  1.780793  5.265487
  S    12.230439  5.493832  5.233072
