16  
    
  C     4.599764 -2.113964  1.939260
  C     4.139613  1.084248  1.233555
  C     3.447677 -2.597337  1.241841
  C     2.907134  0.808951  0.558769
  N     5.702452 -1.976175  1.167100
  N     5.209263  1.206340  0.436893
  N     3.648384 -2.741429 -0.086785
  N     3.043233  0.710838 -0.756029
  N     2.841290 -2.419884  3.692467
  N     2.248460  1.027613  3.075385
  S     2.081127 -2.836926  2.267623
  S     1.591047  0.520935  1.596448
  S     5.270699 -2.471829 -0.339501
  S     4.606809  0.873294 -1.109211
  S     4.336737 -1.699496  3.570633
  S     3.835359  1.355436  2.949938
