16  
    
  C     7.286647 -1.748701  2.210069
  C     7.451443  2.368246  2.140819
  C     6.065614 -2.135068  1.548834
  C     6.195269  2.040113  1.567098
  N     8.347525 -1.437367  1.446490
  N     8.435755  2.506984  1.258240
  N     6.239606 -2.205457  0.215739
  N     6.278024  1.875730  0.246921
  N     5.557602 -2.045407  4.035258
  N     5.738220  2.254944  4.128687
  S     4.693721 -2.273670  2.589072
  S     4.942992  1.653300  2.766226
  S     7.819197 -1.774157 -0.090550
  S     7.791537  2.026016 -0.238413
  S     7.203893 -1.630482  3.934422
  S     7.373920  2.604550  3.844085
