16  
    
  C     3.633185 -3.030275  1.102399
  C     3.907931  0.840958  1.479102
  C     2.426866 -3.644402  0.545172
  C     2.743701  0.299565  0.811166
  N     4.594717 -2.861869  0.213875
  N     4.903887  1.032732  0.631106
  N     2.520081 -3.752988 -0.774670
  N     2.793756  0.170890 -0.513155
  N     1.795822 -2.922221  2.981745
  N     2.224853  0.527996  3.389294
  S     1.127951 -3.848375  1.740747
  S     1.441973  0.019355  1.934977
  S     4.037236 -3.424475 -1.250807
  S     4.393009  0.574929 -0.827523
  S     3.364947 -2.413249  2.716893
  S     3.758159  1.097171  3.160097
