16  
    
  C     4.674317 -2.082610  1.890783
  C     4.159869  1.063590  1.262572
  C     3.468886 -2.506219  1.197833
  C     2.903095  0.853165  0.587836
  N     5.748591 -1.990848  1.145455
  N     5.205970  1.172423  0.432583
  N     3.718918 -2.766614 -0.065187
  N     3.023268  0.734522 -0.731905
  N     2.866497 -2.351834  3.691053
  N     2.251056  1.097912  3.039601
  S     2.103604 -2.767897  2.264333
  S     1.582281  0.559449  1.626781
  S     5.287703 -2.404881 -0.356566
  S     4.660166  0.954656 -1.110111
  S     4.385755 -1.700535  3.588815
  S     3.874106  1.316669  2.998738
