16  
    
  C     9.000342 -0.392301  2.551100
  C     9.223419  3.512736  2.802102
  C     7.740350 -0.776924  1.880847
  C     8.043760  3.129610  2.131715
  N     9.968776 -0.123446  1.673809
  N    10.292283  3.562195  2.035813
  N     7.810244 -0.916696  0.559033
  N     8.191795  2.963497  0.821640
  N     7.447849 -0.894306  4.424207
  N     7.551716  3.422901  4.676606
  S     6.492086 -1.118039  3.076132
  S     6.800744  3.025398  3.294215
  S     9.379524 -0.479113  0.188911
  S     9.798701  3.198736  0.501792
  S     9.029793 -0.359267  4.279723
  S     9.130622  3.830259  4.521555
