16  
    
  C    10.011908 -0.133405  2.821417
  C    10.024727  3.818662  2.707226
  C     8.797109 -0.582540  2.172900
  C     8.860696  3.148191  2.207344
  N    11.013244 -0.032141  1.973143
  N    10.904022  4.074818  1.765270
  N     8.848793 -0.593091  0.858898
  N     8.987350  2.743419  0.931763
  N     8.221615 -0.328886  4.645593
  N     8.535492  3.558627  4.718658
  S     7.477415 -0.776129  3.217391
  S     7.764589  2.761818  3.469185
  S    10.415394 -0.297975  0.444245
  S    10.360562  3.367355  0.348947
  S     9.864676 -0.172655  4.622090
  S    10.106757  4.109282  4.490569
