16  
    
  C     9.907450 -0.203023  2.865564
  C    10.116691  3.668541  2.709628
  C     8.744056 -0.597997  2.210091
  C     8.820214  3.251229  2.256366
  N    11.013915  0.009711  2.118494
  N    11.108000  3.852342  1.841396
  N     8.937865 -0.710228  0.879672
  N     8.854657  3.206550  0.939914
  N     8.209814 -0.671834  4.744282
  N     8.645285  3.423486  4.803650
  S     7.369278 -0.797451  3.301200
  S     7.618131  3.122372  3.563437
  S    10.505963 -0.284253  0.601649
  S    10.362221  3.492901  0.371047
  S     9.756266 -0.188891  4.549272
  S    10.164147  3.819630  4.407054
