16  
    
  C     8.375120 -0.853131  2.457547
  C     8.191991  2.516144  2.123027
  C     7.106705 -1.319316  1.944674
  C     7.026027  2.173815  1.328432
  N     9.458889 -0.933861  1.639770
  N     9.340152  2.647605  1.452036
  N     7.174231 -1.539535  0.614959
  N     7.353821  1.966136  0.059172
  N     6.685020 -0.586678  4.314338
  N     6.372979  2.097506  3.770699
  S     5.788349 -1.272986  3.063883
  S     5.598076  1.947559  2.333583
  S     8.772447 -1.432944  0.204870
  S     8.999406  2.139844 -0.138938
  S     8.358766 -0.469290  4.103080
  S     7.880518  2.670181  3.794580
