16  
    
  C     8.146040 -0.793521  2.534475
  C     8.229896  2.961245  2.363983
  C     6.975871 -1.321119  1.842134
  C     7.071460  2.382263  1.759038
  N     9.166523 -0.606277  1.671059
  N     9.195410  3.186628  1.493036
  N     7.149193 -1.696644  0.556022
  N     7.196583  2.224188  0.444290
  N     6.312017 -0.960624  4.242204
  N     6.350225  2.924567  4.199263
  S     5.614454 -1.481080  2.834062
  S     5.790549  2.182548  2.825701
  S     8.682628 -1.195638  0.227472
  S     8.651373  2.705280 -0.025046
  S     7.959956 -0.432251  4.197015
  S     8.032195  3.291702  4.079064
