16  
    
  C     5.614234 -2.024608  1.809705
  C     5.199538  1.450307  1.729014
  C     4.409794 -2.639472  1.221633
  C     4.049972  0.801744  1.095411
  N     6.620902 -1.769698  0.941935
  N     6.031501  1.992534  0.843058
  N     4.479357 -2.789157 -0.127385
  N     4.180387  0.701928 -0.225616
  N     3.957989 -2.403551  3.668393
  N     3.590274  0.965488  3.654240
  S     3.107808 -2.727438  2.338986
  S     2.819057  0.490233  2.270425
  S     6.052095 -2.368694 -0.536181
  S     5.563437  1.516210 -0.656460
  S     5.505463 -1.796359  3.553794
  S     5.144417  1.498499  3.481804
