16  
    
  C     8.767612 -0.101539  2.524225
  C     8.532395  3.162678  2.525506
  C     7.572313 -0.620989  1.897224
  C     7.401156  2.622178  1.828750
  N     9.731045  0.197247  1.699777
  N     9.584059  3.386593  1.747431
  N     7.689804 -0.733759  0.588928
  N     7.582886  2.339429  0.540509
  N     7.153182 -0.759431  4.361662
  N     6.723064  2.899387  4.334988
  S     6.277404 -0.969690  2.965956
  S     6.086619  2.312006  2.929706
  S     9.210218 -0.192493  0.164122
  S     9.131058  2.921342  0.267631
  S     8.662817 -0.137517  4.279185
  S     8.303643  3.296850  4.282775
