16  
    
  C    10.638473  0.819722  2.947550
  C    10.623259  4.473259  2.788128
  C     9.411880  0.220549  2.406845
  C     9.546611  3.596922  2.327445
  N    11.648339  0.925130  2.099842
  N    11.681373  4.669909  1.988215
  N     9.474381 -0.184527  1.161451
  N     9.825081  3.178261  1.100262
  N     8.892207  0.612447  4.912272
  N     8.845963  4.352279  4.649391
  S     8.061634  0.153578  3.542196
  S     8.128356  3.616422  3.332268
  S    11.064643  0.191513  0.685860
  S    11.266824  3.850905  0.604778
  S    10.422337  1.217028  4.643391
  S    10.317032  5.061452  4.389593
