16  
    
  C    12.974429  1.938114  3.705390
  C    12.932137  5.503186  3.601401
  C    11.678196  1.483716  3.087239
  C    11.682208  5.062222  3.077337
  N    13.944299  2.008743  2.786316
  N    13.905313  5.586893  2.742435
  N    11.738635  1.267759  1.794302
  N    11.739970  4.674394  1.831124
  N    11.342419  1.509005  5.623190
  N    11.315548  5.506648  5.550107
  S    10.422353  1.330000  4.291375
  S    10.432346  5.082378  4.272321
  S    13.285068  1.495733  1.356087
  S    13.270104  5.019275  1.283541
  S    12.927888  1.846370  5.383617
  S    12.876483  5.800773  5.385881
