16  
    
  C    11.316538  0.579438  3.056346
  C    11.101473  4.451777  3.520460
  C    10.285577 -0.087225  2.273213
  C     9.781672  4.144432  2.977093
  N    12.427065  0.736638  2.341104
  N    12.113177  4.382309  2.670319
  N    10.606861 -0.321709  1.016697
  N     9.834323  3.907908  1.647720
  N     9.311013  0.390216  4.529788
  N     9.345349  4.697239  5.479993
  S     8.836188 -0.378478  3.141715
  S     8.512135  4.242921  4.123444
  S    12.184202  0.072057  0.822509
  S    11.391719  4.096938  1.144612
  S    10.929437  0.816646  4.752600
  S    10.999416  4.811099  5.244715
