16  
    
  C    10.366317  0.420268  2.996766
  C    10.809754  4.369004  2.973850
  C     9.139205 -0.022565  2.352857
  C     9.568123  4.203558  2.254880
  N    11.256675  0.900214  2.111462
  N    11.823754  4.647825  2.143946
  N     9.112793  0.003134  1.022597
  N     9.586870  4.341669  0.946766
  N     8.677881 -0.206469  4.869726
  N     9.020120  3.634394  4.704326
  S     7.951688 -0.590166  3.422125
  S     8.197867  3.865048  3.286298
  S    10.587869  0.698547  0.579170
  S    11.125134  4.685463  0.550463
  S    10.148332  0.535559  4.728504
  S    10.588928  4.222972  4.696641
