16  
    
  C    10.893534  0.601016  2.976891
  C    10.844510  4.338437  2.830199
  C     9.690938  0.130184  2.365674
  C     9.775786  3.592362  2.167300
  N    11.965282  0.454617  2.189309
  N    11.858431  4.652931  2.067522
  N     9.832496 -0.085293  1.041292
  N    10.157721  3.191418  0.937297
  N     9.266486  0.442919  4.898199
  N     8.982334  4.128119  4.585971
  S     8.447240  0.024043  3.525852
  S     8.304676  3.492577  3.190796
  S    11.429417  0.144077  0.686668
  S    11.655646  3.860816  0.642093
  S    10.839246  1.001695  4.652186
  S    10.490837  4.805788  4.438909
