16  
    
  C     5.307191 -2.203710  1.548479
  C     4.893075  1.716504  1.793226
  C     4.220074 -2.922496  0.907272
  C     3.897319  0.893292  1.202275
  N     6.357353 -2.034650  0.730909
  N     5.993328  1.770366  1.089989
  N     4.318436 -3.138680 -0.403426
  N     4.222297  0.346939  0.015400
  N     3.454867 -2.260630  3.301634
  N     3.101525  1.744118  3.456868
  S     2.836134 -3.105671  2.011139
  S     2.482103  0.811970  2.209720
  S     5.888666 -2.692693 -0.784284
  S     5.795531  0.818379 -0.211893
  S     5.028757 -1.754979  3.222376
  S     4.630365  2.331725  3.406813
