16  
    
  C     6.110127 -1.883644  1.683361
  C     6.248300  1.866845  1.844436
  C     4.931405 -2.384981  1.053889
  C     4.974969  1.839219  1.173790
  N     7.170516 -2.022597  0.871946
  N     7.339072  1.859401  1.094371
  N     5.022025 -2.664188 -0.256848
  N     5.060556  1.632541 -0.139993
  N     4.302141 -1.939658  3.531349
  N     4.439992  1.757378  3.666350
  S     3.569732 -2.513518  2.170920
  S     3.584461  1.964587  2.233517
  S     6.591965 -2.373116 -0.629321
  S     6.752125  1.723993 -0.519833
  S     5.947330 -1.583778  3.379764
  S     6.092312  1.860758  3.572922
