16  
    
  C    12.671947  1.551307  3.416135
  C    12.637667  5.319619  3.230573
  C    11.450127  1.210018  2.761868
  C    11.473898  4.746750  2.694280
  N    13.614373  1.921471  2.541935
  N    13.579012  5.631346  2.313514
  N    11.503552  1.175715  1.412317
  N    11.469541  4.652106  1.357905
  N    10.975126  1.088431  5.332622
  N    11.148548  4.992791  5.269096
  S    10.146355  0.898294  3.884392
  S    10.302923  4.455734  3.965217
  S    13.008461  1.754563  1.031039
  S    12.971070  5.233254  0.883231
  S    12.537937  1.653727  5.083843
  S    12.699568  5.531549  4.985006
