16  
    
  C    12.906405  1.645723  3.348996
  C    12.361241  5.126917  3.358900
  C    11.665108  1.181748  2.846412
  C    11.220227  4.655879  2.653206
  N    13.852457  1.707563  2.451344
  N    13.415592  5.329091  2.544963
  N    11.681783  0.869635  1.560288
  N    11.329530  4.606826  1.372437
  N    11.270833  1.387889  5.365478
  N    10.521336  4.918701  5.024619
  S    10.359312  1.146484  4.026379
  S     9.834387  4.399371  3.611184
  S    13.173331  1.234605  0.994278
  S    12.937513  5.011690  1.029537
  S    12.780773  1.966718  5.025109
  S    12.116417  5.106377  5.145846
