16  
    
  C    12.077307  1.374965  3.474519
  C    12.261327  5.102471  3.344470
  C    10.870889  0.788691  2.775845
  C    11.035440  4.625244  2.695622
  N    13.168605  1.611792  2.738305
  N    13.290672  5.049343  2.555257
  N    11.215278  0.436059  1.542883
  N    11.162679  4.424885  1.368673
  N    10.160986  1.078358  5.173732
  N    10.372571  5.396612  5.089374
  S     9.452085  0.613017  3.760235
  S     9.674097  4.758012  3.718362
  S    12.713516  1.024207  1.180349
  S    12.790032  4.576323  1.033144
  S    11.696996  1.680816  5.157379
  S    12.011640  5.748323  4.954139
