16  
    
  C    11.178871  0.961698  3.307208
  C    11.598703  4.667895  2.782629
  C     9.989388  0.446775  2.739200
  C    10.355185  4.295994  2.178073
  N    12.193048  1.195215  2.476132
  N    12.617748  4.798482  1.959003
  N    10.028451  0.378371  1.417880
  N    10.372593  4.153173  0.893815
  N     9.560182  1.064149  5.289275
  N     9.920502  4.486016  4.702533
  S     8.750670  0.525644  3.982858
  S     9.061457  3.956994  3.341342
  S    11.595100  0.779820  0.967523
  S    11.908999  4.538763  0.423626
  S    11.194087  1.081154  5.075454
  S    11.544872  4.858511  4.461752
