16  
    
  C     8.435602 -0.940559  2.453169
  C     8.207327  2.598386  2.221483
  C     7.197674 -1.535108  2.067193
  C     7.040685  2.228861  1.507356
  N     9.417002 -0.967279  1.509656
  N     9.314940  2.697778  1.480914
  N     7.151826 -1.916610  0.766971
  N     7.267441  1.913916  0.245872
  N     6.798071 -0.664387  4.498457
  N     6.289795  2.488531  3.853781
  S     5.872537 -1.341024  3.250234
  S     5.597541  2.094345  2.425489
  S     8.640334 -1.559843  0.104563
  S     8.817558  2.273794 -0.110522
  S     8.386350 -0.414211  4.191155
  S     7.859802  2.839263  3.861355
