16  
    
  C    11.985666  1.486910  3.565950
  C    11.905573  4.978204  3.787230
  C    10.937707  0.731120  2.902333
  C    10.662569  4.482771  3.161403
  N    12.915304  1.921797  2.727060
  N    12.833953  5.363568  2.875395
  N    11.028739  0.742095  1.578506
  N    10.678926  4.399694  1.846950
  N    10.459576  0.582524  5.446403
  N    10.416931  4.298581  5.748140
  S     9.705600  0.248981  3.985255
  S     9.533139  3.866885  4.409906
  S    12.421786  1.574716  1.201437
  S    12.160231  4.986192  1.377736
  S    11.953521  1.426029  5.388465
  S    11.887894  5.022758  5.485290
