16  
    
  C    12.527445  1.527254  3.307496
  C    12.749703  5.544797  3.486836
  C    11.358303  0.963163  2.720638
  C    11.650463  5.003819  2.706594
  N    13.525770  1.963873  2.527823
  N    13.850771  5.723215  2.838067
  N    11.419667  1.063619  1.415449
  N    11.933505  4.843171  1.416667
  N    10.816002  1.109439  5.225701
  N    11.021209  4.888442  5.168942
  S    10.041894  0.630553  3.857896
  S    10.240041  4.568836  3.744918
  S    12.883399  1.679489  0.982413
  S    13.541232  5.316711  1.233597
  S    12.390143  1.594876  5.052623
  S    12.506801  5.559141  5.169977
