16  
    
  C    11.272893  0.938917  3.343479
  C    11.607137  4.650953  2.792486
  C     9.958388  0.595469  2.756826
  C    10.350363  4.188830  2.224179
  N    12.207710  1.178952  2.445788
  N    12.597469  4.824273  1.927569
  N    10.006180  0.376421  1.421480
  N    10.386298  4.181634  0.867117
  N     9.584461  1.082865  5.286079
  N     9.924948  4.528746  4.671736
  S     8.685954  0.467670  3.939074
  S     9.095193  3.958818  3.352576
  S    11.591683  0.736053  1.014399
  S    11.966218  4.533140  0.474650
  S    11.247693  1.088203  5.051839
  S    11.553355  4.820356  4.507234
