16  
    
  C     8.997529 -0.347215  2.549448
  C     9.246785  3.480402  2.834266
  C     7.792265 -0.829127  1.931538
  C     7.994330  3.148459  2.151000
  N     9.987393 -0.147613  1.675491
  N    10.269339  3.606897  1.996330
  N     7.816654 -0.893103  0.577670
  N     8.129457  3.031804  0.831831
  N     7.432495 -0.912706  4.425998
  N     7.496775  3.402541  4.686316
  S     6.479269 -1.093388  3.056891
  S     6.722375  2.967001  3.296342
  S     9.343055 -0.450127  0.179866
  S     9.722554  3.198632  0.481040
  S     9.008908 -0.347563  4.281310
  S     9.085515  3.772880  4.474692
