16  
    
  C     7.212910 -1.347775  2.258826
  C     7.224963  2.211856  2.039949
  C     6.052383 -1.974973  1.688287
  C     5.997828  1.747765  1.485581
  N     8.236372 -1.289173  1.360453
  N     8.217869  2.351968  1.174302
  N     6.103205 -2.161270  0.346995
  N     6.147824  1.431893  0.196891
  N     5.344273 -1.198107  4.034990
  N     5.496511  2.027990  4.046422
  S     4.666267 -2.040565  2.756763
  S     4.661229  1.591543  2.664664
  S     7.643809 -1.699186 -0.142862
  S     7.657128  1.814250 -0.257429
  S     7.022000 -1.029182  3.966832
  S     7.125583  2.456735  3.761375
