16  
    
  C    11.410518  0.993151  3.098860
  C    11.362474  4.669300  3.328736
  C    10.210245  0.444041  2.561642
  C    10.294412  3.919715  2.764477
  N    12.371712  1.241120  2.173538
  N    12.359395  4.882940  2.478861
  N    10.330424  0.025733  1.279725
  N    10.367375  3.723512  1.457040
  N     9.610754  0.882274  4.997314
  N     9.575179  4.470211  5.114274
  S     8.845780  0.253619  3.638721
  S     8.940932  3.717290  3.756167
  S    11.803587  0.579362  0.713993
  S    11.867099  4.271806  1.046105
  S    11.240501  1.245041  4.837035
  S    11.102494  5.139066  4.993833
