16  
    
  C     6.075883 -1.588762  2.394081
  C     6.620508  2.231083  2.183818
  C     4.998230 -2.285816  1.758782
  C     5.418894  1.766509  1.596355
  N     7.074637 -1.145242  1.622937
  N     7.632641  2.284033  1.308397
  N     5.321425 -2.617098  0.505572
  N     5.467889  1.611825  0.284265
  N     4.515786 -2.373975  4.247265
  N     4.949940  1.729415  4.152590
  S     3.748314 -2.806558  2.845767
  S     4.114508  1.420072  2.762709
  S     6.737077 -1.696782  0.096280
  S     6.962953  1.969138 -0.150604
  S     5.884807 -1.490542  4.121464
  S     6.508520  2.239387  3.934017
