16  
    
  C     6.290373 -1.608440  1.667778
  C     6.412310  2.111723  2.004539
  C     5.183857 -2.286509  1.050593
  C     5.275008  1.576824  1.336152
  N     7.349495 -1.397287  0.915064
  N     7.438104  2.358643  1.179040
  N     5.373005 -2.500098 -0.239553
  N     5.460138  1.278392  0.043288
  N     4.503676 -2.034766  3.580714
  N     4.652066  1.932550  3.810821
  S     3.870616 -2.538294  2.136802
  S     3.937073  1.311119  2.438496
  S     6.909231 -2.000506 -0.566489
  S     7.006925  1.794854 -0.305952
  S     6.073697 -1.471173  3.461049
  S     6.159652  2.592481  3.680923
