16  
    
  C     5.826752 -2.128878  1.883959
  C     6.109106  1.644348  2.018719
  C     4.592093 -2.594910  1.189584
  C     4.776149  1.660000  1.437872
  N     6.863848 -1.974491  1.104133
  N     7.027174  1.403470  1.085221
  N     4.708281 -2.689922 -0.114625
  N     4.746997  1.355308  0.118087
  N     3.998552 -2.340098  3.649590
  N     4.489426  2.097074  3.976684
  S     3.213136 -2.838067  2.313392
  S     3.538253  1.951412  2.633418
  S     6.314907 -2.290925 -0.474615
  S     6.287847  1.174734 -0.336149
  S     5.596121 -1.971969  3.609114
  S     6.120592  2.147800  3.699170
