16  
    
  C     9.718766 -0.111191  2.483394
  C     9.759156  3.467571  2.568232
  C     8.426558 -0.621261  1.963277
  C     8.513307  3.142822  1.920793
  N    10.669133 -0.047473  1.577558
  N    10.700929  3.833796  1.690290
  N     8.392482 -0.771671  0.632470
  N     8.500603  3.176812  0.599370
  N     8.221997 -0.630054  4.537961
  N     8.129445  2.947322  4.488966
  S     7.341178 -1.006733  3.213711
  S     7.353668  2.729331  3.044009
  S     9.986420 -0.427701  0.104975
  S    10.026863  3.675037  0.125208
  S     9.791619 -0.182177  4.246546
  S     9.755623  3.503237  4.377926
