16  
    
  C    11.475422  0.822769  3.014739
  C    11.136923  4.738462  3.532692
  C    10.311403  0.233453  2.354009
  C     9.955486  4.085594  2.932262
  N    12.611658  0.829673  2.254499
  N    12.067699  4.940709  2.616752
  N    10.496155  0.042290  1.039338
  N    10.105781  3.615031  1.696902
  N     9.447904  0.648110  4.719259
  N     9.466765  4.499924  5.406611
  S     8.905278 -0.109915  3.345427
  S     8.653578  3.912612  4.053686
  S    12.094018  0.406851  0.728978
  S    11.641836  4.073399  1.297944
  S    11.007041  1.172782  4.694274
  S    10.994575  5.152771  5.169582
