16  
    
  C     4.725612 -1.963512  1.703181
  C     4.367501  1.383201  1.407019
  C     3.449714 -2.271002  1.109178
  C     3.160540  0.983698  0.706375
  N     5.732801 -2.008018  0.834235
  N     5.356839  1.576128  0.535235
  N     3.519804 -2.545456 -0.201335
  N     3.288400  0.783319 -0.584805
  N     3.037958 -1.838883  3.629941
  N     2.558072  0.735325  3.220745
  S     2.139352 -2.199389  2.282076
  S     1.768940  0.727394  1.748145
  S     5.071574 -2.259730 -0.627216
  S     4.822094  1.287910 -1.025192
  S     4.695239 -1.808569  3.428387
  S     4.164489  1.406492  3.184335
