16  
    
  C    10.341112  0.706998  3.006004
  C    10.759390  4.448190  2.868232
  C     9.237282 -0.060126  2.428315
  C     9.468328  4.104921  2.301250
  N    11.290757  1.064839  2.113174
  N    11.695473  4.672037  1.921627
  N     9.269223 -0.214878  1.086727
  N     9.434596  4.015385  0.986819
  N     8.729200  0.069670  4.969483
  N     9.043076  4.061624  4.842518
  S     7.955825 -0.396591  3.567677
  S     8.151363  3.919154  3.435224
  S    10.743230  0.455313  0.662236
  S    10.933886  4.450105  0.486772
  S    10.253758  0.678605  4.727829
  S    10.629857  4.510870  4.618095
