16  
    
  C     8.714827 -0.505242  2.414045
  C     8.544227  3.217254  2.618111
  C     7.554638 -0.996587  1.698522
  C     7.375871  2.746758  1.970545
  N     9.842643 -0.540514  1.640837
  N     9.549705  3.457215  1.768089
  N     7.724117 -1.295468  0.379296
  N     7.504957  2.459233  0.675285
  N     6.856762 -0.816911  4.137523
  N     6.819598  2.785497  4.495735
  S     6.138980 -0.939959  2.653669
  S     6.037477  2.457486  3.022385
  S     9.348141 -1.055465  0.123715
  S     9.007308  3.010039  0.184383
  S     8.437041 -0.336871  4.157862
  S     8.446973  3.236976  4.381539
