16  
    
  C     8.362839 -0.940111  2.414183
  C     8.208577  2.463988  2.041109
  C     7.186302 -1.212411  1.639893
  C     7.076846  1.997080  1.255260
  N     9.500260 -0.933162  1.677562
  N     9.313828  2.725643  1.320734
  N     7.430765 -1.317434  0.295018
  N     7.353697  1.777876 -0.056911
  N     6.507593 -1.119862  4.188571
  N     6.310152  2.252430  3.665345
  S     5.829071 -1.108863  2.704280
  S     5.662657  1.756486  2.244122
  S     9.069227 -1.089875  0.078368
  S     8.942706  2.370402 -0.199843
  S     8.125275 -0.779820  4.147115
  S     7.917492  2.533579  3.782590
