16  
    
  C    12.864222  1.659334  3.338091
  C    12.456691  5.098856  3.384731
  C    11.647239  1.105063  2.822245
  C    11.246703  4.680221  2.676512
  N    13.845000  1.660382  2.408877
  N    13.436393  5.373538  2.541773
  N    11.620551  0.849532  1.520743
  N    11.342295  4.626792  1.310849
  N    11.330572  1.349651  5.314347
  N    10.510106  4.930829  5.080879
  S    10.391800  1.105803  4.012471
  S     9.873227  4.427141  3.624068
  S    13.152342  1.291654  0.990927
  S    12.880679  5.035457  1.001370
  S    12.783518  1.987965  5.040010
  S    12.169697  5.155198  5.110027
