16  
    
  C    11.681601  1.116625  2.854932
  C    11.769590  4.871652  3.167938
  C    10.466481  0.555182  2.311525
  C    10.619730  4.308572  2.503695
  N    12.549393  1.469299  1.922286
  N    12.798335  5.165689  2.345967
  N    10.516373  0.290837  0.995127
  N    10.751220  4.224556  1.189894
  N    10.105785  0.866884  4.859476
  N     9.985935  4.684646  4.986098
  S     9.297925  0.250710  3.565701
  S     9.292868  4.081325  3.582666
  S    11.881665  1.043479  0.445542
  S    12.255078  4.726704  0.795066
  S    11.682360  1.264660  4.601010
  S    11.528123  5.348775  4.829839
