16  
    
  C     5.770698 -2.142359  2.120060
  C     5.902235  1.322428  1.914427
  C     4.561621 -2.586952  1.448972
  C     4.683727  0.947287  1.193669
  N     6.806994 -2.075745  1.270076
  N     6.939682  1.580997  1.134971
  N     4.690573 -2.877278  0.139032
  N     4.815247  0.906362 -0.132559
  N     3.987913 -2.202583  3.908381
  N     4.099054  0.846861  3.681324
  S     3.195946 -2.804649  2.535985
  S     3.438977  0.408576  2.204708
  S     6.253333 -2.391061 -0.258471
  S     6.377332  1.440866 -0.430841
  S     5.606120 -1.967306  3.817555
  S     5.616561  1.545403  3.629333
