16  
    
  C    12.579271  1.559562  3.569948
  C    12.366491  5.208452  3.478712
  C    11.338639  1.056153  3.017466
  C    11.104552  4.783358  2.851488
  N    13.548003  1.790913  2.694906
  N    13.337310  5.387050  2.533406
  N    11.406942  0.868011  1.691422
  N    11.138867  4.535631  1.576909
  N    10.817472  1.398217  5.514679
  N    10.670831  4.894993  5.404507
  S    10.042488  0.746088  4.117656
  S     9.869596  4.643551  3.970615
  S    12.860499  1.391759  1.203264
  S    12.750621  4.891260  1.089916
  S    12.462436  1.758747  5.267883
  S    12.231174  5.490285  5.232631
