16  
    
  C     4.520459 -2.540306  1.523946
  C     5.234574  1.445513  1.659467
  C     3.279157 -2.813311  0.862014
  C     3.909507  1.117973  1.117568
  N     5.551978 -2.383286  0.652667
  N     6.210872  1.674886  0.816106
  N     3.341799 -2.749559 -0.465268
  N     3.982770  1.032259 -0.193760
  N     2.725418 -2.752696  3.363161
  N     3.636052  1.283818  3.633326
  S     1.921299 -3.048116  1.922402
  S     2.614687  1.108637  2.337834
  S     4.920425 -2.519960 -0.862028
  S     5.520013  1.439422 -0.694565
  S     4.363659 -2.724493  3.217766
  S     5.219649  1.623789  3.370435
