16  
    
  C    12.165675  1.652420  3.321713
  C    12.271019  5.301607  3.611569
  C    11.102542  1.028206  2.604851
  C    11.191290  4.727049  2.905498
  N    13.272088  1.837133  2.587416
  N    13.327364  5.641094  2.898668
  N    11.346011  0.771754  1.313995
  N    11.488674  4.493184  1.576646
  N    10.307581  1.275367  5.058491
  N    10.508111  4.830215  5.424513
  S     9.652641  0.781964  3.550624
  S     9.794987  4.370314  4.012136
  S    12.879590  1.359985  1.040449
  S    12.962796  5.108219  1.356632
  S    11.907000  1.842680  4.993853
  S    11.973435  5.658390  5.271111
