16  
    
  C     4.079063 -2.664644  1.569969
  C     4.179064  1.462497  1.562244
  C     2.871378 -3.162592  0.982044
  C     2.905008  1.200298  0.999163
  N     5.184861 -2.713684  0.803489
  N     5.236031  1.327077  0.738886
  N     3.016850 -3.529904 -0.308916
  N     2.940750  0.975466 -0.326368
  N     2.331371 -2.605342  3.398580
  N     2.488707  1.423600  3.591651
  S     1.554888 -3.217180  2.069131
  S     1.648271  1.383110  2.182568
  S     4.662021 -3.309743 -0.691868
  S     4.516965  1.043250 -0.778005
  S     3.991847 -2.317183  3.250099
  S     4.154350  1.614285  3.326451
