16  
    
  C     5.903418 -2.185778  1.632557
  C     5.331629  1.242343  1.695822
  C     4.617713 -2.588619  1.161833
  C     4.085668  0.919242  1.146704
  N     6.903815 -2.088403  0.729372
  N     6.391987  1.206997  0.879977
  N     4.564051 -2.696999 -0.184500
  N     4.179439  0.697771 -0.148643
  N     4.348128 -2.306836  3.655256
  N     3.689035  1.192627  3.635362
  S     3.387993 -2.551060  2.362620
  S     2.845023  0.643285  2.331426
  S     6.055718 -2.282341 -0.743926
  S     5.744438  0.824439 -0.564670
  S     5.881999 -1.912160  3.365924
  S     5.245461  1.682410  3.363117
