16  
    
  C     8.695582 -0.938552  2.340586
  C     8.406568  3.294346  2.233611
  C     7.562127 -1.534369  1.738298
  C     7.241288  2.584326  1.725280
  N     9.743914 -0.694131  1.501162
  N     9.376484  3.587342  1.326378
  N     7.718953 -1.707927  0.398464
  N     7.364396  2.295591  0.415677
  N     7.051328 -1.495597  4.237877
  N     6.757945  2.816183  4.282332
  S     6.223040 -1.813015  2.865007
  S     5.967537  2.213020  2.922263
  S     9.252349 -1.218263  0.020732
  S     8.823363  2.901885 -0.047296
  S     8.556036 -0.832406  4.027219
  S     8.255402  3.444884  3.926187
