16  
    
  C     8.969936 -0.333123  2.355950
  C     9.459669  3.282442  2.743914
  C     7.849334 -0.976907  1.697219
  C     8.210858  3.002803  2.073684
  N    10.057777 -0.284970  1.621933
  N    10.488054  3.236078  1.918556
  N     8.066633 -1.248324  0.431226
  N     8.265696  2.685982  0.774139
  N     7.066896 -0.306875  4.078572
  N     7.792520  3.290425  4.663608
  S     6.491603 -1.071958  2.750981
  S     6.877569  3.007350  3.264631
  S     9.651422 -0.891022  0.141913
  S     9.926917  2.857518  0.442038
  S     8.702025  0.118771  3.987470
  S     9.449762  3.725695  4.469056
