16  
    
  C    10.418458  0.644072  3.025117
  C    10.613855  4.389744  2.848764
  C     9.253734 -0.033097  2.447916
  C     9.344571  3.999559  2.241170
  N    11.415339  0.844937  2.182822
  N    11.617240  4.586193  2.024709
  N     9.282223 -0.181589  1.126886
  N     9.427809  3.835591  0.902542
  N     8.747782  0.414858  4.983749
  N     8.926571  4.527678  4.747385
  S     8.029553 -0.259157  3.637147
  S     8.133069  3.727554  3.499725
  S    10.821851  0.419970  0.686822
  S    11.006253  4.162813  0.516935
  S    10.298712  0.960727  4.733580
  S    10.554720  4.836851  4.465068
