16  
    
  C    11.651947  1.276924  2.896388
  C    11.830617  5.081512  3.108960
  C    10.365061  0.699856  2.377551
  C    10.633074  4.467687  2.504924
  N    12.616878  1.473133  1.980048
  N    12.855354  5.191906  2.295050
  N    10.440388  0.561457  1.079326
  N    10.819223  4.012588  1.263057
  N    10.118465  0.683801  4.917456
  N    10.175421  4.739066  5.089954
  S     9.173304  0.318509  3.589470
  S     9.400914  4.149839  3.726478
  S    11.975282  0.859373  0.560697
  S    12.332518  4.502652  0.813255
  S    11.663524  1.196758  4.623950
  S    11.645188  5.490408  4.762188
