16  
    
  C    10.014000 -0.238466  2.875444
  C    10.095284  3.792318  2.706270
  C     8.715409 -0.510891  2.159920
  C     8.847721  3.201658  2.235379
  N    11.024432 -0.013731  2.074122
  N    11.054266  3.946402  1.811853
  N     8.894639 -0.716538  0.877400
  N     8.804432  2.984291  0.902240
  N     8.201311 -0.532647  4.719872
  N     8.601138  3.521760  4.826642
  S     7.359667 -0.801339  3.256585
  S     7.648187  2.957805  3.550935
  S    10.474834 -0.285545  0.518877
  S    10.403073  3.454716  0.377709
  S     9.842372 -0.182280  4.616792
  S    10.163369  3.912171  4.369596
