16  
    
  C    12.885444  1.616451  3.375484
  C    12.350087  5.108439  3.402560
  C    11.597211  1.234852  2.862439
  C    11.157868  4.700718  2.646286
  N    13.901617  1.779382  2.474106
  N    13.437042  5.297658  2.655741
  N    11.675993  0.922858  1.570215
  N    11.409516  4.537330  1.297776
  N    11.201390  1.495881  5.407929
  N    10.417727  4.846144  5.075335
  S    10.287245  1.188015  4.011268
  S     9.763414  4.343575  3.643686
  S    13.230138  1.176909  1.029602
  S    12.969969  4.969595  1.052821
  S    12.826474  1.951807  5.096675
  S    12.077773  5.071887  5.091419
