16  
    
  C    12.218286  1.593520  3.267655
  C    12.276616  5.293398  3.649259
  C    11.090120  1.059416  2.599297
  C    11.185600  4.697000  2.865550
  N    13.325341  1.858973  2.602154
  N    13.298780  5.644087  2.895958
  N    11.369927  0.762106  1.355857
  N    11.451314  4.536212  1.585103
  N    10.318254  1.303021  5.052698
  N    10.551221  4.820336  5.419297
  S     9.638057  0.797250  3.554433
  S     9.831932  4.355417  4.025520
  S    12.878254  1.374660  1.010394
  S    12.959078  5.132168  1.347213
  S    11.954318  1.859367  4.992931
  S    11.971589  5.664804  5.304353
