16  
    
  C     5.934035 -2.204304  1.667953
  C     5.330142  1.349146  1.716272
  C     4.628689 -2.627960  1.122278
  C     4.051358  0.886875  1.161383
  N     6.829073 -2.040744  0.723093
  N     6.339263  1.322220  0.843944
  N     4.503791 -2.674843 -0.186266
  N     4.115031  0.741638 -0.168548
  N     4.286836 -2.319010  3.664119
  N     3.651743  1.211091  3.674317
  S     3.385489 -2.556473  2.339059
  S     2.818332  0.624460  2.337737
  S     6.042062 -2.329959 -0.753102
  S     5.692748  0.852867 -0.606046
  S     5.864565 -1.870312  3.348188
  S     5.211989  1.644624  3.395335
