16  
    
  C     6.511202 -1.727575  2.023915
  C     6.530350  2.256597  2.109775
  C     5.268476 -2.059611  1.364189
  C     5.397251  1.533361  1.510648
  N     7.516632 -1.466836  1.162735
  N     7.506233  2.567903  1.283606
  N     5.335006 -2.101357  0.022988
  N     5.456924  1.445435  0.195474
  N     4.818534 -2.253819  3.891409
  N     4.972992  1.614573  4.072107
  S     4.014999 -2.497961  2.480665
  S     4.227120  1.074159  2.662871
  S     6.873230 -1.726360 -0.371803
  S     6.978021  2.126818 -0.280604
  S     6.408579 -1.829832  3.752483
  S     6.455039  2.326205  3.854594
