16  
    
  C    11.182208  0.956773  3.308443
  C    11.608188  4.674217  2.796644
  C     9.974732  0.459200  2.739791
  C    10.364863  4.278971  2.178757
  N    12.199503  1.197187  2.466510
  N    12.613953  4.799133  1.961365
  N    10.024257  0.381229  1.416140
  N    10.369134  4.158505  0.886505
  N     9.560673  1.073291  5.290348
  N     9.923871  4.494278  4.694888
  S     8.744084  0.518606  3.977786
  S     9.062347  3.955402  3.342163
  S    11.596830  0.772165  0.977621
  S    11.914141  4.537701  0.433788
  S    11.202747  1.079727  5.074199
  S    11.550619  4.850975  4.460400
