16  
    
  C    10.020084 -0.230295  2.880871
  C    10.091943  3.797985  2.701997
  C     8.723595 -0.511617  2.156825
  C     8.836834  3.200158  2.228575
  N    11.022888 -0.018869  2.068732
  N    11.039761  3.960089  1.799720
  N     8.881721 -0.709872  0.875251
  N     8.810072  2.949580  0.899186
  N     8.196556 -0.509995  4.708173
  N     8.590832  3.532887  4.825207
  S     7.365341 -0.800903  3.250315
  S     7.658587  2.933752  3.543004
  S    10.470110 -0.286524  0.504280
  S    10.405418  3.448625  0.379052
  S     9.854373 -0.181664  4.626859
  S    10.164846  3.930868  4.378878
