16  
    
  C     8.793457 -0.761522  2.385650
  C     8.504378  3.200610  2.580767
  C     7.584172 -1.098859  1.679407
  C     7.370519  2.640215  1.970207
  N     9.901427 -0.679751  1.639523
  N     9.482874  3.551235  1.774383
  N     7.781318 -1.349014  0.389011
  N     7.471781  2.490395  0.664146
  N     6.823175 -0.754833  4.122609
  N     6.851045  2.811484  4.443731
  S     6.096618 -1.078716  2.671662
  S     6.071207  2.342607  3.073961
  S     9.387246 -1.090261  0.090816
  S     8.979147  3.048657  0.231269
  S     8.479948 -0.500301  4.084228
  S     8.375416  3.330333  4.273424
