16  
    
  C     5.664584 -2.013116  1.717706
  C     5.204550  1.465361  1.700259
  C     4.429665 -2.460189  1.167877
  C     4.023771  0.742676  1.176254
  N     6.656435 -1.916759  0.812564
  N     6.149491  1.865828  0.846151
  N     4.540787 -2.777698 -0.137979
  N     4.110969  0.577934 -0.126180
  N     4.089086 -2.365850  3.754289
  N     3.548281  1.103612  3.650220
  S     3.209605 -2.692999  2.347824
  S     2.744048  0.610635  2.298747
  S     6.082594 -2.403970 -0.615476
  S     5.548674  1.335872 -0.636172
  S     5.627343 -1.828259  3.394794
  S     5.184569  1.493195  3.399106
