16  
    
  C     5.891780 -2.155100  1.709752
  C     5.512553  1.176272  1.742019
  C     4.581966 -2.508974  1.157876
  C     4.269526  0.735173  1.142565
  N     6.899461 -2.011216  0.864708
  N     6.534250  1.127259  0.889196
  N     4.585181 -2.550342 -0.165114
  N     4.393375  0.553728 -0.184447
  N     4.333961 -2.325701  3.731759
  N     3.741565  1.233113  3.646037
  S     3.387060 -2.575095  2.398701
  S     2.952279  0.720164  2.266879
  S     6.177744 -2.300808 -0.654043
  S     5.952770  0.782478 -0.593092
  S     5.948533 -2.054992  3.472934
  S     5.347595  1.618972  3.440553
