16  
    
  C     4.767498 -1.979830  1.846994
  C     4.149969  1.113244  1.280294
  C     3.574972 -2.497560  1.231012
  C     2.908382  0.808986  0.587484
  N     5.809135 -1.877405  1.042710
  N     5.259434  1.251266  0.560294
  N     3.710436 -2.730444 -0.045576
  N     3.125960  0.807567 -0.721604
  N     2.879130 -2.088567  3.681642
  N     2.376483  1.206364  3.074413
  S     2.187526 -2.544014  2.248352
  S     1.566531  0.631184  1.665520
  S     5.265180 -2.328843 -0.493001
  S     4.693527  1.115021 -0.996078
  S     4.509425 -1.778589  3.592810
  S     4.026437  1.250430  3.013959
