16  
    
  C     4.709889 -1.977135  1.907066
  C     4.167231  1.144613  1.295395
  C     3.541906 -2.468340  1.231310
  C     2.934028  0.805007  0.569083
  N     5.817040 -1.964040  1.134157
  N     5.243412  1.158492  0.508373
  N     3.718633 -2.791362 -0.064935
  N     3.043442  0.773908 -0.770452
  N     2.865577 -2.216384  3.690606
  N     2.306860  1.180388  3.014253
  S     2.153153 -2.653032  2.257033
  S     1.533533  0.595027  1.665306
  S     5.292813 -2.344451 -0.451403
  S     4.684698  1.058573 -1.060192
  S     4.451914 -1.739451  3.587765
  S     3.972650  1.270408  3.036117
