16  
    
  C     9.159640 -0.384390  2.497725
  C     9.351420  3.133042  2.608738
  C     7.997813 -1.087983  2.063056
  C     8.108109  2.777563  2.082640
  N    10.167179 -0.296343  1.617704
  N    10.404875  3.228312  1.771416
  N     8.100952 -1.373676  0.749415
  N     8.173031  2.414514  0.795878
  N     7.439843 -0.401213  4.410307
  N     7.604392  3.232812  4.578056
  S     6.657704 -1.154832  3.140094
  S     6.717073  2.963480  3.203855
  S     9.560709 -0.922271  0.200463
  S     9.730031  2.796341  0.340960
  S     9.065050  0.038513  4.174179
  S     9.207730  3.547271  4.235746
