16  
    
  C     7.538725 -1.232550  1.935801
  C     7.697069  2.832544  2.135885
  C     6.278994 -1.573914  1.316176
  C     6.491280  2.194868  1.634697
  N     8.500713 -1.041749  1.043724
  N     8.713047  3.018026  1.274559
  N     6.287400 -1.591752 -0.025226
  N     6.554030  1.965577  0.312757
  N     5.782883 -1.251222  3.900588
  N     6.051829  2.703429  4.044982
  S     5.001992 -1.812000  2.531009
  S     5.143233  2.171400  2.714709
  S     7.856518 -1.231746 -0.499909
  S     8.130129  2.458651 -0.150762
  S     7.345943 -0.963751  3.635641
  S     7.567678  3.252726  3.815608
