16  
    
  C     8.857343 -0.252002  2.560348
  C     8.544063  3.172162  2.561753
  C     7.658153 -0.684381  1.889177
  C     7.357158  2.609430  1.859197
  N     9.817647  0.020439  1.705891
  N     9.515595  3.510432  1.703870
  N     7.709315 -0.650833  0.544570
  N     7.447785  2.544746  0.519704
  N     7.168955 -0.733355  4.424050
  N     6.767887  2.846681  4.377800
  S     6.348571 -0.930375  3.031095
  S     6.160355  2.135927  3.011464
  S     9.286574 -0.178510  0.103481
  S     8.954687  3.225139  0.210379
  S     8.709373 -0.151952  4.341416
  S     8.321118  3.367968  4.285616
