16  
    
  C     6.337501 -1.715990  1.641762
  C     6.443702  2.153932  1.955075
  C     5.171061 -2.283432  0.974678
  C     5.289827  1.489512  1.374135
  N     7.369754 -1.374374  0.829438
  N     7.461040  2.378305  1.152121
  N     5.468519 -2.573747 -0.305919
  N     5.443734  1.170967  0.108431
  N     4.495346 -1.774831  3.364218
  N     4.556678  2.009933  3.729835
  S     3.804115 -2.515709  2.063730
  S     3.928226  1.243611  2.406099
  S     6.889982 -1.887153 -0.669288
  S     6.962444  1.777538 -0.368362
  S     6.092777 -1.387325  3.358982
  S     6.105600  2.578453  3.606192
