16  
    
  C     4.607187 -2.585623  1.517768
  C     5.301435  1.584837  1.790502
  C     3.390672 -3.006640  0.840729
  C     3.981195  1.237244  1.255205
  N     5.604789 -2.237160  0.761324
  N     6.235826  1.667952  0.815720
  N     3.428401 -2.749884 -0.450291
  N     3.939736  1.144217 -0.060993
  N     2.821776 -2.927850  3.325868
  N     3.627328  1.620494  3.770077
  S     2.109591 -3.350822  1.907888
  S     2.692408  1.283565  2.487375
  S     5.013031 -2.328804 -0.814083
  S     5.452420  1.317660 -0.629533
  S     4.431348 -2.483952  3.223989
  S     5.240146  1.775360  3.617812
