16  
    
  C    10.997703  0.516418  2.996927
  C    10.888051  4.322913  2.831505
  C     9.734119  0.179540  2.369312
  C     9.838737  3.586799  2.222307
  N    12.051715  0.604119  2.204427
  N    11.928830  4.661969  2.076866
  N     9.817963 -0.128513  1.074940
  N    10.139194  3.209779  0.988246
  N     9.306582  0.470603  4.923117
  N     9.010729  4.129955  4.595263
  S     8.455268 -0.071332  3.581831
  S     8.356185  3.506719  3.195319
  S    11.462792  0.173671  0.694420
  S    11.652354  3.901969  0.652933
  S    10.890670  0.880490  4.685063
  S    10.576890  4.700348  4.483541
