16  
    
  C     3.431676 -3.093787  1.057609
  C     3.708232  0.531108  1.371131
  C     2.162517 -3.422946  0.427090
  C     2.458772  0.165187  0.683933
  N     4.405482 -2.844514  0.175704
  N     4.742295  0.827573  0.595060
  N     2.266971 -3.559570 -0.891470
  N     2.698237 -0.024757 -0.611249
  N     1.620833 -3.359015  2.973585
  N     1.946457  0.369111  3.165943
  S     0.833899 -3.579886  1.545168
  S     1.075924  0.125863  1.729666
  S     3.831542 -3.325232 -1.307417
  S     4.258574  0.450872 -0.941014
  S     3.209804 -3.084261  2.834469
  S     3.515241  0.839676  3.122845
