16  
    
  C     9.073010 -0.353926  2.495646
  C     9.580860  3.543384  2.861927
  C     7.853777 -0.836977  1.941506
  C     8.313258  3.103304  2.296905
  N    10.123247 -0.189147  1.618995
  N    10.584551  3.654919  1.967068
  N     7.908011 -1.004505  0.610410
  N     8.454919  2.810961  1.026742
  N     7.385742 -0.775297  4.452369
  N     7.656314  3.608188  4.646103
  S     6.563438 -1.167284  3.080002
  S     6.865030  3.209667  3.245074
  S     9.433994 -0.580765  0.155160
  S     9.940769  3.079279  0.486870
  S     8.980976 -0.422318  4.262090
  S     9.293887  3.943852  4.504777
