16  
    
  C     7.099427 -1.421693  2.296325
  C     7.048192  2.226285  2.098022
  C     5.888027 -1.821861  1.588779
  C     5.847132  1.812207  1.424961
  N     8.111562 -1.263764  1.479441
  N     8.113014  2.420343  1.325877
  N     5.932440 -1.784203  0.269588
  N     6.083323  1.584347  0.110473
  N     5.286986 -1.837358  4.174525
  N     5.256499  2.011035  3.942928
  S     4.535046 -2.034443  2.672604
  S     4.522947  1.674290  2.461706
  S     7.539598 -1.543488 -0.095058
  S     7.651227  1.903417 -0.183769
  S     6.839206 -1.350176  4.030728
  S     6.824093  2.567759  3.783164
