16  
    
  C     7.251252 -1.378726  2.227290
  C     7.307418  2.170665  2.122374
  C     6.062281 -1.941051  1.636159
  C     6.145456  1.572926  1.550077
  N     8.255738 -1.299993  1.419240
  N     8.316567  2.342914  1.269046
  N     6.119499 -2.212580  0.360992
  N     6.252390  1.315282  0.246494
  N     5.459553 -1.355987  4.062734
  N     5.592977  2.062071  4.002371
  S     4.747874 -2.099216  2.764346
  S     4.836209  1.636805  2.636987
  S     7.698072 -1.871914 -0.069716
  S     7.733282  1.788330 -0.213947
  S     7.020306 -0.903503  3.852400
  S     7.197559  2.484927  3.823616
