16  
    
  C    11.332815  1.282732  3.184579
  C    11.404610  4.872175  2.908070
  C    10.091739  0.632832  2.666099
  C    10.276204  4.221425  2.239254
  N    12.341383  1.376678  2.330595
  N    12.338866  5.227679  2.051235
  N    10.195010  0.543161  1.341003
  N    10.450585  4.025256  0.948745
  N     9.841965  0.727243  5.216577
  N     9.611480  4.603791  4.791189
  S     8.956381  0.111158  3.923426
  S     8.993401  3.919184  3.397416
  S    11.709909  0.984313  0.810106
  S    11.934545  4.647106  0.535982
  S    11.340805  1.381967  4.896800
  S    11.218441  5.048835  4.650942
