16  
    
  C     5.919163 -2.161857  1.913828
  C     5.642335  1.330740  1.749750
  C     4.637366 -2.398561  1.302443
  C     4.512913  0.764433  1.121875
  N     6.966132 -2.121703  1.044261
  N     6.677464  1.421373  0.921476
  N     4.655112 -2.591766 -0.027139
  N     4.673131  0.438233 -0.160635
  N     4.205548 -2.469876  3.857298
  N     3.867910  1.185650  3.563378
  S     3.317729 -2.604509  2.411309
  S     3.114322  0.670457  2.170987
  S     6.216678 -2.287628 -0.503214
  S     6.186070  0.891629 -0.523729
  S     5.841249 -2.139602  3.644312
  S     5.526362  1.364310  3.468655
