16  
    
  C     8.680672 -0.518733  2.431363
  C     8.566427  3.138087  2.567345
  C     7.472509 -0.830410  1.739807
  C     7.388552  2.696911  1.920506
  N     9.804714 -0.439553  1.684022
  N     9.620515  3.327661  1.749178
  N     7.727648 -1.189489  0.469934
  N     7.443491  2.568293  0.571107
  N     6.883009 -0.727557  4.192543
  N     6.827980  2.859555  4.453929
  S     6.069129 -0.953614  2.696404
  S     6.063864  2.512610  3.041454
  S     9.340585 -0.917835  0.189211
  S     9.041143  2.969184  0.293401
  S     8.503708 -0.216269  4.092857
  S     8.439945  3.208912  4.341212
