16  
    
  C    12.519914  1.492469  3.627907
  C    12.347853  5.191322  3.438688
  C    11.322821  0.956375  3.065276
  C    11.086058  4.752084  2.804311
  N    13.512233  1.811908  2.813065
  N    13.434093  5.206653  2.598144
  N    11.358424  0.886381  1.729682
  N    11.228672  4.586013  1.510857
  N    10.824976  1.466821  5.506168
  N    10.695440  4.925082  5.389386
  S    10.113258  0.820148  4.222945
  S     9.783454  4.589974  4.022871
  S    12.904079  1.412768  1.294305
  S    12.767860  4.844223  1.085166
  S    12.429638  1.716833  5.402724
  S    12.257310  5.435493  5.110788
