16  
    
  C    12.694424  1.625987  3.317337
  C    12.570413  5.350778  3.263438
  C    11.474834  1.263147  2.763634
  C    11.361466  4.829114  2.726958
  N    13.689750  1.902005  2.449596
  N    13.487698  5.558834  2.309567
  N    11.560920  1.072766  1.443011
  N    11.314916  4.696828  1.381786
  N    11.064915  1.524181  5.298551
  N    11.055016  4.790498  5.243990
  S    10.325982  0.850306  3.943477
  S    10.164233  4.443034  3.868690
  S    13.045657  1.551397  0.956969
  S    12.872737  5.115100  0.889262
  S    12.758700  1.668785  5.115737
  S    12.504049  5.488384  4.972886
