16  
    
  C     7.046214 -1.943385  1.661166
  C     6.683266  2.176814  1.979562
  C     5.728501 -2.243528  1.046405
  C     5.560022  1.482637  1.369368
  N     7.941019 -1.572469  0.776822
  N     7.600907  2.593775  1.114813
  N     5.752515 -2.298328 -0.264675
  N     5.579275  1.396091  0.040430
  N     5.300543 -1.934294  3.549000
  N     5.112813  1.675246  3.886587
  S     4.445932 -2.427005  2.206232
  S     4.328467  1.065759  2.545372
  S     7.255706 -1.914651 -0.745682
  S     7.116587  2.077566 -0.449152
  S     6.928709 -1.664306  3.398635
  S     6.626358  2.305168  3.711735
