16  
    
  C     4.215237 -2.689651  1.566442
  C     4.194602  1.366792  1.632888
  C     2.982371 -3.178293  1.009859
  C     2.897986  1.283785  0.985375
  N     5.174895 -2.563952  0.645156
  N     5.187618  1.387904  0.754071
  N     3.039631 -3.588477 -0.262817
  N     2.931677  0.982070 -0.318596
  N     2.356197 -2.584941  3.469669
  N     2.550208  1.538942  3.609848
  S     1.587557 -3.137180  2.087733
  S     1.666773  1.498887  2.198022
  S     4.624877 -3.336149 -0.722704
  S     4.549009  1.003525 -0.726939
  S     3.994048 -2.309027  3.310070
  S     4.165529  1.552167  3.340793
