16  
    
  C     7.907570 -0.802820  2.284571
  C     8.281952  2.846356  2.381967
  C     6.805727 -1.358250  1.565931
  C     6.998177  2.533771  1.837442
  N     8.918314 -0.416744  1.489011
  N     9.216890  2.935962  1.475946
  N     6.968562 -1.460809  0.225557
  N     7.020930  2.489896  0.513218
  N     6.003458 -1.121825  4.063191
  N     6.774800  3.034069  4.393253
  S     5.471464 -1.818842  2.656611
  S     5.837527  2.661397  3.090850
  S     8.491913 -0.813043 -0.075494
  S     8.527183  2.668683 -0.011920
  S     7.609988 -0.556164  4.036650
  S     8.401839  3.066391  4.111895
