16  
    
  C    11.063683  0.574884  3.084142
  C    11.024905  4.345877  2.932016
  C     9.911709 -0.014265  2.518536
  C     9.926600  3.715531  2.278184
  N    12.042334  0.740608  2.185617
  N    12.029961  4.549906  2.111946
  N     9.931908 -0.129681  1.183750
  N    10.131936  3.326040  1.008101
  N     9.275482  0.464745  4.964849
  N     9.096174  4.193368  4.667769
  S     8.557821 -0.158512  3.598920
  S     8.533184  3.437528  3.270839
  S    11.449540  0.272528  0.692291
  S    11.608499  3.945199  0.624728
  S    10.924391  0.696561  4.825557
  S    10.707991  4.559497  4.689593
