16  
    
  C    10.319143  0.377072  2.589329
  C    10.471142  4.232676  3.058593
  C     9.116250 -0.116034  1.896032
  C     9.241469  3.681162  2.481799
  N    11.394148  0.358975  1.767558
  N    11.429425  4.255440  2.122574
  N     9.365340 -0.638967  0.664758
  N     9.228384  3.383788  1.187640
  N     8.349876  0.533747  4.221658
  N     8.696936  4.463261  4.923437
  S     7.743376 -0.237127  2.912713
  S     7.969263  3.913848  3.509552
  S    10.921786 -0.357653  0.357789
  S    10.818778  3.677061  0.724604
  S     9.991424  0.964017  4.217437
  S    10.387320  4.633893  4.798318
