16  
    
  C     7.152972 -1.226519  2.341299
  C     7.798172  2.839710  2.334652
  C     6.103788 -1.801244  1.507172
  C     6.617673  2.368758  1.627976
  N     8.212624 -0.928056  1.629430
  N     8.838007  3.093658  1.541670
  N     6.344226 -1.815959  0.219069
  N     6.751591  2.096410  0.326283
  N     5.254602 -1.920899  3.966401
  N     5.976274  2.506856  4.205442
  S     4.799549 -2.524974  2.444746
  S     5.292073  2.057708  2.684231
  S     7.889886 -1.229924  0.021044
  S     8.362485  2.688933  0.012286
  S     6.790040 -1.284623  4.054708
  S     7.590850  2.956957  4.087348
