16  
    
  C     9.821736 -0.158467  2.891621
  C     9.722022  3.597710  2.745228
  C     8.616307 -0.696226  2.180182
  C     8.440497  3.365144  2.093391
  N    10.820075  0.053087  2.092906
  N    10.731353  3.932407  1.933173
  N     8.714896 -0.837806  0.888646
  N     8.514194  3.285016  0.778623
  N     7.920051 -0.493860  4.654284
  N     7.872255  3.310146  4.615737
  S     7.196966 -0.781910  3.167648
  S     7.027309  3.298763  3.134825
  S    10.275391 -0.388903  0.544135
  S    10.079212  3.793419  0.347159
  S     9.434842  0.079991  4.575030
  S     9.541884  3.647351  4.474862
