16  
    
  C     9.729341 -0.119498  2.866048
  C     9.791866  3.506506  2.714357
  C     8.590003 -0.696297  2.253281
  C     8.490334  3.237752  2.112385
  N    10.820393  0.111523  2.055263
  N    10.745899  3.941501  1.854268
  N     8.719883 -0.818814  0.918709
  N     8.548867  3.260689  0.784745
  N     7.904787 -0.500360  4.642219
  N     7.900224  3.247906  4.630780
  S     7.134180 -0.799469  3.201344
  S     7.051834  3.318470  3.168778
  S    10.256202 -0.363348  0.531250
  S    10.044360  3.808922  0.377894
  S     9.484017  0.090461  4.603948
  S     9.529161  3.580921  4.471339
