16  
    
  C     7.365073 -1.612261  2.209627
  C     7.486737  2.387321  2.115771
  C     6.167702 -2.037388  1.518284
  C     6.228348  2.048566  1.532880
  N     8.354255 -1.316986  1.340909
  N     8.473045  2.559101  1.241697
  N     6.252156 -2.123567  0.174579
  N     6.352852  1.885596  0.212240
  N     5.594918 -2.081995  4.023166
  N     5.900730  2.058101  4.134705
  S     4.806571 -2.451078  2.539663
  S     4.985490  1.864091  2.732609
  S     7.764269 -1.607933 -0.207423
  S     7.807124  2.356072 -0.243137
  S     7.184666 -1.670177  3.916470
  S     7.417490  2.702365  3.844291
