16  
    
  C    10.019448 -0.011386  2.713168
  C     9.820897  4.202833  2.735132
  C     8.825998 -0.524822  2.034998
  C     8.930531  3.174373  2.217748
  N    11.026445  0.261172  1.844704
  N    10.857761  4.369375  1.896681
  N     8.987833 -0.789413  0.700599
  N     9.167306  2.668327  1.004384
  N     8.219585 -0.330028  4.501463
  N     8.029934  3.627318  4.540552
  S     7.518506 -0.938313  3.097274
  S     7.712065  2.593420  3.289873
  S    10.502532 -0.178311  0.289768
  S    10.646210  3.363315  0.608693
  S     9.841486  0.176943  4.439290
  S     9.447245  4.496137  4.478444
