16  
    
  C    10.272080  0.081717  2.759135
  C    10.264717  4.091643  3.097666
  C     9.126134 -0.473198  2.149535
  C     8.988592  3.799089  2.524353
  N    11.338757  0.073427  1.932029
  N    11.264846  4.061437  2.204790
  N     9.214911 -0.739716  0.805508
  N     8.990156  3.425633  1.251570
  N     8.541683  0.155382  4.575196
  N     8.585012  4.410365  4.986145
  S     7.794827 -0.560984  3.280751
  S     7.754309  3.919734  3.688134
  S    10.813342 -0.477623  0.498479
  S    10.557864  3.578865  0.753304
  S    10.224778  0.349069  4.526568
  S    10.211750  4.509099  4.852109
