16  
    
  C    11.007192  0.541300  3.279395
  C    11.163210  4.203714  3.128295
  C     9.840482  0.173718  2.536305
  C     9.927135  3.761284  2.561814
  N    12.047389  0.866918  2.484166
  N    12.231902  4.335423  2.337286
  N    10.058953  0.058523  1.213057
  N    10.014591  3.737139  1.233927
  N     9.289680 -0.074921  5.054355
  N     9.568470  3.806167  5.096423
  S     8.541096 -0.265506  3.618684
  S     8.710420  3.458524  3.729719
  S    11.594942  0.533350  0.942574
  S    11.525894  4.155484  0.751278
  S    10.763336  0.694483  5.010000
  S    11.120384  4.383505  4.906168
