16  
    
  C    12.058180  1.613118  3.346861
  C    12.270006  5.315466  3.525875
  C    10.987582  0.972656  2.707518
  C    11.149249  4.734061  2.856331
  N    13.220049  1.725639  2.653015
  N    13.314559  5.548827  2.734666
  N    11.256757  0.793071  1.411668
  N    11.361181  4.360030  1.564564
  N    10.140994  1.202767  5.091154
  N    10.299744  5.180923  5.246901
  S     9.572059  0.500297  3.639997
  S     9.761165  4.540899  3.798926
  S    12.828103  1.256559  1.130152
  S    12.932374  4.797410  1.276083
  S    11.727790  1.772693  5.091005
  S    11.922348  5.627701  5.288435
