16  
    
  C    12.341207  1.577189  3.298613
  C    12.380091  5.403023  3.631784
  C    11.158095  0.986441  2.623426
  C    11.188451  4.851019  3.036477
  N    13.391447  1.829352  2.485061
  N    13.395208  5.667238  2.806667
  N    11.321115  0.898590  1.296567
  N    11.358630  4.631970  1.699525
  N    10.478959  1.448333  5.139507
  N    10.528368  4.867677  5.455979
  S     9.893240  0.889908  3.689270
  S     9.926950  4.262658  4.020915
  S    12.889376  1.353279  0.939783
  S    12.769800  5.195503  1.279410
  S    12.107218  1.850944  5.002300
  S    12.065796  5.599493  5.350243
