16  
    
  C    12.650611  1.484235  3.565827
  C    12.899024  5.487751  3.753586
  C    11.502960  0.995655  2.906668
  C    11.729943  4.859951  3.069833
  N    13.706238  1.676078  2.831513
  N    13.897229  5.815799  2.964094
  N    11.700781  0.626764  1.640735
  N    11.935164  4.645597  1.799683
  N    10.818199  1.499974  5.388227
  N    11.053979  5.134945  5.607767
  S    10.139501  0.887530  3.972310
  S    10.350477  4.714400  4.137322
  S    13.253105  1.161856  1.305379
  S    13.443824  5.249424  1.417132
  S    12.409951  2.027943  5.267035
  S    12.657769  5.812186  5.404345
