16  
    
  C     5.420598 -2.171175  1.523173
  C     5.039187  1.848115  1.610797
  C     4.281874 -2.776908  0.837055
  C     4.028789  0.930634  1.162869
  N     6.460213 -1.994223  0.779083
  N     6.156887  1.841850  0.870429
  N     4.485581 -3.144220 -0.411606
  N     4.348622  0.260829  0.070353
  N     3.493601 -2.398088  3.278146
  N     3.051235  1.900668  3.347059
  S     2.849982 -2.961904  1.865125
  S     2.548267  0.850976  2.073749
  S     5.960420 -2.485523 -0.772152
  S     5.884791  0.760662 -0.380659
  S     5.058228 -1.797441  3.177105
  S     4.619125  2.319933  3.211693
