16  
    
  C    11.767939  0.990257  2.890171
  C    11.654989  4.994639  3.100302
  C    10.561541  0.433538  2.350820
  C    10.501154  4.393234  2.476221
  N    12.543947  1.468065  1.930432
  N    12.715954  5.264322  2.384917
  N    10.483552  0.363032  1.017145
  N    10.725630  4.330360  1.174761
  N    10.143738  0.810793  4.863261
  N     9.795314  4.610662  4.905781
  S     9.312938  0.114450  3.571305
  S     9.154047  4.033102  3.497335
  S    11.859862  1.090132  0.468691
  S    12.192418  4.925125  0.783032
  S    11.625611  1.530543  4.500663
  S    11.375019  5.059073  4.861216
