16  
    
  C    12.072166  1.308255  3.474061
  C    12.232541  5.179786  3.415994
  C    10.926575  0.746396  2.704142
  C    11.059635  4.718582  2.718414
  N    13.113137  1.644388  2.734675
  N    13.363616  5.233140  2.711496
  N    11.206401  0.621695  1.431447
  N    11.334316  4.339300  1.492697
  N    10.098836  1.155938  5.200152
  N    10.347596  5.350516  5.121232
  S     9.597246  0.539947  3.717895
  S     9.610164  4.655893  3.825382
  S    12.744244  1.191029  1.196377
  S    12.880969  4.717806  1.190538
  S    11.667265  1.744160  5.132374
  S    11.964351  5.678995  5.025222
