16  
    
  C    12.266461  1.570712  3.274294
  C    12.271688  5.298374  3.657727
  C    11.070993  1.066077  2.599379
  C    11.171611  4.672114  2.875311
  N    13.348074  1.867609  2.589231
  N    13.293514  5.642537  2.884457
  N    11.385243  0.763001  1.362107
  N    11.411070  4.561334  1.598981
  N    10.334296  1.323557  5.041388
  N    10.573272  4.818790  5.421513
  S     9.638562  0.809534  3.566559
  S     9.859983  4.345695  4.023369
  S    12.880242  1.380773  0.993622
  S    12.959758  5.149289  1.338976
  S    11.976389  1.864955  4.990969
  S    11.972084  5.666295  5.326748
