16  
    
  C    10.047725 -0.054070  2.927982
  C    10.267871  3.565750  3.131434
  C     8.874780 -0.409884  2.150675
  C     9.055031  3.858135  2.416050
  N    11.106417  0.152514  2.174853
  N    11.333037  3.548482  2.336868
  N     9.019085 -0.318824  0.847866
  N     9.112112  3.895063  1.085588
  N     8.142302 -0.488979  4.607679
  N     8.519752  3.578344  4.918290
  S     7.445993 -0.748961  3.102824
  S     7.730725  3.972580  3.510951
  S    10.630112 -0.031937  0.585766
  S    10.824174  3.752963  0.776490
  S     9.815379 -0.367324  4.722003
  S    10.158951  3.522899  4.908631
