16  
    
  C    11.513682  1.460866  2.945873
  C    11.479951  5.000856  3.106846
  C    10.407420  0.608805  2.390371
  C    10.277709  4.529126  2.411321
  N    12.382928  1.731178  1.985927
  N    12.555307  5.311126  2.387355
  N    10.435144  0.362910  1.095524
  N    10.542702  4.382390  1.113738
  N    10.210572  0.621195  4.952473
  N     9.644370  4.317521  4.862414
  S     9.355677  0.037567  3.684036
  S     8.978967  3.961649  3.334628
  S    11.934268  0.950991  0.614226
  S    12.081689  4.980387  0.842553
  S    11.501057  1.595107  4.643774
  S    11.150544  5.036507  4.834728
