16  
    
  C     7.457145 -1.183967  1.928363
  C     7.696010  2.821394  2.147591
  C     6.165002 -1.464623  1.325059
  C     6.495474  2.267662  1.599041
  N     8.485463 -1.004994  1.119582
  N     8.670842  2.936374  1.291766
  N     6.273309 -1.618432  0.030401
  N     6.652310  1.953489  0.316950
  N     5.675836 -1.396340  3.888009
  N     5.965250  2.745231  4.113397
  S     4.932673 -1.878811  2.501682
  S     5.191625  2.132202  2.766832
  S     7.827020 -1.265505 -0.389096
  S     8.077033  2.456523 -0.190974
  S     7.333239 -1.023207  3.678807
  S     7.589912  3.220410  3.782879
