16  
    
  C     6.453427 -1.711290  2.075336
  C     6.546714  2.200306  2.128767
  C     5.185372 -2.042832  1.458178
  C     5.394722  1.641987  1.534649
  N     7.441486 -1.457727  1.246235
  N     7.531147  2.535778  1.290453
  N     5.289542 -2.182693  0.161075
  N     5.509325  1.479488  0.198994
  N     4.693925 -2.207010  3.990081
  N     4.938390  1.692657  4.051313
  S     3.915883 -2.491650  2.548586
  S     4.206024  1.068789  2.731567
  S     6.812148 -1.636150 -0.264928
  S     6.930586  2.137782 -0.201661
  S     6.274240 -1.817490  3.834002
  S     6.463395  2.289966  3.835451
