16  
    
  C    11.551997  1.226951  3.070729
  C    11.411474  4.899261  3.062815
  C    10.471714  0.320193  2.596064
  C    10.286592  4.319069  2.351768
  N    12.333285  1.687023  2.110591
  N    12.406751  5.235799  2.272079
  N    10.454022  0.252568  1.251520
  N    10.517690  4.163889  1.065699
  N     9.929455  0.808203  5.101857
  N     9.543341  4.552559  4.786021
  S     9.198047  0.097959  3.805029
  S     8.957195  3.881082  3.344743
  S    11.743094  1.144929  0.627985
  S    11.969501  4.876731  0.767761
  S    11.413261  1.458686  4.838492
  S    11.123306  5.119704  4.728623
