16  
    
  C    10.337874  0.119551  2.685382
  C    10.205146  4.156323  3.097819
  C     9.161783 -0.423847  2.026632
  C     8.931447  3.838466  2.473861
  N    11.378408  0.106331  1.926469
  N    11.260548  4.071438  2.340186
  N     9.327956 -0.857397  0.816565
  N     9.089834  3.459700  1.192299
  N     8.510900  0.405529  4.358018
  N     8.718163  4.161650  5.060260
  S     7.803616 -0.414486  3.091289
  S     7.776620  3.968176  3.725155
  S    10.967268 -0.550561  0.431120
  S    10.741567  3.549448  0.871583
  S    10.127645  0.799508  4.256100
  S    10.256405  4.765246  4.742807
