16  
    
  C     8.609761 -1.060813  2.375449
  C     8.342341  3.003343  2.111921
  C     7.504979 -1.654984  1.751983
  C     7.155317  2.437502  1.560253
  N     9.580491 -0.702230  1.512578
  N     9.338756  3.201770  1.234560
  N     7.568366 -1.797573  0.405702
  N     7.230590  2.188091  0.234764
  N     6.939613 -1.339986  4.194651
  N     6.639967  2.756414  4.063817
  S     6.223884 -1.914434  2.785021
  S     5.857213  2.163698  2.660364
  S     9.004346 -1.141473  0.033900
  S     8.723743  2.762361 -0.240632
  S     8.509359 -0.913956  4.102231
  S     8.219790  3.276042  3.879720
