16  
    
  C     6.522134 -1.721170  2.000601
  C     6.530382  2.248397  2.103897
  C     5.271847 -2.083066  1.348337
  C     5.407123  1.532510  1.512690
  N     7.522272 -1.471494  1.154944
  N     7.497408  2.574991  1.267459
  N     5.334240 -2.085148  0.019198
  N     5.458904  1.440716  0.188922
  N     4.840753 -2.255264  3.886094
  N     4.973388  1.600995  4.074131
  S     4.024141 -2.499135  2.465815
  S     4.226938  1.074497  2.652932
  S     6.887660 -1.737193 -0.385265
  S     6.982167  2.123738 -0.283720
  S     6.430347 -1.829094  3.742924
  S     6.457452  2.333629  3.858830
