16  
    
  C    11.093340  0.532549  3.110464
  C    11.090015  4.286888  2.957726
  C     9.882437 -0.013515  2.493918
  C     9.894026  3.726672  2.314363
  N    12.064226  0.783657  2.250559
  N    12.115790  4.526871  2.086870
  N     9.916668 -0.218539  1.190978
  N    10.091766  3.423860  1.050713
  N     9.301419  0.408931  4.986808
  N     9.135223  4.177412  4.715482
  S     8.595990 -0.176544  3.582293
  S     8.572151  3.408399  3.336155
  S    11.448137  0.346448  0.723464
  S    11.621910  3.976389  0.640009
  S    10.929578  0.675904  4.894530
  S    10.768875  4.532467  4.734429
