16  
    
  C     9.010484 -0.581959  2.451836
  C     9.496397  3.498001  2.697141
  C     7.873678 -0.935423  1.638906
  C     8.262951  3.123562  2.077044
  N    10.135489 -0.401296  1.767947
  N    10.530498  3.397757  1.882934
  N     8.223462 -1.222272  0.362783
  N     8.299867  2.807261  0.773864
  N     7.054030 -0.480766  4.020944
  N     7.834889  3.761442  4.582607
  S     6.443912 -1.039549  2.612360
  S     6.988925  3.369635  3.222589
  S     9.816534 -0.876427  0.230972
  S     9.942551  2.897805  0.440933
  S     8.678377 -0.152258  4.093393
  S     9.493072  3.828796  4.462020
