16  
    
  C     4.804217 -2.042157  1.852874
  C     4.202540  1.075714  1.349783
  C     3.593322 -2.471703  1.229593
  C     2.995875  0.863677  0.638152
  N     5.784375 -1.792848  0.937687
  N     5.223231  1.371310  0.567203
  N     3.689958 -2.680811 -0.099418
  N     3.114355  0.807896 -0.693272
  N     2.928532 -1.984172  3.659054
  N     2.381912  1.145399  3.105123
  S     2.181810 -2.450440  2.242121
  S     1.635280  0.680638  1.690827
  S     5.219701 -2.325577 -0.511521
  S     4.736287  1.157004 -0.958722
  S     4.570990 -1.801886  3.582104
  S     4.050585  1.248548  2.979989
