16  
    
  C     7.295310 -1.621775  2.272192
  C     7.488133  2.196453  2.200780
  C     6.095709 -1.989735  1.568966
  C     6.252426  1.712554  1.625087
  N     8.367968 -1.641898  1.454634
  N     8.454382  2.490696  1.351520
  N     6.176802 -2.103680  0.205119
  N     6.336342  1.438123  0.347654
  N     5.417068 -1.907757  4.109246
  N     5.738751  2.165509  4.125271
  S     4.724461 -2.300288  2.664949
  S     4.892826  1.725753  2.739640
  S     7.811033 -1.989635 -0.091606
  S     7.901273  1.942585 -0.156359
  S     7.070331 -1.501066  4.021157
  S     7.390101  2.629037  3.846168
