16  
    
  C     9.646116 -0.651757  2.769544
  C     9.526415  3.245313  2.601573
  C     8.371670 -0.812675  2.092517
  C     8.235493  3.013902  1.909982
  N    10.678976 -0.515291  1.962804
  N    10.604792  3.278487  1.808568
  N     8.509726 -1.021147  0.792061
  N     8.372774  3.034651  0.601800
  N     7.882621 -0.563939  4.617844
  N     7.670656  2.990685  4.378727
  S     7.030669 -0.990243  3.236616
  S     6.890481  3.031364  2.952802
  S    10.126445 -0.870111  0.443672
  S    10.011288  3.214546  0.244576
  S     9.534101 -0.438788  4.470543
  S     9.269830  3.372258  4.265803
