16  
    
  C     7.933648 -0.698074  2.311028
  C     8.346097  2.877336  2.374379
  C     6.835317 -1.384455  1.614732
  C     7.028487  2.619844  1.851822
  N     8.981225 -0.440299  1.532343
  N     9.275206  2.976418  1.432369
  N     6.962789 -1.374532  0.302306
  N     6.933142  2.387288  0.531719
  N     6.009733 -1.086162  4.080628
  N     6.765669  2.933818  4.342529
  S     5.524905 -1.809326  2.707178
  S     5.818112  2.702632  3.065138
  S     8.515624 -0.810033 -0.049569
  S     8.530835  2.613328 -0.002084
  S     7.572140 -0.576402  4.049869
  S     8.419015  3.123151  4.097320
