16  
    
  C     8.973926 -0.344118  2.356754
  C     9.480144  3.349688  2.707912
  C     7.817056 -0.864534  1.727639
  C     8.169286  3.000618  2.146781
  N    10.070026 -0.226430  1.573751
  N    10.546800  3.181447  1.901526
  N     8.066649 -1.298961  0.454440
  N     8.313268  2.710642  0.845359
  N     7.172443 -0.352925  4.127684
  N     7.768594  3.289450  4.642766
  S     6.463865 -1.088248  2.842439
  S     6.863980  2.928107  3.294582
  S     9.631366 -0.906532  0.146731
  S     9.889445  2.798716  0.430021
  S     8.735830  0.149990  3.960256
  S     9.373567  3.673873  4.401950
