16  
    
  C    12.928261  1.629076  3.360569
  C    12.352650  5.132303  3.353220
  C    11.594527  1.201144  2.848085
  C    11.204981  4.666636  2.643477
  N    13.881146  1.745696  2.459974
  N    13.410129  5.311155  2.585053
  N    11.703215  0.891880  1.582482
  N    11.347332  4.584517  1.366592
  N    11.235576  1.419360  5.398219
  N    10.496672  4.900354  5.024876
  S    10.337403  1.162034  4.019908
  S     9.807479  4.380490  3.620624
  S    13.190587  1.207657  0.998614
  S    12.955464  4.998426  1.036482
  S    12.796314  1.961240  5.039760
  S    12.098304  5.088459  5.138796
