16  
    
  C     4.692258 -2.005550  1.908654
  C     4.172563  1.125219  1.291123
  C     3.530412 -2.461901  1.218940
  C     2.956784  0.826625  0.565823
  N     5.806574 -1.979642  1.143240
  N     5.219810  1.150165  0.486117
  N     3.724132 -2.795592 -0.068365
  N     3.018069  0.758979 -0.761224
  N     2.868617 -2.257615  3.691754
  N     2.279242  1.157836  3.006154
  S     2.136148 -2.688861  2.259706
  S     1.540414  0.585577  1.662229
  S     5.293561 -2.356681 -0.425074
  S     4.683816  1.033199 -1.078626
  S     4.433124 -1.725629  3.588921
  S     3.946894  1.281722  3.031291
