16  
    
  C     7.894250 -0.999723  1.854449
  C     7.924504  2.943265  2.406198
  C     6.661222 -1.373266  1.246075
  C     6.790583  2.405426  1.701087
  N     8.871368 -0.927958  0.988951
  N     9.032942  3.192316  1.656144
  N     6.700619 -1.689243 -0.020858
  N     7.037917  2.190407  0.413078
  N     6.102586 -0.952369  3.732300
  N     5.955164  2.576556  4.163418
  S     5.320247 -1.528223  2.385561
  S     5.311924  2.177770  2.632788
  S     8.253330 -1.366241 -0.491727
  S     8.581248  2.775412  0.096096
  S     7.705063 -0.546347  3.491169
  S     7.538701  3.158142  4.104784
