16  
    
  C     4.657715 -2.541077  1.599996
  C     5.083626  1.240920  1.786437
  C     3.393891 -2.735023  0.931715
  C     3.778415  1.060755  1.172891
  N     5.749853 -2.660503  0.813896
  N     6.066951  1.559164  0.958271
  N     3.490438 -2.918582 -0.425334
  N     3.845729  1.165484 -0.149380
  N     2.829778 -2.496010  3.428539
  N     3.383683  0.882998  3.732505
  S     2.050321 -2.860869  1.977372
  S     2.539683  0.744633  2.331581
  S     5.124082 -2.874730 -0.715760
  S     5.455554  1.623197 -0.585094
  S     4.541976 -2.291344  3.330355
  S     4.921091  1.435569  3.527014
