16  
    
  C    11.967139  1.274949  3.327253
  C    11.772685  4.939821  3.655787
  C    10.836463  0.776803  2.596652
  C    10.641802  4.404251  3.001446
  N    12.986196  1.573194  2.535960
  N    12.909793  5.096719  2.872087
  N    11.068729  0.463979  1.315313
  N    10.822400  4.308614  1.695437
  N    10.300085  0.774489  5.135259
  N     9.925485  4.429230  5.491265
  S     9.511378  0.496656  3.711461
  S     9.265652  4.010118  4.021303
  S    12.536849  1.164915  0.991642
  S    12.355440  4.587798  1.344641
  S    11.827004  1.478066  5.091080
  S    11.476940  5.036720  5.391884
