16  
    
  C     9.744489 -0.154261  2.511421
  C     9.841486  3.543373  2.543215
  C     8.525315 -0.617868  2.003540
  C     8.581342  3.137406  1.965730
  N    10.673332  0.048794  1.537549
  N    10.747437  3.901959  1.673558
  N     8.427007 -0.688074  0.670435
  N     8.529225  3.139466  0.636849
  N     8.275419 -0.656150  4.555479
  N     8.209813  2.977850  4.513385
  S     7.301280 -0.987012  3.196991
  S     7.372738  2.700878  3.095422
  S     9.929254 -0.311101  0.085657
  S    10.022073  3.691713  0.161534
  S     9.811387 -0.118775  4.263201
  S     9.671587  3.615779  4.240952
