16  
    
  C     8.914009 -0.313623  2.543290
  C     8.523745  3.284877  2.568752
  C     7.692152 -0.704884  1.884928
  C     7.334720  2.724754  1.904464
  N     9.932304 -0.055196  1.742502
  N     9.470201  3.614217  1.700672
  N     7.772593 -0.707859  0.552852
  N     7.435822  2.741977  0.578819
  N     7.190431 -0.736591  4.471895
  N     6.885243  2.728376  4.452060
  S     6.347162 -0.903980  3.029175
  S     6.146681  2.153396  3.063151
  S     9.318627 -0.216487  0.227021
  S     8.900530  3.349446  0.169802
  S     8.746756 -0.146650  4.230386
  S     8.425445  3.357274  4.236086
