16  
    
  C    11.373120  1.227402  3.175049
  C    11.408430  4.835459  2.892285
  C    10.209185  0.623298  2.642445
  C    10.273750  4.228509  2.312026
  N    12.336295  1.455236  2.286892
  N    12.362289  5.284452  2.041999
  N    10.195728  0.455183  1.333375
  N    10.456294  4.051397  0.981456
  N     9.870869  0.789992  5.117770
  N     9.567742  4.639990  4.784131
  S     9.028461  0.075292  3.856339
  S     8.985670  3.900743  3.396579
  S    11.687236  1.028897  0.840000
  S    11.958040  4.694779  0.586169
  S    11.387446  1.405954  4.880760
  S    11.176229  5.059239  4.694839
