16  
    
  C    11.775713  1.098110  3.380960
  C    11.898774  5.086720  3.335496
  C    10.589022  0.621687  2.678245
  C    10.731404  4.522357  2.680483
  N    12.855195  1.150790  2.592993
  N    12.991726  5.102269  2.542423
  N    10.813086  0.215428  1.423660
  N    10.822381  4.228881  1.397829
  N     9.994618  0.918744  5.178069
  N    10.169180  4.886748  5.181327
  S     9.245202  0.591399  3.710559
  S     9.335127  4.428706  3.821891
  S    12.381574  0.685461  1.090565
  S    12.467673  4.460096  1.068402
  S    11.559245  1.620417  5.103127
  S    11.748827  5.364038  4.988261
