16  
    
  C     9.121196 -0.537415  2.518352
  C     9.584161  3.466533  2.784055
  C     7.950687 -0.999661  1.817973
  C     8.307528  3.161618  2.167459
  N    10.223008 -0.509886  1.759630
  N    10.597976  3.393580  1.953025
  N     8.103707 -1.111741  0.478181
  N     8.404036  2.830091  0.881963
  N     7.225930 -0.567201  4.268407
  N     7.813333  3.787218  4.640767
  S     6.528415 -1.206645  2.854414
  S     7.026104  3.370245  3.234131
  S     9.715001 -0.826702  0.228724
  S     9.964793  2.892696  0.497071
  S     8.906038 -0.382713  4.237914
  S     9.436750  4.088460  4.382492
