16  
    
  C    10.997466  0.715279  3.318274
  C    11.235413  4.214404  3.220139
  C     9.843509  0.280922  2.575820
  C     9.951593  3.866893  2.705928
  N    12.099112  0.902957  2.561414
  N    12.183407  4.554558  2.309266
  N     9.982842  0.164610  1.249732
  N     9.929136  3.767602  1.404619
  N     9.147054  0.026891  5.010363
  N     9.574038  3.792802  5.222964
  S     8.520079 -0.355722  3.504570
  S     8.729316  3.502253  3.822232
  S    11.577159  0.549740  0.988413
  S    11.449520  4.142759  0.856177
  S    10.733673  0.622526  5.044469
  S    11.164393  4.261799  5.014661
