16  
    
  C     7.062011 -1.704144  1.577401
  C     6.804380  2.138660  1.934623
  C     5.813379 -2.241942  1.050957
  C     5.605431  1.582995  1.354014
  N     8.059037 -1.620719  0.727009
  N     7.745857  2.458351  1.023325
  N     5.860651 -2.361887 -0.247284
  N     5.678485  1.471033  0.022771
  N     5.330311 -1.830815  3.527585
  N     5.115479  1.706560  3.879931
  S     4.557701 -2.398256  2.192944
  S     4.394879  1.090238  2.489341
  S     7.412298 -1.942077 -0.718512
  S     7.084392  2.070152 -0.421330
  S     6.976031 -1.616385  3.309459
  S     6.688616  2.251339  3.638596
