16  
    
  C     7.322043 -1.786445  2.230661
  C     7.456940  2.395773  2.124221
  C     6.111512 -2.099020  1.504273
  C     6.191024  2.007982  1.561663
  N     8.285684 -1.400087  1.426528
  N     8.445693  2.495815  1.225562
  N     6.258825 -2.231952  0.202203
  N     6.244177  1.929898  0.220300
  N     5.580862 -2.037064  4.068449
  N     5.803417  2.220135  4.104388
  S     4.722385 -2.283091  2.601007
  S     4.932685  1.676192  2.763529
  S     7.825132 -1.729722 -0.129185
  S     7.800447  2.074115 -0.214961
  S     7.174692 -1.660372  3.924667
  S     7.374895  2.625234  3.840438
