16  
    
  C    12.079531  1.096636  3.415878
  C    12.284842  5.175007  3.167774
  C    10.900501  0.761279  2.715765
  C    10.975174  4.704885  2.716994
  N    13.180953  1.089207  2.682613
  N    13.296240  5.098329  2.348060
  N    10.996362  0.563720  1.425559
  N    11.107028  4.338554  1.442001
  N    10.206190  1.438649  5.100884
  N    10.523653  5.305075  5.163270
  S     9.552439  0.766139  3.756559
  S     9.629352  4.894707  3.797993
  S    12.609008  0.806109  1.126600
  S    12.620425  4.510923  0.911551
  S    11.824143  1.711506  5.084964
  S    12.161321  5.523957  4.881374
