16  
    
  C     9.736230 -0.107520  2.866938
  C     9.734486  3.529599  2.751766
  C     8.528629 -0.608945  2.192214
  C     8.538570  3.161651  2.087914
  N    10.706150  0.139109  2.048930
  N    10.693041  3.884244  1.896271
  N     8.749560 -0.842962  0.928587
  N     8.538312  3.274368  0.759741
  N     7.883548 -0.454972  4.692770
  N     7.936548  3.222786  4.599588
  S     7.132535 -0.832849  3.239956
  S     7.129642  3.302649  3.187637
  S    10.250575 -0.320829  0.541021
  S    10.025211  3.802837  0.381337
  S     9.510987  0.085851  4.600658
  S     9.550862  3.528607  4.476264
