16  
    
  C     9.944529 -0.262864  2.966641
  C    10.160627  3.551330  3.011484
  C     8.759179 -0.595033  2.174792
  C     8.869663  3.710473  2.324397
  N    10.971937  0.140272  2.271833
  N    11.164026  3.493884  2.150066
  N     9.019810 -0.595223  0.881595
  N     8.968075  3.885917  1.000136
  N     8.040429 -0.623901  4.675278
  N     8.546389  3.521014  4.941508
  S     7.405209 -0.977823  3.196642
  S     7.633911  3.778295  3.603431
  S    10.593645 -0.076989  0.697099
  S    10.566880  3.709348  0.620292
  S     9.671973 -0.171760  4.700544
  S    10.218507  3.232095  4.689756
