16  
    
  C     5.434368 -2.251102  1.804438
  C     5.218433  1.730782  1.550581
  C     4.284197 -2.708179  1.085179
  C     4.212731  1.052250  0.769753
  N     6.532203 -2.059890  1.062645
  N     6.332435  1.986330  0.877235
  N     4.498422 -2.772123 -0.217515
  N     4.512773  0.884495 -0.532147
  N     3.620711 -2.698967  3.505196
  N     3.313381  1.088623  3.248215
  S     2.907958 -2.987001  2.070803
  S     2.755085  0.673949  1.718395
  S     6.051212 -2.282432 -0.505849
  S     6.023410  1.530087 -0.729526
  S     5.197816 -2.206349  3.515715
  S     4.843023  1.723327  3.295661
