16  
    
  C     6.211909 -1.738160  2.350061
  C     6.617434  2.097405  2.190276
  C     5.023907 -2.142221  1.663872
  C     5.413283  1.573269  1.605983
  N     7.154446 -1.310202  1.561146
  N     7.535574  2.480264  1.291360
  N     5.106250 -2.184587  0.351033
  N     5.489900  1.501181  0.253964
  N     4.470109 -2.020606  4.162527
  N     4.944529  1.690196  4.123407
  S     3.735732 -2.559764  2.751493
  S     4.174681  1.241002  2.760054
  S     6.664634 -1.588903  0.028219
  S     6.914581  2.112159 -0.171819
  S     6.046958 -1.683269  4.051961
  S     6.501874  2.265673  3.977836
