16  
    
  C     4.639334 -2.228446  1.601156
  C     4.990972  1.335752  1.948697
  C     3.557391 -2.798154  0.876543
  C     3.699772  1.257443  1.317545
  N     5.664748 -1.886783  0.784068
  N     5.957865  1.414198  1.037724
  N     3.777153 -3.002674 -0.459725
  N     3.664036  1.157555 -0.001831
  N     2.870203 -2.804920  3.360143
  N     3.385241  1.762415  3.858146
  S     2.264048 -3.305817  1.922532
  S     2.423445  1.415738  2.506003
  S     5.269098 -2.341432 -0.715737
  S     5.256424  1.311781 -0.456499
  S     4.352196 -2.043911  3.306235
  S     5.054053  1.454314  3.656432
