16  
    
  C     8.820832 -0.973626  2.356424
  C     8.428499  3.239229  2.401094
  C     7.575668 -1.301031  1.673268
  C     7.319561  2.569109  1.812039
  N     9.853593 -0.850036  1.558386
  N     9.385675  3.507406  1.545407
  N     7.743904 -1.499123  0.392456
  N     7.353192  2.409674  0.489559
  N     6.936500 -1.181473  4.187233
  N     6.798011  2.822716  4.382485
  S     6.221265 -1.628601  2.725765
  S     6.085213  2.214492  2.950587
  S     9.321769 -1.205379  0.027216
  S     8.850926  3.027969  0.081218
  S     8.580988 -0.699323  4.106313
  S     8.298528  3.584445  4.172969
