16  
    
  C     5.824973 -2.148738  1.889965
  C     6.075813  1.688039  1.975186
  C     4.594713 -2.479493  1.182598
  C     4.768183  1.682972  1.432062
  N     6.881528 -2.033407  1.069107
  N     7.041894  1.379710  1.099592
  N     4.754361 -2.700931 -0.141089
  N     4.682467  1.341429  0.145278
  N     4.006536 -2.347428  3.679502
  N     4.495107  2.068038  3.979178
  S     3.232080 -2.815661  2.287852
  S     3.570722  1.986232  2.621715
  S     6.297213 -2.293148 -0.469613
  S     6.282270  1.148941 -0.351210
  S     5.612715 -1.980961  3.602191
  S     6.146958  2.143944  3.689572
