16  
    
  C     9.101627 -0.538251  2.529024
  C     9.542018  3.481814  2.775868
  C     7.917014 -0.933275  1.783708
  C     8.313585  3.192331  2.122823
  N    10.218459 -0.479162  1.772093
  N    10.569936  3.296704  1.953893
  N     8.092430 -1.096963  0.479713
  N     8.315911  2.815743  0.840313
  N     7.213146 -0.620013  4.216553
  N     7.853746  3.700638  4.603637
  S     6.571773 -1.172170  2.763542
  S     7.013609  3.384853  3.205293
  S     9.744438 -0.902658  0.241489
  S     9.966846  2.892554  0.466481
  S     8.842607 -0.350216  4.232844
  S     9.470559  4.137466  4.449035
