16  
    
  C     6.100340 -1.603475  2.316174
  C     6.607459  2.047067  2.194076
  C     5.177516 -2.489940  1.691034
  C     5.386470  1.682570  1.547992
  N     7.081194 -1.115331  1.509119
  N     7.582885  2.290089  1.360087
  N     5.380820 -2.587763  0.339909
  N     5.378398  1.606743  0.232334
  N     4.389025 -2.226826  4.173738
  N     4.875418  1.874610  4.091916
  S     3.813900 -2.839035  2.692939
  S     4.072600  1.457495  2.680212
  S     6.756152 -1.779988  0.046162
  S     6.986064  1.983524 -0.204895
  S     5.921779 -1.536757  4.068530
  S     6.533574  2.273864  3.913469
