16  
    
  C     7.888347 -0.826073  2.253814
  C     8.314888  2.804902  2.386609
  C     6.724142 -1.380246  1.533933
  C     7.017401  2.546641  1.845761
  N     8.865375 -0.408338  1.468637
  N     9.292475  2.915685  1.464221
  N     6.990312 -1.556332  0.249748
  N     6.960641  2.510461  0.493673
  N     6.092889 -1.148954  4.023378
  N     6.717354  3.091386  4.444454
  S     5.418291 -1.805017  2.567180
  S     5.781609  2.591871  3.125543
  S     8.450945 -0.837575 -0.066721
  S     8.562922  2.744951 -0.005198
  S     7.640656 -0.550300  3.958664
  S     8.381065  3.023632  4.114761
