16  
    
  C    10.168528  0.588672  2.685413
  C    10.748778  4.315610  2.766437
  C     8.955998  0.109714  2.099511
  C     9.468070  3.851013  2.266517
  N    11.214671  0.753490  1.845564
  N    11.803411  4.248581  1.938222
  N     9.050467 -0.178491  0.794465
  N     9.537729  3.711998  0.943909
  N     8.359234  0.382983  4.557434
  N     8.951100  4.166277  4.744801
  S     7.738874 -0.435594  3.212578
  S     8.156675  3.640724  3.394433
  S    10.644544  0.129700  0.384700
  S    11.042088  3.931074  0.434757
  S     9.961481  0.811929  4.402274
  S    10.546103  4.640178  4.476021
