16  
    
  C    11.767176  1.184441  3.316120
  C    11.962597  5.004573  3.293211
  C    10.538801  0.559799  2.755472
  C    10.747647  4.493936  2.694342
  N    12.838031  1.292837  2.489961
  N    12.944838  5.037711  2.429949
  N    10.717299  0.338877  1.461900
  N    10.881026  4.073286  1.389504
  N     9.847965  1.099842  5.161556
  N    10.212629  5.072580  5.165168
  S     9.148832  0.568602  3.752237
  S     9.460797  4.378668  3.865495
  S    12.262665  0.623572  1.070516
  S    12.389338  4.493748  0.925621
  S    11.504620  1.364352  4.988876
  S    11.799756  5.512990  4.945373
