16  
    
  C     7.300908 -1.697954  2.232992
  C     7.421868  2.356650  2.158525
  C     6.036943 -1.912357  1.552218
  C     6.221794  1.820130  1.574886
  N     8.374817 -1.614469  1.438633
  N     8.420821  2.423701  1.288149
  N     6.213404 -2.161088  0.268747
  N     6.335171  1.562328  0.266857
  N     5.493116 -1.997190  4.116865
  N     5.777843  2.251270  4.079196
  S     4.775285 -2.277964  2.645575
  S     4.938067  1.690616  2.755173
  S     7.819161 -1.928074 -0.104615
  S     7.828256  1.977103 -0.154811
  S     7.045773 -1.559516  3.985910
  S     7.363919  2.589652  3.903264
