16  
    
  C    11.822404  1.154654  3.383324
  C    11.914425  5.025379  3.328238
  C    10.681296  0.554025  2.703169
  C    10.663374  4.593303  2.759030
  N    12.916216  1.146791  2.623410
  N    12.979645  5.099960  2.558724
  N    10.861143  0.336348  1.388684
  N    10.915463  4.260697  1.473139
  N    10.016514  0.936460  5.200443
  N    10.105162  4.842617  5.159987
  S     9.246325  0.573724  3.744004
  S     9.312551  4.437290  3.788329
  S    12.439393  0.702294  1.095229
  S    12.457426  4.472660  1.106218
  S    11.568998  1.653780  5.041822
  S    11.700837  5.282015  5.031803
