16  
    
  C    11.297922  0.659816  3.031149
  C    11.121853  4.405351  3.584144
  C    10.301607 -0.073640  2.277020
  C     9.849676  4.150775  2.973825
  N    12.449724  0.776567  2.349208
  N    12.096475  4.387091  2.657121
  N    10.598774 -0.345662  1.002537
  N     9.807861  3.872656  1.681516
  N     9.312540  0.386540  4.510680
  N     9.353096  4.732355  5.469349
  S     8.847741 -0.357727  3.092871
  S     8.485718  4.215861  4.142288
  S    12.223837  0.084794  0.847828
  S    11.384413  4.125069  1.198373
  S    10.937234  0.784241  4.746222
  S    10.987727  4.866021  5.227683
