16  
    
  C    12.878195  1.552910  3.717574
  C    12.839723  5.514988  3.698649
  C    11.645974  1.216012  3.101081
  C    11.574941  4.956664  3.232963
  N    13.903637  1.693672  2.876827
  N    13.866823  5.478500  2.835598
  N    11.661274  1.160104  1.764790
  N    11.634868  4.618131  1.883685
  N    11.143898  1.601477  5.616428
  N    11.331157  5.548044  5.772823
  S    10.295436  1.272712  4.224406
  S    10.398441  4.980501  4.492760
  S    13.286260  1.489186  1.360150
  S    13.215946  4.925776  1.431581
  S    12.750139  1.955953  5.389571
  S    12.848692  6.090089  5.332124
