16  
    
  C    11.201936  0.677011  2.932219
  C    11.170623  4.269954  3.373506
  C    10.071884 -0.117656  2.433979
  C     9.870149  4.172372  2.700694
  N    12.187844  0.779474  2.084196
  N    12.153720  4.279933  2.465607
  N    10.160447 -0.436110  1.174424
  N     9.892462  3.968689  1.385987
  N     9.408026  0.448147  4.841303
  N     9.461666  4.059630  5.289336
  S     8.755724 -0.275909  3.483527
  S     8.579986  4.209481  3.901894
  S    11.677111  0.029494  0.662011
  S    11.500100  4.063879  0.933696
  S    10.959076  1.054324  4.611942
  S    11.057675  4.539742  5.122413
