16  
    
  C     9.793983 -0.070129  2.853022
  C     9.855529  3.550831  2.685909
  C     8.580144 -0.547382  2.200191
  C     8.583393  3.190653  2.128296
  N    10.703477  0.463225  2.007326
  N    10.866738  3.749076  1.837628
  N     8.622467 -0.582647  0.850087
  N     8.554536  3.308354  0.801500
  N     8.195450 -0.750833  4.755113
  N     8.164897  3.148470  4.589165
  S     7.300193 -0.977076  3.339821
  S     7.236664  2.875450  3.200705
  S    10.108567  0.139146  0.467053
  S    10.098587  3.675747  0.283164
  S     9.593097  0.137085  4.539803
  S     9.754844  3.627749  4.456511
