16  
    
  C     7.059475 -1.672936  1.614536
  C     6.844545  2.086920  1.924835
  C     5.856835 -2.151380  1.022852
  C     5.617815  1.643666  1.329254
  N     8.107552 -1.600951  0.761027
  N     7.809192  2.399193  1.090424
  N     5.955052 -2.405328 -0.305585
  N     5.659341  1.460898  0.026484
  N     5.355213 -1.785981  3.549528
  N     5.170466  1.702027  3.860339
  S     4.583196 -2.386717  2.209751
  S     4.419421  1.123729  2.462782
  S     7.472683 -1.971797 -0.726240
  S     7.109105  2.077119 -0.465422
  S     6.983469 -1.571527  3.307066
  S     6.718051  2.234962  3.636088
