16  
    
  C     5.916665 -2.142453  1.755575
  C     5.572880  1.158127  1.776455
  C     4.601540 -2.517071  1.173440
  C     4.339824  0.736463  1.142312
  N     6.887889 -1.991299  0.886164
  N     6.581361  1.200120  0.888625
  N     4.602668 -2.494076 -0.160976
  N     4.432355  0.520740 -0.171517
  N     4.343171 -2.340095  3.719177
  N     3.739848  1.232183  3.617039
  S     3.395777 -2.577944  2.413776
  S     2.976503  0.727777  2.261254
  S     6.186471 -2.321543 -0.610224
  S     5.998936  0.780559 -0.597314
  S     5.910885 -2.088413  3.496779
  S     5.372871  1.571955  3.444562
