16  
    
  C    12.539780  1.517038  3.362161
  C    12.898711  5.463534  3.605928
  C    11.350671  0.901709  2.717260
  C    11.807082  4.858880  2.839535
  N    13.465050  1.880066  2.479533
  N    13.962426  5.816413  2.914188
  N    11.437286  0.784326  1.418536
  N    12.051036  4.807739  1.528043
  N    10.888755  0.998653  5.266036
  N    10.870333  4.910362  5.188098
  S    10.095310  0.604261  3.833737
  S    10.319390  4.668762  3.667456
  S    12.844566  1.522214  0.961894
  S    13.569910  5.404726  1.267895
  S    12.425701  1.732635  5.117305
  S    12.365508  5.551400  5.313389
