16  
    
  C     4.656755 -2.119921  1.564173
  C     4.520966  1.610573  1.507307
  C     3.319081 -2.123669  0.988456
  C     3.343172  1.096225  0.834830
  N     5.607629 -2.277271  0.696300
  N     5.548986  1.879395  0.691154
  N     3.248628 -2.305605 -0.296317
  N     3.496044  0.912591 -0.466703
  N     3.021111 -1.937597  3.551803
  N     2.800113  1.204883  3.386467
  S     2.090982 -2.142007  2.215823
  S     2.032479  0.708390  1.984086
  S     4.864304 -2.295594 -0.826337
  S     4.998589  1.504255 -0.857026
  S     4.652842 -1.831521  3.268554
  S     4.385311  1.671281  3.300034
