16  
    
  C     9.936145 -0.124346  2.999807
  C    10.227969  3.554648  2.877800
  C     8.770160 -0.537816  2.249040
  C     8.909474  3.521703  2.321901
  N    10.973626  0.133878  2.163338
  N    11.162121  3.474299  1.928424
  N     8.971222 -0.714981  0.926083
  N     8.826435  3.618016  1.011497
  N     8.096280 -0.702326  4.685547
  N     8.557956  3.299700  4.813770
  S     7.373377 -0.961738  3.177186
  S     7.631441  3.517203  3.496603
  S    10.512131 -0.251515  0.621077
  S    10.330966  3.641866  0.455264
  S     9.710780 -0.185046  4.763775
  S    10.199856  3.545174  4.641963
