16  
    
  C     8.392070 -0.864030  2.451397
  C     8.217947  2.509254  2.108448
  C     7.128732 -1.270063  1.919177
  C     7.045852  2.163827  1.336714
  N     9.451801 -0.922984  1.642030
  N     9.368990  2.624486  1.445661
  N     7.187789 -1.515404  0.608275
  N     7.337292  1.950872  0.053700
  N     6.649949 -0.575137  4.300950
  N     6.353872  2.088096  3.771030
  S     5.772384 -1.258031  3.055717
  S     5.600106  1.918950  2.323794
  S     8.795135 -1.421521  0.188108
  S     9.006508  2.151704 -0.126890
  S     8.348665 -0.480274  4.112277
  S     7.877359  2.650180  3.776626
