16  
    
  C     8.322407 -0.866074  2.434799
  C     8.135397  2.744392  2.305817
  C     7.134871 -1.538306  2.053824
  C     6.985008  2.267000  1.612049
  N     9.320944 -0.923413  1.510862
  N     9.208884  2.887827  1.547116
  N     7.143201 -1.978392  0.766548
  N     7.227549  1.977398  0.328096
  N     6.788498 -0.731875  4.477948
  N     6.241561  2.785804  3.947646
  S     5.902592 -1.390689  3.268126
  S     5.608642  2.054239  2.665696
  S     8.667583 -1.609965  0.175317
  S     8.755740  2.464234  0.041322
  S     8.422158 -0.431713  4.149227
  S     7.853446  3.103583  3.981503
