16  
    
  C     8.512964 -0.885204  2.384162
  C     8.282802  2.654674  2.027103
  C     7.285322 -1.257218  1.683577
  C     7.071520  2.281658  1.312204
  N     9.590154 -0.885059  1.630769
  N     9.356613  2.824724  1.241326
  N     7.417827 -1.251763  0.397195
  N     7.220208  2.097130  0.020320
  N     6.611153 -1.167615  4.091024
  N     6.365694  2.292131  3.777610
  S     5.841350 -1.520677  2.630936
  S     5.684788  1.895288  2.343962
  S     9.012794 -1.164429  0.079431
  S     8.843553  2.386034 -0.281595
  S     8.235815 -0.914377  4.080599
  S     7.918711  2.718129  3.720383
