16  
    
  C     4.678349 -2.043708  1.611698
  C     4.380032  1.551840  1.419639
  C     3.371020 -2.169862  1.042731
  C     3.242382  0.981148  0.799364
  N     5.655132 -2.160080  0.710986
  N     5.432457  1.815364  0.652390
  N     3.347838 -2.164197 -0.292195
  N     3.375926  0.967235 -0.534109
  N     3.008199 -1.764170  3.586390
  N     2.769734  0.910322  3.291554
  S     2.102422 -2.167772  2.243461
  S     1.978020  0.623337  1.906658
  S     4.914620 -2.353322 -0.772669
  S     4.926956  1.376417 -0.848735
  S     4.683877 -1.784082  3.356876
  S     4.323483  1.575909  3.131813
