16  
    
  C    10.218502  0.459643  2.857449
  C    10.794015  4.430860  2.846618
  C     9.051154 -0.113325  2.276625
  C     9.610319  4.057293  2.150887
  N    11.121445  0.936643  1.964238
  N    11.785722  4.719770  1.996492
  N     9.047627 -0.167204  0.939022
  N     9.710844  3.817476  0.841103
  N     8.505143  0.029482  4.774210
  N     8.902541  3.872780  4.624169
  S     7.712761 -0.488499  3.376951
  S     8.212913  3.702455  3.125567
  S    10.427348  0.585588  0.492277
  S    11.228276  4.324048  0.485680
  S    10.083420  0.536996  4.619599
  S    10.492597  4.330526  4.608243
