16  
    
  C     8.410381 -0.977646  2.399844
  C     8.203246  2.541191  2.043062
  C     7.213955 -1.126065  1.606348
  C     7.078975  2.027651  1.229990
  N     9.489590 -0.913171  1.661755
  N     9.276751  2.766446  1.307065
  N     7.443613 -1.312902  0.314163
  N     7.340895  1.873561 -0.079029
  N     6.521681 -1.158238  4.203936
  N     6.301512  2.259049  3.724498
  S     5.826629 -1.203805  2.689521
  S     5.668324  1.790111  2.239267
  S     9.080853 -1.108699  0.056942
  S     8.921155  2.348237 -0.232024
  S     8.125310 -0.814784  4.144917
  S     7.937791  2.564527  3.797693
