16  
    
  C    11.084445  0.597224  2.873909
  C    11.067963  4.264510  3.295551
  C     9.819898  0.012887  2.374277
  C     9.849300  3.822086  2.634849
  N    11.971400  0.879124  1.924155
  N    12.064557  4.490140  2.450509
  N     9.859155 -0.373652  1.119058
  N     9.933015  3.791088  1.304037
  N     9.418232  0.511751  4.891629
  N     9.230895  4.238027  5.160851
  S     8.593848 -0.150368  3.611235
  S     8.486175  3.750629  3.740367
  S    11.299954  0.281862  0.493789
  S    11.545395  4.189611  0.929593
  S    10.933311  1.067757  4.499975
  S    10.854934  4.452718  5.053081
