16  
    
  C    12.110303  1.352183  3.395735
  C    12.168236  5.169496  3.800611
  C    10.970322  0.808550  2.720756
  C    10.935609  4.745078  3.220413
  N    13.086362  1.675558  2.582220
  N    13.141944  5.322698  2.934766
  N    11.113908  0.723140  1.402213
  N    10.866951  4.662140  1.871701
  N    10.335225  1.143969  5.211333
  N    10.609006  4.746122  5.776060
  S     9.600723  0.527078  3.828107
  S     9.642653  4.499543  4.401061
  S    12.666426  1.303285  1.052101
  S    12.457169  5.098748  1.414079
  S    11.854031  1.801655  5.099173
  S    12.219264  5.167153  5.518692
