16  
    
  C    10.950190  0.702799  2.850614
  C    11.077896  4.155717  3.273484
  C     9.860618 -0.133475  2.380629
  C     9.779631  3.941628  2.631225
  N    11.888459  0.914247  1.951345
  N    12.144808  4.280628  2.511677
  N     9.960289 -0.391932  1.080233
  N     9.954748  3.863410  1.325780
  N     9.468624  0.620169  4.837515
  N     9.321174  4.376376  5.106319
  S     8.627286 -0.185800  3.609172
  S     8.516176  3.802764  3.758417
  S    11.418123  0.165995  0.605438
  S    11.515618  4.211557  0.929431
  S    11.027857  1.068274  4.498208
  S    10.994853  4.414655  5.006421
