16  
    
  C     5.875465 -2.248673  1.656573
  C     5.305115  1.381965  1.714737
  C     4.599348 -2.584752  1.161038
  C     4.067777  0.905595  1.144621
  N     6.769154 -2.009024  0.675897
  N     6.307922  1.423775  0.836370
  N     4.516552 -2.675072 -0.183760
  N     4.037159  0.716712 -0.171868
  N     4.250195 -2.324973  3.703651
  N     3.597895  1.209918  3.672982
  S     3.362544 -2.576248  2.309816
  S     2.807618  0.619843  2.344232
  S     6.049410 -2.358181 -0.747426
  S     5.667361  0.895223 -0.643753
  S     5.860215 -1.839458  3.357682
  S     5.204902  1.615442  3.437677
