16  
    
  C    10.349070  0.435347  2.994824
  C    10.824809  4.317527  2.966220
  C     9.127115 -0.035677  2.337667
  C     9.566120  4.195350  2.244879
  N    11.263761  0.889047  2.104835
  N    11.819848  4.636167  2.132943
  N     9.094781  0.004889  1.001693
  N     9.594384  4.353566  0.930887
  N     8.679850 -0.221265  4.862098
  N     9.009647  3.629274  4.698147
  S     7.946310 -0.590750  3.415620
  S     8.208863  3.859359  3.265651
  S    10.583783  0.708019  0.580604
  S    11.130861  4.696091  0.558915
  S    10.152083  0.529977  4.739277
  S    10.582516  4.231378  4.722484
