16  
    
  C     8.733958 -0.958037  2.341374
  C     8.399809  3.295249  2.226341
  C     7.550536 -1.527693  1.724743
  C     7.238661  2.562538  1.721611
  N     9.731042 -0.667138  1.490532
  N     9.347576  3.578524  1.321924
  N     7.726949 -1.736463  0.407635
  N     7.346788  2.297087  0.407189
  N     7.047849 -1.498547  4.278558
  N     6.750067  2.819988  4.275062
  S     6.204024 -1.840990  2.875365
  S     5.969773  2.215938  2.896506
  S     9.239930 -1.216511 -0.002001
  S     8.819527  2.878428 -0.070814
  S     8.547093 -0.847173  4.036146
  S     8.254053  3.424089  3.908055
