16  
    
  C    10.187957  0.460683  2.840575
  C    10.792332  4.406013  2.816245
  C     9.025688 -0.214353  2.267757
  C     9.557835  3.918984  2.195289
  N    11.094924  0.845499  1.967859
  N    11.815916  4.645959  1.982420
  N     9.041001 -0.126713  0.958587
  N     9.701327  3.702681  0.919706
  N     8.536138 -0.053577  4.751546
  N     8.952753  3.892990  4.622888
  S     7.708466 -0.425404  3.376794
  S     8.163414  3.710898  3.158928
  S    10.456059  0.535548  0.475240
  S    11.204958  4.266943  0.457687
  S    10.037596  0.649261  4.532931
  S    10.520964  4.409865  4.521108
