16  
    
  C    11.340835  0.842130  3.024067
  C    11.207174  4.763891  3.424772
  C    10.163209  0.306684  2.322199
  C    10.116049  3.937276  2.896097
  N    12.413951  0.986392  2.277839
  N    12.191469  4.869576  2.577603
  N    10.378627  0.127013  1.021327
  N    10.305750  3.518356  1.618227
  N     9.548533  0.776630  4.821371
  N     9.445561  4.548387  5.372342
  S     8.909337  0.016301  3.496043
  S     8.738121  3.847675  4.026810
  S    12.029898  0.481422  0.738421
  S    11.762510  4.211071  1.144754
  S    11.165889  1.280023  4.707454
  S    10.971711  5.124101  5.090355
