16  
    
  C     7.234877 -1.324512  2.292565
  C     7.807463  2.865350  2.345199
  C     6.126033 -1.831871  1.518486
  C     6.670193  2.280854  1.703492
  N     8.291204 -0.934550  1.595223
  N     8.838140  3.057421  1.531127
  N     6.331772 -1.802119  0.228071
  N     6.843832  2.144217  0.401689
  N     5.214487 -1.857273  3.940306
  N     6.015336  2.472030  4.087044
  S     4.737355 -2.390969  2.491375
  S     5.271221  2.071084  2.721699
  S     7.851829 -1.179178  0.001288
  S     8.288473  2.625844 -0.008653
  S     6.780994 -1.259177  4.023436
  S     7.586730  3.007819  4.018800
