16  
    
  C     4.528898 -2.519316  1.497830
  C     5.225559  1.502311  1.699756
  C     3.260405 -2.752168  0.847678
  C     3.974369  1.079590  1.168257
  N     5.578369 -2.406896  0.687144
  N     6.231383  1.630671  0.826661
  N     3.340551 -2.772771 -0.481777
  N     3.989420  0.988452 -0.175586
  N     2.739252 -2.761566  3.330696
  N     3.643718  1.377947  3.665500
  S     1.949971 -3.159361  1.944183
  S     2.669528  1.186526  2.362460
  S     4.949146 -2.436016 -0.891030
  S     5.489366  1.452918 -0.617535
  S     4.394159 -2.702384  3.243197
  S     5.229085  1.685853  3.373078
