16  
    
  C     8.722658 -0.118944  2.497434
  C     8.497303  3.147574  2.550849
  C     7.575888 -0.697060  1.788969
  C     7.393919  2.657684  1.825213
  N     9.702484  0.174761  1.692203
  N     9.579464  3.285892  1.822582
  N     7.706541 -0.788807  0.477339
  N     7.617639  2.394332  0.557737
  N     7.042049 -0.781554  4.433222
  N     6.717950  2.877147  4.369797
  S     6.247864 -0.962412  3.000638
  S     6.054232  2.402374  2.913703
  S     9.238606 -0.223909  0.132374
  S     9.194476  2.835645  0.238866
  S     8.616285 -0.108330  4.302001
  S     8.342861  3.276530  4.271485
