16  
    
  C     3.639946 -2.994447  1.138696
  C     3.927705  0.827465  1.490523
  C     2.460958 -3.597210  0.576018
  C     2.733096  0.328326  0.822197
  N     4.621114 -2.825544  0.228696
  N     4.921768  1.083650  0.648628
  N     2.528515 -3.813106 -0.738789
  N     2.829774  0.152785 -0.495000
  N     1.827722 -2.933312  2.975696
  N     2.239285  0.540961  3.371461
  S     1.152505 -3.839043  1.720613
  S     1.464552  0.051186  1.955282
  S     4.050068 -3.429957 -1.225318
  S     4.388684  0.593781 -0.825023
  S     3.383556 -2.395720  2.740057
  S     3.772588  1.109921  3.149989
