16  
    
  C    10.956859  0.663332  2.842997
  C    11.064413  4.181088  3.278331
  C     9.857668 -0.114529  2.392185
  C     9.798517  3.904718  2.627848
  N    11.912723  0.925475  1.944914
  N    12.118238  4.305685  2.509181
  N     9.935905 -0.386910  1.077487
  N     9.952454  3.850506  1.300713
  N     9.466546  0.603972  4.833545
  N     9.297875  4.366130  5.114274
  S     8.621946 -0.174549  3.612744
  S     8.511489  3.787405  3.758110
  S    11.389820  0.188841  0.601332
  S    11.524541  4.212231  0.922672
  S    11.010702  1.067884  4.486348
  S    10.975647  4.416982  5.019127
