16  
    
  C     6.338668 -1.717989  1.660793
  C     6.416945  2.173139  1.990226
  C     5.204375 -2.306654  1.013940
  C     5.335554  1.450385  1.381420
  N     7.299647 -1.333104  0.872064
  N     7.459011  2.368406  1.172339
  N     5.390919 -2.528600 -0.271176
  N     5.412874  1.230772  0.069821
  N     4.510702 -1.843480  3.455529
  N     4.546654  1.996219  3.785656
  S     3.826465 -2.516042  2.076782
  S     3.958262  1.264276  2.404183
  S     6.929808 -1.935324 -0.644231
  S     6.968295  1.774760 -0.345463
  S     6.102607 -1.428533  3.363410
  S     6.113441  2.590962  3.616226
