16  
    
  C     7.302357 -1.698619  2.231781
  C     7.421738  2.345110  2.161535
  C     6.035723 -1.908791  1.547463
  C     6.219375  1.813790  1.580737
  N     8.376624 -1.615774  1.438981
  N     8.421467  2.427483  1.292606
  N     6.211492 -2.158542  0.269102
  N     6.346479  1.556158  0.269625
  N     5.484586 -1.994616  4.119744
  N     5.774076  2.246482  4.081598
  S     4.776280 -2.279101  2.648591
  S     4.935828  1.692856  2.753717
  S     7.819635 -1.932658 -0.106330
  S     7.828939  1.974361 -0.154511
  S     7.044334 -1.556242  3.989690
  S     7.367461  2.591915  3.900114
