16  
    
  C     8.716466 -0.102640  2.505808
  C     8.488954  3.148549  2.552788
  C     7.578661 -0.699865  1.797198
  C     7.375009  2.654394  1.818575
  N     9.707874  0.177724  1.687103
  N     9.573321  3.293687  1.816486
  N     7.705828 -0.778904  0.479092
  N     7.624005  2.379603  0.552870
  N     7.056529 -0.780749  4.424193
  N     6.714247  2.877886  4.369777
  S     6.246419 -0.963553  3.000574
  S     6.069697  2.396769  2.912707
  S     9.236906 -0.218097  0.133607
  S     9.189103  2.844482  0.240337
  S     8.625159 -0.111647  4.307026
  S     8.339203  3.278837  4.274858
