16  
    
  C     7.199353 -1.338961  2.216376
  C     7.450875  2.194951  2.176544
  C     6.098952 -2.055676  1.686191
  C     6.235120  1.746946  1.527346
  N     8.247966 -1.322424  1.364613
  N     8.492144  2.198646  1.366436
  N     6.214713 -2.465227  0.425353
  N     6.367847  1.406868  0.245228
  N     5.476404 -1.562896  4.074432
  N     5.703839  2.118558  4.123149
  S     4.735115 -2.132997  2.682974
  S     4.944770  1.592727  2.698527
  S     7.722452 -2.006461 -0.020675
  S     8.001558  1.739431 -0.082487
  S     7.066573 -1.097005  3.882448
  S     7.263776  2.647628  3.851393
