16  
    
  C    11.343827  0.986848  3.233228
  C    11.518573  4.714286  3.076565
  C    10.065314  0.439149  2.681514
  C    10.355933  4.155530  2.384040
  N    12.356307  1.027595  2.375041
  N    12.552072  4.965340  2.253401
  N    10.141468  0.319829  1.382402
  N    10.507274  3.945405  1.104816
  N     9.709226  0.729224  5.179930
  N     9.777463  4.331489  4.911963
  S     8.746498  0.319707  3.866906
  S     9.070205  3.848137  3.473890
  S    11.689166  0.692940  0.912844
  S    12.074125  4.379084  0.768615
  S    11.270348  1.291391  4.920972
  S    11.356290  4.959270  4.768810
