16  
    
  C     5.441655 -2.234074  1.855937
  C     5.233547  1.639523  1.596918
  C     4.311163 -2.708507  1.112979
  C     4.202674  1.031685  0.774583
  N     6.472356 -2.006049  1.064016
  N     6.281910  2.076535  0.904748
  N     4.450275 -2.706477 -0.219296
  N     4.484970  0.854638 -0.508080
  N     3.643825 -2.704874  3.560122
  N     3.377811  1.022412  3.245495
  S     2.904913 -3.013489  2.099804
  S     2.807366  0.654152  1.721999
  S     6.041109 -2.296648 -0.488123
  S     5.997429  1.604526 -0.720489
  S     5.207522 -2.201072  3.576327
  S     4.863575  1.681635  3.360233
