16  
    
  C    12.457439  1.619605  3.354676
  C    12.799714  5.486282  3.406447
  C    11.287938  1.240525  2.689697
  C    11.582822  5.038368  2.722569
  N    13.457759  1.951291  2.544095
  N    13.869111  5.682272  2.648159
  N    11.387699  1.165355  1.369246
  N    11.822601  4.909288  1.404176
  N    10.819504  1.153902  5.238554
  N    10.963052  4.925899  5.283298
  S    10.066303  0.613419  3.789466
  S    10.311403  4.515289  3.783268
  S    12.952341  1.699291  1.010454
  S    13.419221  5.252889  1.135578
  S    12.443223  1.560850  5.144808
  S    12.546012  5.567553  5.128907
