16  
    
  C    12.125358  1.501113  3.406374
  C    12.101037  4.988098  3.795534
  C    11.009899  0.843859  2.848983
  C    10.861100  4.655645  3.218485
  N    13.146797  1.850527  2.641993
  N    12.992244  5.409667  2.916874
  N    11.095101  0.772122  1.540002
  N    10.877774  4.623194  1.860670
  N    10.280138  1.099591  5.267789
  N    10.607944  4.662473  5.806679
  S     9.675200  0.391801  3.881834
  S     9.677842  4.371956  4.495091
  S    12.550950  1.372452  1.098325
  S    12.355731  5.199009  1.421046
  S    11.819084  1.747651  5.101087
  S    12.187370  5.045166  5.537205
