16  
    
  C     3.216175 -2.693675  1.654460
  C     3.572873  0.853624  1.411375
  C     2.133429 -3.320323  0.889061
  C     2.355851  0.377698  0.818732
  N     4.272182 -2.336529  0.911568
  N     4.599109  1.121894  0.605897
  N     2.406526 -3.457777 -0.423035
  N     2.457207  0.373660 -0.502237
  N     1.343911 -3.501085  3.337579
  N     1.977841  0.161311  3.378044
  S     0.749163 -3.797942  1.782993
  S     1.149916 -0.012626  1.937757
  S     3.882253 -2.654384 -0.693743
  S     3.913224  0.867839 -0.950290
  S     2.956676 -2.917002  3.382275
  S     3.533756  0.647911  3.151582
