16  
    
  C     9.682197  0.126304  2.808791
  C     9.830731  3.501063  2.658847
  C     8.565269 -0.488476  2.174085
  C     8.629405  3.116365  2.043326
  N    10.650027  0.473547  1.934522
  N    10.761079  3.927473  1.821099
  N     8.627799 -0.452099  0.818096
  N     8.633546  3.102777  0.701845
  N     8.241103 -0.758159  4.699164
  N     8.128361  3.217307  4.641219
  S     7.331467 -1.027819  3.318154
  S     7.336139  2.859355  3.255205
  S    10.089342  0.168133  0.417066
  S    10.150819  3.675725  0.294414
  S     9.700319  0.055741  4.531702
  S     9.689262  3.733343  4.328517
