16  
    
  C    10.270284  0.622979  2.982332
  C    10.671160  4.539681  2.875324
  C     9.160958 -0.006099  2.367882
  C     9.442278  4.114846  2.283582
  N    11.205041  1.026048  2.142515
  N    11.623591  4.757476  1.992365
  N     9.318457 -0.200481  1.069060
  N     9.415135  4.100654  0.938896
  N     8.718283  0.065341  4.957299
  N     9.080623  3.976820  4.822959
  S     7.972874 -0.444838  3.553794
  S     8.158500  3.936755  3.444487
  S    10.735009  0.496360  0.657253
  S    11.007555  4.454609  0.503357
  S    10.265840  0.638030  4.733462
  S    10.681279  4.405163  4.615902
