16  
    
  C    11.323766  0.931302  2.992968
  C    11.239947  4.688103  3.401802
  C    10.182213  0.292083  2.343883
  C    10.152779  3.950084  2.866432
  N    12.405013  1.005994  2.270352
  N    12.254079  4.874303  2.528695
  N    10.325235  0.101265  1.048674
  N    10.348302  3.518590  1.609243
  N     9.603219  0.800820  4.842132
  N     9.446861  4.547128  5.351139
  S     8.915622  0.079665  3.523020
  S     8.761323  3.818949  3.998673
  S    11.980005  0.522318  0.787084
  S    11.786894  4.240271  1.112493
  S    11.178521  1.270527  4.692137
  S    10.978221  5.129308  5.076414
