16  
    
  C     8.368657 -0.880896  2.422177
  C     8.175430  2.828620  2.304832
  C     7.133498 -1.497699  2.024267
  C     6.998450  2.274478  1.629245
  N     9.313529 -0.926513  1.508161
  N     9.249150  2.928542  1.536300
  N     7.165959 -1.943272  0.784797
  N     7.191598  1.981831  0.351410
  N     6.750349 -0.749068  4.500846
  N     6.235419  2.755575  4.010035
  S     5.877970 -1.399507  3.281731
  S     5.603791  2.051194  2.670328
  S     8.686701 -1.614297  0.141354
  S     8.751317  2.476868  0.065957
  S     8.392548 -0.423460  4.154659
  S     7.842017  3.128749  3.979939
