16  
    
  C    12.879212  1.686068  3.419462
  C    12.305792  5.052201  3.357060
  C    11.638579  1.229993  2.839720
  C    11.156007  4.696463  2.587249
  N    13.819496  1.727531  2.517193
  N    13.453549  5.280900  2.689541
  N    11.636548  0.957026  1.537935
  N    11.435226  4.513255  1.338784
  N    11.189785  1.598388  5.355815
  N    10.377449  4.760121  5.142288
  S    10.262168  1.225134  4.014051
  S     9.731117  4.305518  3.654886
  S    13.260630  1.176111  1.094071
  S    12.996747  4.939458  1.095951
  S    12.827827  1.929775  5.161103
  S    12.047837  5.073703  5.053518
