16  
    
  C     8.404813 -0.918855  2.439974
  C     8.152376  2.941266  2.363208
  C     7.130067 -1.404983  1.980839
  C     7.018101  2.347692  1.699564
  N     9.392052 -0.911747  1.555365
  N     9.177751  3.136951  1.561983
  N     7.133150 -1.816852  0.732148
  N     7.236963  2.078146  0.437592
  N     6.702065 -0.802039  4.473418
  N     6.281196  2.574455  4.148945
  S     5.852258 -1.437595  3.197708
  S     5.627706  2.065364  2.674909
  S     8.671455 -1.580502  0.178696
  S     8.759123  2.468123  0.028019
  S     8.252778 -0.385815  4.141988
  S     7.843372  3.242802  4.055398
