16  
    
  C     5.931603 -2.170272  1.786348
  C     6.070235  1.706291  1.875429
  C     4.648626 -2.448627  1.134252
  C     4.716799  1.667879  1.354757
  N     7.014601 -2.296398  1.024380
  N     7.008569  1.429348  0.951633
  N     4.741974 -2.626821 -0.173990
  N     4.698408  1.349227  0.051322
  N     4.107158 -2.247828  3.690850
  N     4.536868  2.156919  3.905715
  S     3.340943 -2.566849  2.236630
  S     3.585047  2.074409  2.555315
  S     6.412092 -2.439296 -0.539784
  S     6.221567  1.220173 -0.445354
  S     5.795763 -2.084407  3.515941
  S     6.153924  1.933504  3.615504
