16  
    
  C    12.697242  1.627532  3.321556
  C    12.563022  5.338976  3.262848
  C    11.473699  1.262216  2.761755
  C    11.359730  4.830215  2.728710
  N    13.697028  1.899429  2.449984
  N    13.480007  5.554804  2.319239
  N    11.562923  1.069512  1.441701
  N    11.311944  4.695836  1.373348
  N    11.067498  1.526327  5.299735
  N    11.050409  4.788304  5.250037
  S    10.331214  0.851205  3.947339
  S    10.158102  4.443774  3.865576
  S    13.045738  1.546529  0.955869
  S    12.875714  5.115989  0.890135
  S    12.759425  1.672047  5.109801
  S    12.501693  5.488327  4.970873
