16  
    
  C    10.986424  0.760002  3.331934
  C    11.282057  4.201578  3.228421
  C     9.847732  0.243465  2.570962
  C     9.998869  3.855624  2.689443
  N    12.092888  0.857237  2.563734
  N    12.173640  4.515057  2.264042
  N     9.963413  0.146398  1.241470
  N     9.923330  3.770983  1.360726
  N     9.183829 -0.006493  5.034657
  N     9.572669  3.780058  5.207871
  S     8.531964 -0.340203  3.504057
  S     8.720139  3.494045  3.808654
  S    11.587852  0.546208  0.969215
  S    11.471225  4.141606  0.838270
  S    10.741738  0.637839  5.059194
  S    11.154384  4.280376  5.001372
