16  
    
  C    10.245647  0.396448  2.576447
  C    10.517181  4.212307  2.991237
  C     9.123795 -0.300618  1.998376
  C     9.250315  3.764705  2.413584
  N    11.332689  0.481805  1.811626
  N    11.520973  4.302787  2.114234
  N     9.302234 -0.607776  0.710064
  N     9.385111  3.347758  1.162815
  N     8.370794  0.507513  4.283585
  N     8.817405  4.327550  4.891825
  S     7.721701 -0.133291  2.899490
  S     7.910731  3.918152  3.590759
  S    10.895044 -0.168894  0.322206
  S    10.909750  3.737128  0.646696
  S     9.948132  0.951506  4.166809
  S    10.463222  4.595856  4.635988
