16  
    
  C    11.635888  1.194578  2.853456
  C    11.820454  4.990010  3.130031
  C    10.408450  0.636505  2.324972
  C    10.682042  4.332320  2.542821
  N    12.536998  1.500788  1.925481
  N    12.820885  5.125933  2.270164
  N    10.459948  0.370601  1.050010
  N    10.774241  4.181139  1.222297
  N    10.096400  0.819249  4.895154
  N    10.074038  4.705806  5.026294
  S     9.274648  0.270872  3.523981
  S     9.297622  4.104050  3.677328
  S    11.923845  0.960293  0.483224
  S    12.321275  4.653772  0.797713
  S    11.714153  1.215514  4.634775
  S    11.534825  5.391453  4.781652
