16  
    
  C     9.910182 -0.189715  2.974917
  C    10.221778  3.486859  3.011134
  C     8.824419 -0.652756  2.151876
  C     8.957745  3.762740  2.419951
  N    10.996120  0.096626  2.304531
  N    11.256578  3.486678  2.177561
  N     9.012704 -0.528517  0.844333
  N     8.987210  3.828800  1.092985
  N     8.088092 -0.634962  4.649125
  N     8.558157  3.555955  4.916091
  S     7.355515 -0.921399  3.168270
  S     7.684007  3.879266  3.567132
  S    10.637398 -0.015439  0.667677
  S    10.619746  3.778877  0.690066
  S     9.712063 -0.178093  4.720154
  S    10.149794  3.230211  4.758818
