16  
    
  C    11.342982  0.453953  3.019517
  C    11.114286  4.438302  3.481149
  C    10.220015 -0.156801  2.316474
  C     9.802078  4.239151  2.863417
  N    12.472961  0.575694  2.333605
  N    12.074284  4.459621  2.559159
  N    10.462430 -0.418731  1.044215
  N     9.813843  3.973525  1.528431
  N     9.310583  0.381843  4.759419
  N     9.429213  4.402132  5.429899
  S     8.787828 -0.349357  3.367143
  S     8.514703  4.323326  4.040918
  S    12.084567  0.140393  0.770004
  S    11.445128  4.014032  1.141157
  S    10.878812  0.904098  4.612305
  S    11.064138  4.678417  5.193964
