16  
    
  C    11.538042  1.409419  2.868856
  C    11.447278  5.045181  3.156291
  C    10.357310  0.717822  2.386986
  C    10.330068  4.534539  2.385714
  N    12.458826  1.725196  1.947461
  N    12.566218  5.323795  2.449440
  N    10.471004  0.414633  1.077570
  N    10.548777  4.392288  1.101586
  N    10.217445  0.611559  4.978642
  N     9.670693  4.336652  4.830967
  S     9.366079  0.010123  3.684975
  S     9.010617  3.982927  3.338297
  S    11.950104  0.916768  0.542131
  S    12.081346  4.977190  0.849447
  S    11.494795  1.608053  4.649655
  S    11.206180  5.014662  4.841993
