16  
    
  C    10.626214  0.816715  2.920960
  C    10.627535  4.387647  2.843886
  C     9.467798  0.189049  2.403326
  C     9.594725  3.629158  2.221569
  N    11.648258  0.869521  2.080701
  N    11.664355  4.610252  2.074608
  N     9.629385 -0.168356  1.142243
  N     9.908694  3.099200  1.005959
  N     8.934892  0.684871  4.863687
  N     8.770184  4.427287  4.624328
  S     8.071984  0.239186  3.510508
  S     8.214227  3.481602  3.375499
  S    11.151691  0.159980  0.687259
  S    11.372871  3.832079  0.606636
  S    10.503022  1.222160  4.585389
  S    10.297013  5.087568  4.356704
