16  
    
  C     5.454513 -2.119659  1.594678
  C     5.256647  1.568438  1.561137
  C     4.307682 -2.587670  0.842099
  C     4.142771  0.915809  0.881364
  N     6.542440 -2.133807  0.873228
  N     6.402427  1.694391  0.880665
  N     4.542595 -2.787229 -0.437810
  N     4.444089  0.563745 -0.365781
  N     3.502622 -2.448486  3.248278
  N     3.133278  1.751223  3.067921
  S     2.892817 -2.894763  1.798265
  S     2.651513  0.805112  1.841961
  S     6.141289 -2.443318 -0.695808
  S     5.982758  1.085428 -0.653621
  S     5.103329 -2.046090  3.261223
  S     4.693906  2.272516  3.044919
