16  
    
  C     6.319267 -1.683207  2.219793
  C     6.581937  2.152870  2.164925
  C     5.160066 -2.197484  1.548904
  C     5.371543  1.596477  1.576763
  N     7.345894 -1.407381  1.393310
  N     7.519072  2.526864  1.294887
  N     5.215542 -2.146153  0.198087
  N     5.441476  1.511639  0.259489
  N     4.589743 -2.128229  4.058566
  N     4.918636  1.747993  4.106007
  S     3.788822 -2.493169  2.606043
  S     4.184799  1.092212  2.713597
  S     6.752851 -1.600382 -0.163781
  S     6.942245  2.137434 -0.187922
  S     6.221825 -1.770611  3.924897
  S     6.506751  2.282872  3.880709
