16  
    
  C    10.988471  0.595949  3.308109
  C    11.145148  4.357305  3.326906
  C     9.803301  0.238688  2.569002
  C     9.931106  3.865025  2.701207
  N    12.021856  0.973608  2.541431
  N    12.104546  4.528597  2.433415
  N    10.045157  0.194054  1.265999
  N     9.925937  3.733656  1.374211
  N     9.112059  0.127307  4.989685
  N     9.577632  3.850385  5.242071
  S     8.503946 -0.346223  3.523819
  S     8.694699  3.503761  3.889081
  S    11.588313  0.592043  0.993048
  S    11.423857  4.173282  0.901191
  S    10.699343  0.588722  4.990241
  S    11.172456  4.255878  5.017760
