16  
    
  C     8.974110 -0.345407  2.353987
  C     9.470990  3.332653  2.700670
  C     7.839621 -0.888187  1.707193
  C     8.178657  3.006188  2.127849
  N    10.054534 -0.240439  1.589825
  N    10.537466  3.191274  1.902003
  N     8.071542 -1.283293  0.450789
  N     8.302793  2.703283  0.824991
  N     7.144624 -0.345738  4.113069
  N     7.776852  3.289219  4.648032
  S     6.469971 -1.081872  2.821711
  S     6.859846  2.943703  3.288231
  S     9.632583 -0.902954  0.149623
  S     9.901035  2.815364  0.438153
  S     8.727744  0.143103  3.960882
  S     9.397353  3.688514  4.423650
