16  
    
  C    12.698594  1.746605  3.561233
  C    12.874063  5.532997  3.745990
  C    11.530404  1.197489  2.998263
  C    11.699957  4.854972  3.089999
  N    13.811493  1.726634  2.845794
  N    13.865354  5.748241  2.901810
  N    11.689244  0.864051  1.724962
  N    11.876051  4.530976  1.840251
  N    10.844879  1.621215  5.367687
  N    11.190531  5.335963  5.614960
  S    10.123029  1.033271  4.011298
  S    10.359543  4.764512  4.321158
  S    13.342697  1.080741  1.395076
  S    13.375602  5.168751  1.429979
  S    12.462157  1.945664  5.301617
  S    12.691822  5.852538  5.428778
