16  
    
  C    10.131573  0.607505  2.897037
  C    10.726327  4.335952  2.898976
  C     9.021722 -0.067922  2.252340
  C     9.514331  4.116962  2.112065
  N    11.065438  0.995064  2.059674
  N    11.792103  4.645310  2.166318
  N     9.077338 -0.009534  0.919877
  N     9.701313  4.187869  0.789592
  N     8.517484  0.126383  4.790042
  N     8.943257  3.860838  4.639571
  S     7.835151 -0.599897  3.440590
  S     8.146962  3.677357  3.176781
  S    10.521379  0.634892  0.553921
  S    11.360320  4.549719  0.609350
  S    10.133921  0.351164  4.644745
  S    10.538347  4.265164  4.575622
