16  
    
  C    10.005679 -0.201568  2.884606
  C    10.065860  3.795456  2.688107
  C     8.757577 -0.526736  2.176725
  C     8.811482  3.196987  2.205862
  N    11.024191 -0.030754  2.048499
  N    11.003491  3.995372  1.769643
  N     8.853284 -0.683920  0.860720
  N     8.846370  2.873781  0.907812
  N     8.189793 -0.453743  4.676231
  N     8.569077  3.554186  4.809210
  S     7.388482 -0.797117  3.235906
  S     7.689066  2.878013  3.519957
  S    10.457703 -0.289806  0.472228
  S    10.403324  3.430565  0.378124
  S     9.876268 -0.180830  4.645443
  S    10.164350  3.981192  4.413956
