16  
    
  C     4.103587 -2.894487  1.620862
  C     4.164643  1.271121  1.560795
  C     2.881474 -3.298168  0.932115
  C     2.869347  0.986094  0.959065
  N     5.167002 -2.878939  0.824065
  N     5.190679  1.275486  0.712298
  N     2.971511 -3.423474 -0.373973
  N     2.899592  0.922887 -0.371495
  N     2.133729 -2.637480  3.345804
  N     2.442810  1.302403  3.515909
  S     1.508559 -3.392140  2.004839
  S     1.635969  0.983917  2.110313
  S     4.639851 -3.290294 -0.757204
  S     4.465975  1.037464 -0.794501
  S     3.784898 -2.309358  3.235874
  S     4.101698  1.650492  3.233368
