16  
    
  C    11.361563  0.945572  3.215081
  C    11.441277  4.766012  3.124085
  C    10.129518  0.460443  2.587916
  C    10.272911  4.142302  2.499526
  N    12.286744  1.189248  2.331843
  N    12.544177  4.897891  2.353456
  N    10.214753  0.131829  1.326152
  N    10.527024  3.868425  1.248019
  N     9.649442  0.866646  5.155402
  N     9.697049  4.367609  5.032409
  S     8.903585  0.312567  3.782709
  S     9.011156  3.751936  3.667452
  S    11.707895  0.651987  0.847292
  S    12.072162  4.340073  0.805588
  S    11.247045  1.237974  4.878904
  S    11.194786  5.021293  4.864127
