16  
    
  C     5.733047 -1.983503  1.643123
  C     5.206095  1.464525  1.716278
  C     4.483416 -2.501960  1.131754
  C     4.057959  0.869310  1.153949
  N     6.773258 -2.001395  0.810466
  N     6.149653  1.684200  0.807669
  N     4.504556 -2.781107 -0.179661
  N     4.114372  0.567966 -0.140655
  N     4.178832 -2.336733  3.638081
  N     3.590345  1.179866  3.659253
  S     3.232280 -2.665798  2.377515
  S     2.756799  0.628664  2.302251
  S     6.062559 -2.394460 -0.696723
  S     5.553189  1.190923 -0.648103
  S     5.717313 -1.833174  3.397926
  S     5.178110  1.517648  3.453262
