16  
    
  C     6.183435 -1.994843  1.672465
  C     6.292705  1.856956  1.861880
  C     4.942905 -2.425815  1.048027
  C     5.090516  1.708263  1.159424
  N     7.169427 -1.688748  0.823967
  N     7.344979  1.928101  1.058083
  N     5.060986 -2.650789 -0.265754
  N     5.214681  1.731778 -0.187081
  N     4.340168 -1.774628  3.475517
  N     4.454816  1.895818  3.696396
  S     3.572994 -2.499139  2.156325
  S     3.675927  1.860128  2.212255
  S     6.657350 -2.288248 -0.662292
  S     6.801119  1.801973 -0.470656
  S     5.982694 -1.494203  3.335076
  S     6.119798  1.894852  3.587649
