16  
    
  C    10.951234  0.607996  3.295407
  C    11.084222  4.368084  3.292906
  C     9.842143  0.139580  2.539698
  C     9.874802  3.862721  2.711406
  N    11.994040  0.961596  2.561945
  N    12.081460  4.520213  2.420740
  N    10.000712  0.162225  1.220148
  N     9.906111  3.712148  1.394766
  N     9.104722  0.168023  5.008132
  N     9.557485  3.885487  5.264182
  S     8.484322 -0.319442  3.531655
  S     8.663624  3.498751  3.919419
  S    11.607938  0.639244  0.969467
  S    11.448209  4.200946  0.941246
  S    10.694717  0.579927  4.979422
  S    11.156755  4.283592  5.037762
