16  
    
  C     9.861269 -0.245241  2.504144
  C     9.796545  3.651655  2.479420
  C     8.497748 -0.609466  2.011760
  C     8.598426  3.071070  1.981416
  N    10.674408  0.150712  1.557962
  N    10.784687  3.954917  1.617658
  N     8.460418 -0.649205  0.726623
  N     8.609941  3.112424  0.657531
  N     8.256910 -0.676154  4.537496
  N     8.236026  2.976758  4.471857
  S     7.293284 -0.960819  3.224503
  S     7.325950  2.661400  3.172011
  S     9.896600 -0.151270  0.104195
  S    10.062437  3.693369  0.186686
  S     9.827354 -0.061291  4.258936
  S     9.672378  3.774408  4.195896
