16  
    
  C     7.278008 -1.098017  2.070952
  C     7.705073  2.822383  2.199648
  C     6.056197 -1.477127  1.391926
  C     6.528468  2.249984  1.621597
  N     8.343181 -0.826605  1.259368
  N     8.689081  2.939916  1.290109
  N     6.260252 -1.695183  0.072222
  N     6.583490  2.123356  0.287402
  N     5.564655 -1.707589  3.914017
  N     5.988213  2.750226  4.079114
  S     4.818045 -1.942360  2.455743
  S     5.263846  2.036336  2.791679
  S     7.832133 -1.340244 -0.231969
  S     8.102133  2.423970 -0.175999
  S     7.159477 -1.170506  3.814377
  S     7.609125  3.199543  3.901937
