16  
    
  C    11.964848  1.434439  3.394327
  C    12.256983  5.223869  3.198776
  C    10.885601  0.805654  2.734824
  C    11.008514  4.808142  2.605958
  N    13.097970  1.523629  2.694515
  N    13.301418  4.981328  2.365396
  N    11.074663  0.487895  1.464073
  N    11.067872  4.358208  1.366180
  N    10.158478  1.214961  5.199968
  N    10.455234  5.354617  5.081620
  S     9.465375  0.708844  3.780772
  S     9.631403  4.841035  3.688335
  S    12.714216  0.763716  1.226423
  S    12.713422  4.447157  0.921203
  S    11.770905  1.604948  5.150145
  S    12.101857  5.663936  4.839289
