16  
    
  C     8.441713 -0.956411  2.449706
  C     8.206148  2.608902  2.201997
  C     7.171806 -1.510224  2.037630
  C     7.041824  2.231799  1.485746
  N     9.405591 -0.969752  1.525445
  N     9.318748  2.685982  1.481693
  N     7.150061 -1.906343  0.764005
  N     7.249906  1.902651  0.228708
  N     6.782808 -0.666296  4.491191
  N     6.292213  2.443502  3.866650
  S     5.882389 -1.336324  3.242860
  S     5.605512  2.094280  2.403082
  S     8.647848 -1.551262  0.104441
  S     8.830757  2.262497 -0.112084
  S     8.383648 -0.409421  4.194267
  S     7.864362  2.827074  3.859613
