16  
    
  C    12.106383  1.282238  3.325498
  C    12.311246  5.070511  3.478131
  C    10.903926  0.916479  2.627671
  C    11.017607  4.624259  2.901324
  N    13.175343  1.297915  2.567766
  N    13.303825  5.138784  2.630581
  N    11.089636  0.517064  1.364394
  N    11.085104  4.524608  1.569526
  N    10.277498  1.347454  5.115935
  N    10.530784  5.325649  5.360666
  S     9.535452  0.849801  3.758123
  S     9.678385  4.773248  4.026901
  S    12.708431  0.835966  1.070662
  S    12.632130  4.752320  1.139834
  S    11.877368  1.628933  4.992974
  S    12.169039  5.506157  5.110327
