16  
    
  C     4.736832 -1.961470  1.887453
  C     4.158344  1.148802  1.290597
  C     3.549921 -2.483048  1.230817
  C     2.903954  0.791070  0.576001
  N     5.816210 -1.941463  1.116586
  N     5.263832  1.179218  0.528457
  N     3.713968 -2.775577 -0.052006
  N     3.077723  0.788887 -0.765977
  N     2.864358 -2.174226  3.689062
  N     2.336403  1.198132  3.031847
  S     2.169042 -2.616079  2.254263
  S     1.536473  0.605231  1.664509
  S     5.288050 -2.336059 -0.471329
  S     4.684407  1.079887 -1.039568
  S     4.470540 -1.753487  3.588794
  S     3.994249  1.261515  3.035055
