16  
    
  C    12.131487  1.238557  3.330549
  C    12.252567  5.031971  3.418179
  C    10.888700  0.768956  2.721374
  C    11.040637  4.658660  2.835852
  N    13.276183  1.193781  2.614102
  N    13.256665  5.113900  2.509620
  N    11.081198  0.595644  1.410703
  N    11.062302  4.417467  1.531355
  N    10.231235  1.401098  5.152421
  N    10.530905  5.356139  5.282551
  S     9.468959  0.830695  3.760461
  S     9.714600  4.810500  3.926629
  S    12.686333  0.822439  1.054199
  S    12.619252  4.699078  1.049794
  S    11.885703  1.660121  4.976885
  S    12.171300  5.527185  5.105783
