16  
    
  C    11.353615  0.671886  2.988429
  C    11.065391  4.555194  3.547026
  C    10.343500 -0.073883  2.226725
  C     9.788305  4.141257  2.992144
  N    12.491937  0.901566  2.321601
  N    12.097880  4.601180  2.677267
  N    10.708310 -0.310531  0.943237
  N     9.907511  3.750798  1.739078
  N     9.401048  0.353608  4.607199
  N     9.399534  4.540516  5.556918
  S     8.777754 -0.130481  3.125331
  S     8.542545  4.101760  4.199730
  S    12.335004  0.259733  0.823823
  S    11.485690  4.076503  1.274207
  S    10.973058  0.899583  4.686752
  S    10.921771  5.116254  5.237486
