16  
    
  C    12.846782  1.516676  3.367347
  C    12.479189  5.146839  3.294279
  C    11.623572  1.141556  2.777063
  C    11.224175  4.696317  2.697535
  N    13.774647  1.757318  2.430515
  N    13.496685  5.367241  2.470314
  N    11.607460  0.947638  1.448433
  N    11.353895  4.625785  1.353682
  N    11.272747  1.355871  5.347369
  N    10.688786  4.893152  5.162143
  S    10.323271  0.968674  3.997372
  S     9.900689  4.453687  3.758193
  S    13.112661  1.360813  0.925109
  S    12.911658  5.139132  0.933939
  S    12.863890  1.979881  5.039357
  S    12.260713  5.284100  4.999169
