16  
    
  C    12.658476  1.520588  3.481751
  C    12.897759  5.576532  3.714658
  C    11.454603  0.936041  2.878865
  C    11.734817  5.067044  2.932445
  N    13.625060  1.762334  2.626074
  N    13.996992  5.778294  3.005501
  N    11.567281  0.621195  1.595008
  N    11.972149  4.892588  1.661576
  N    10.798913  1.347558  5.324094
  N    10.874235  5.101509  5.458225
  S    10.166889  0.566717  3.969444
  S    10.373225  4.553507  3.920708
  S    13.078836  1.195954  1.150713
  S    13.550771  5.326094  1.379798
  S    12.374583  1.925482  5.147322
  S    12.495875  5.698247  5.406097
