16  
    
  C    12.551533  1.639916  3.500638
  C    12.367566  5.307148  3.480743
  C    11.315864  1.016025  2.924426
  C    11.193238  4.777244  2.878434
  N    13.527383  1.777892  2.626536
  N    13.336419  5.476553  2.621540
  N    11.367974  0.895510  1.614254
  N    11.228393  4.505894  1.592082
  N    10.861415  1.247464  5.421213
  N    10.644888  4.912139  5.446404
  S    10.020797  0.782271  4.090911
  S     9.840497  4.629720  3.989484
  S    12.896762  1.359814  1.090232
  S    12.694845  4.962338  1.112884
  S    12.429188  1.807127  5.246040
  S    12.226421  5.490912  5.220666
