16  
    
  C    11.062936  0.568067  3.096025
  C    11.049670  4.324623  2.935392
  C     9.912676 -0.020686  2.519880
  C     9.908442  3.725745  2.289175
  N    12.052356  0.753686  2.202400
  N    12.055475  4.540789  2.092116
  N     9.922544 -0.155377  1.184466
  N    10.120841  3.350182  1.022079
  N     9.282335  0.452511  4.971042
  N     9.105609  4.192351  4.682996
  S     8.571996 -0.164462  3.592667
  S     8.548137  3.427348  3.287211
  S    11.449088  0.293692  0.698113
  S    11.613429  3.956422  0.631636
  S    10.926695  0.687314  4.848150
  S    10.724768  4.550498  4.708839
