16  
    
  C     4.690066 -2.013760  1.906406
  C     4.172856  1.118743  1.288924
  C     3.526194 -2.462513  1.214277
  C     2.958635  0.832005  0.566199
  N     5.801981 -1.982498  1.144551
  N     5.214966  1.149968  0.480184
  N     3.725330 -2.794697 -0.067612
  N     3.014189  0.755602 -0.757582
  N     2.869249 -2.267683  3.691979
  N     2.273452  1.151848  3.006111
  S     2.132090 -2.697462  2.260334
  S     1.543512  0.583224  1.660482
  S     5.293296 -2.360350 -0.417782
  S     4.683060  1.026192 -1.082806
  S     4.428392 -1.722371  3.589426
  S     3.939873  1.284883  3.029258
