16  
    
  C     9.076006 -0.365886  2.499100
  C     9.588161  3.547672  2.866155
  C     7.852867 -0.835301  1.943455
  C     8.316437  3.097429  2.297147
  N    10.127013 -0.189525  1.618021
  N    10.585526  3.658706  1.964053
  N     7.909382 -1.011501  0.612963
  N     8.453038  2.809917  1.024225
  N     7.384844 -0.771673  4.444954
  N     7.659738  3.618711  4.643483
  S     6.562997 -1.168074  3.074753
  S     6.873421  3.213525  3.244755
  S     9.435097 -0.582366  0.154800
  S     9.942451  3.074405  0.489754
  S     8.984090 -0.420999  4.266494
  S     9.294847  3.942510  4.502457
