16  
    
  C     6.109114 -1.957482  1.670719
  C     6.218343  1.935848  1.857515
  C     4.850558 -2.330866  1.054792
  C     4.946996  1.827232  1.148699
  N     7.193016 -2.092648  0.904299
  N     7.245317  1.785641  1.033382
  N     4.985598 -2.664285 -0.231744
  N     5.058530  1.646152 -0.155927
  N     4.288717 -2.017736  3.610808
  N     4.401055  1.724352  3.694238
  S     3.580143 -2.514694  2.153306
  S     3.590586  1.994704  2.238262
  S     6.559834 -2.427687 -0.604994
  S     6.674917  1.666587 -0.510551
  S     5.929414 -1.642328  3.393031
  S     6.077200  1.852890  3.576636
