16  
    
  C     9.798858 -0.078788  2.842585
  C     9.846555  3.561091  2.717005
  C     8.594573 -0.541890  2.185647
  C     8.580188  3.211909  2.121349
  N    10.693846  0.442006  2.014769
  N    10.840084  3.723445  1.857891
  N     8.626282 -0.602431  0.866103
  N     8.534953  3.328172  0.790895
  N     8.184496 -0.730495  4.764644
  N     8.161021  3.144025  4.581689
  S     7.310704 -0.969079  3.336278
  S     7.248524  2.879925  3.191480
  S    10.102555  0.131455  0.475015
  S    10.092832  3.671808  0.278702
  S     9.576170  0.138382  4.547313
  S     9.764733  3.613070  4.475587
