16  
    
  C     4.478404 -2.590449  1.514546
  C     5.153707  1.574315  1.652083
  C     3.225474 -2.834231  0.843885
  C     3.892430  1.273279  1.063646
  N     5.507752 -2.564997  0.729410
  N     6.185777  1.616675  0.762666
  N     3.353571 -2.891610 -0.466582
  N     3.884485  1.261559 -0.268739
  N     2.732797 -2.813665  3.362508
  N     3.509599  1.180507  3.598525
  S     1.887194 -2.837779  1.933946
  S     2.674129  0.845779  2.229130
  S     4.968770 -2.632553 -0.829541
  S     5.442747  1.391654 -0.733468
  S     4.374564 -2.584426  3.274514
  S     5.097608  1.408733  3.437202
