16  
    
  C     5.485820 -2.321399  1.703548
  C     5.233657  1.600702  1.553950
  C     4.312160 -2.767161  0.957678
  C     4.118598  1.115901  0.711528
  N     6.530673 -2.088113  0.966840
  N     6.377526  1.827782  0.892093
  N     4.531370 -2.745728 -0.333225
  N     4.419511  0.926754 -0.561716
  N     3.546231 -2.588062  3.434720
  N     3.270558  1.417040  3.109970
  S     2.899166 -2.929539  1.949353
  S     2.739804  0.678695  1.694222
  S     6.138871 -2.349432 -0.604777
  S     6.053443  1.297660 -0.678568
  S     5.156884 -2.163141  3.443870
  S     4.787735  1.951849  3.155037
