16  
    
  C     9.736612  0.049829  2.784479
  C     9.915208  3.495963  2.659943
  C     8.566941 -0.574434  2.172316
  C     8.597261  3.157695  2.087256
  N    10.679157  0.473776  1.978804
  N    10.851197  3.859443  1.759900
  N     8.641088 -0.480585  0.871712
  N     8.632618  3.207644  0.769603
  N     8.216481 -0.788974  4.709438
  N     8.136993  3.172694  4.641865
  S     7.288027 -1.008940  3.343629
  S     7.255204  2.864649  3.247314
  S    10.112758  0.159031  0.443508
  S    10.122749  3.680889  0.319428
  S     9.663985  0.110310  4.537207
  S     9.708627  3.681750  4.360892
