16  
    
  C     6.176012 -1.441224  1.530899
  C     6.382725  2.201822  1.843508
  C     5.073811 -2.075498  0.881682
  C     5.220012  1.616394  1.243312
  N     7.289763 -1.495480  0.787787
  N     7.472771  2.283008  1.092524
  N     5.294036 -2.446322 -0.405473
  N     5.350116  1.304954 -0.020311
  N     4.475136 -1.872041  3.441780
  N     4.620524  1.734443  3.733534
  S     3.776963 -2.522724  1.998754
  S     3.835314  1.411381  2.281517
  S     6.868624 -2.009555 -0.724269
  S     6.955365  1.734953 -0.467615
  S     5.988213 -1.142355  3.191157
  S     6.195497  2.377966  3.587141
