16  
    
  C     3.324455 -3.048613  1.109617
  C     3.668843  0.652515  1.375231
  C     2.093559 -3.371755  0.421184
  C     2.488106  0.166059  0.692377
  N     4.403349 -2.956945  0.359089
  N     4.709045  0.760971  0.565831
  N     2.247416 -3.542818 -0.892117
  N     2.624386 -0.031931 -0.618934
  N     1.552323 -3.420506  3.022252
  N     1.789073  0.404028  3.196146
  S     0.765540 -3.528273  1.549302
  S     1.039144  0.129073  1.729251
  S     3.866178 -3.186139 -1.208061
  S     4.227948  0.451893 -0.982697
  S     3.207078 -3.228073  2.835235
  S     3.455338  0.744248  3.070401
