16  
    
  C     7.829339 -0.706221  2.171543
  C     8.357840  2.793777  2.400165
  C     6.781572 -1.489455  1.527004
  C     6.999530  2.623570  1.870055
  N     8.854103 -0.417164  1.420939
  N     9.320211  2.908344  1.502966
  N     6.958914 -1.643355  0.248417
  N     6.992965  2.530794  0.563640
  N     6.100772 -1.241961  3.920718
  N     6.643985  3.063988  4.348066
  S     5.385415 -1.731236  2.534312
  S     5.724400  2.490553  3.130772
  S     8.410178 -0.906486 -0.080141
  S     8.567189  2.826642  0.005113
  S     7.646033 -0.573490  3.829367
  S     8.318378  2.983359  4.137649
