16  
    
  C    11.391845  0.595498  3.038810
  C    11.079919  4.748418  3.558142
  C    10.328340  0.055878  2.231889
  C     9.881372  4.172630  2.994665
  N    12.481144  0.907137  2.325283
  N    12.115382  4.689174  2.719889
  N    10.683981 -0.232105  0.991298
  N     9.974569  3.702296  1.735812
  N     9.414966  0.403599  4.617445
  N     9.413842  4.491526  5.526186
  S     8.863651 -0.107723  3.114986
  S     8.563361  4.051560  4.199601
  S    12.225038  0.296768  0.817494
  S    11.515879  4.039272  1.234997
  S    11.002967  1.003821  4.702632
  S    10.906385  5.122683  5.221189
