16  
    
  C    10.504216  0.566399  3.032895
  C    10.566450  4.614512  2.744450
  C     9.270075  0.100655  2.489501
  C     9.350224  4.006243  2.251618
  N    11.466398  0.865013  2.150495
  N    11.628461  4.590522  1.931566
  N     9.376784 -0.082711  1.168858
  N     9.502606  3.664326  0.970609
  N     8.758310  0.536615  4.946873
  N     8.855131  4.543249  4.721890
  S     8.007210 -0.229061  3.677571
  S     8.126061  3.686150  3.493372
  S    10.870900  0.361384  0.688776
  S    11.084715  4.008945  0.518487
  S    10.314901  1.050518  4.682662
  S    10.474320  4.873198  4.490147
