16  
    
  C     5.292509 -2.222301  1.527161
  C     4.888692  1.714548  1.856311
  C     4.136000 -2.881303  0.935759
  C     3.866964  0.866069  1.244755
  N     6.363774 -2.068409  0.725229
  N     6.019043  1.719911  1.165470
  N     4.299611 -3.183514 -0.384617
  N     4.177727  0.394353  0.053848
  N     3.426898 -2.253489  3.298003
  N     3.087810  1.696411  3.564576
  S     2.830446 -3.122026  2.057240
  S     2.446772  0.800021  2.238636
  S     5.853940 -2.731838 -0.752771
  S     5.785147  0.862130 -0.222997
  S     5.017302 -1.769041  3.203052
  S     4.613228  2.307927  3.424197
