16  
    
  C     7.058074 -1.738581  1.590705
  C     6.787513  2.157399  1.926506
  C     5.813579 -2.248018  1.062561
  C     5.599516  1.551355  1.362170
  N     8.043115 -1.612869  0.729709
  N     7.720610  2.475107  1.012574
  N     5.829984 -2.352511 -0.247975
  N     5.661823  1.470634  0.033110
  N     5.332083 -1.845446  3.520799
  N     5.102259  1.702613  3.876892
  S     4.541409 -2.402965  2.189416
  S     4.386288  1.084228  2.499425
  S     7.391335 -1.937426 -0.723168
  S     7.092215  2.071825 -0.416032
  S     6.972178 -1.625449  3.316415
  S     6.681283  2.258032  3.647723
