16  
    
  C     6.312829 -1.690979  2.229215
  C     6.577400  2.152840  2.173161
  C     5.157442 -2.206519  1.545530
  C     5.384474  1.582979  1.588057
  N     7.322732 -1.395302  1.416635
  N     7.518741  2.525098  1.310753
  N     5.211255 -2.138922  0.203761
  N     5.424637  1.514736  0.259895
  N     4.574830 -2.118547  4.058962
  N     4.921519  1.751700  4.111002
  S     3.776031 -2.494897  2.618737
  S     4.181941  1.099391  2.710346
  S     6.741789 -1.601004 -0.146335
  S     6.943887  2.135365 -0.195988
  S     6.215522 -1.762551  3.938758
  S     6.511445  2.282593  3.890294
