16  
    
  C     7.238287 -1.335655  2.267053
  C     7.708171  2.837274  2.266966
  C     6.111815 -1.780725  1.461682
  C     6.560374  2.280209  1.630360
  N     8.242578 -0.900376  1.502481
  N     8.771620  2.914176  1.447523
  N     6.323285 -1.883810  0.142645
  N     6.734949  2.126542  0.297936
  N     5.353144 -1.822797  3.907685
  N     6.024195  2.535467  4.130278
  S     4.670097 -2.093231  2.441446
  S     5.298340  2.052477  2.780834
  S     7.808928 -1.180742 -0.060976
  S     8.224182  2.555422 -0.096325
  S     6.973667 -1.202626  3.957766
  S     7.582815  3.136249  3.979714
