16  
    
  C     4.364949 -2.498059  1.723694
  C     4.089402  1.239653  1.526000
  C     3.238438 -3.246390  1.159198
  C     2.914468  0.537230  0.975317
  N     5.265599 -2.137596  0.822756
  N     5.044443  1.415098  0.618427
  N     3.287671 -3.384710 -0.136517
  N     3.001179  0.357408 -0.344714
  N     2.560374 -2.749642  3.613349
  N     2.293958  1.095669  3.410727
  S     1.891477 -3.438984  2.260755
  S     1.536123  0.509885  2.066670
  S     4.749262 -2.761004 -0.614307
  S     4.528297  0.803948 -0.860972
  S     4.097575 -2.189545  3.449091
  S     3.885162  1.617119  3.194920
