16  
    
  C    10.344550  0.004711  2.812542
  C    10.272179  3.861210  3.075047
  C     9.055945 -0.319907  2.187800
  C     8.956722  3.709195  2.522446
  N    11.358857  0.037245  1.982174
  N    11.324595  4.010809  2.280630
  N     9.136686 -0.504672  0.896601
  N     9.134667  3.479091  1.220895
  N     8.496990 -0.187253  4.699926
  N     8.609155  4.342480  4.987938
  S     7.739522 -0.587489  3.310797
  S     7.623066  3.972682  3.686480
  S    10.717525 -0.295018  0.484205
  S    10.667870  3.726076  0.770446
  S    10.112237  0.022821  4.520901
  S    10.251805  4.265515  4.732096
