16  
    
  C     9.060705 -0.398050  2.559590
  C     9.211549  3.484282  2.749119
  C     7.812545 -0.804340  1.984312
  C     7.914637  3.137671  2.186828
  N    10.033544 -0.134454  1.641960
  N    10.252574  3.605654  1.882930
  N     7.818527 -0.907835  0.655390
  N     7.944539  3.052966  0.875341
  N     7.332452 -0.901643  4.510507
  N     7.382752  3.328917  4.669450
  S     6.519232 -1.043219  3.050928
  S     6.530191  2.860158  3.269898
  S     9.314408 -0.394050  0.137654
  S     9.546721  3.258033  0.400098
  S     8.901662 -0.337672  4.263628
  S     9.021571  3.667298  4.481152
