16  
    
  C    10.057676  0.040725  2.646389
  C     9.848228  4.156885  2.742975
  C     8.869894 -0.542226  2.048945
  C     8.944111  3.182058  2.225230
  N    11.049137  0.254931  1.813700
  N    10.874041  4.395982  1.909038
  N     8.967903 -0.752916  0.758299
  N     9.162766  2.665973  1.024979
  N     8.222897 -0.365283  4.495920
  N     8.084312  3.576436  4.567204
  S     7.517898 -0.906030  3.109890
  S     7.755738  2.544374  3.344019
  S    10.476449 -0.189580  0.280218
  S    10.665720  3.333952  0.595130
  S     9.848467  0.184381  4.442040
  S     9.444216  4.508375  4.419293
