16  
    
  C     5.910657 -2.195747  1.646022
  C     5.391964  1.208041  1.743817
  C     4.604639 -2.519492  1.153716
  C     4.103203  0.919300  1.127381
  N     6.874779 -2.108028  0.716111
  N     6.424517  1.154319  0.924145
  N     4.610592 -2.708579 -0.161916
  N     4.173914  0.639160 -0.174961
  N     4.338079 -2.308662  3.696779
  N     3.699176  1.187098  3.619629
  S     3.377600 -2.557814  2.368492
  S     2.865425  0.660100  2.322984
  S     6.086552 -2.258889 -0.729748
  S     5.791099  0.813409 -0.565521
  S     5.917372 -1.936327  3.376234
  S     5.273089  1.691926  3.356221
