16  
    
  C    12.178318  1.631418  3.299312
  C    12.274843  5.296217  3.624616
  C    11.103050  1.041078  2.603722
  C    11.192737  4.720499  2.890352
  N    13.291900  1.844582  2.595477
  N    13.314910  5.642880  2.900884
  N    11.353615  0.766954  1.329750
  N    11.480905  4.507537  1.574570
  N    10.309891  1.284068  5.058390
  N    10.522667  4.825611  5.421896
  S     9.645953  0.786845  3.549997
  S     9.806131  4.365104  4.018857
  S    12.878701  1.365631  1.029972
  S    12.960227  5.115780  1.354082
  S    11.924482  1.849055  4.993218
  S    11.972944  5.661094  5.281712
