16  
    
  C     4.094442 -2.895985  1.541691
  C     4.119890  1.219255  1.498375
  C     2.870023 -3.354793  0.924723
  C     2.805188  0.934731  0.913984
  N     5.128673 -2.830340  0.699886
  N     5.145694  1.265354  0.641378
  N     2.973894 -3.616829 -0.358461
  N     2.900619  0.726577 -0.397793
  N     2.075213 -2.696229  3.241835
  N     2.453862  1.282013  3.469570
  S     1.452305 -3.464490  1.905761
  S     1.583183  0.739234  2.141706
  S     4.519652 -3.289231 -0.774966
  S     4.523847  0.968958 -0.865744
  S     3.695046 -2.353786  3.231680
  S     4.026550  1.545954  3.253616
