16  
    
  C     6.030458 -2.237354  1.765751
  C     6.127119  1.709195  1.844965
  C     4.764264 -2.422681  1.106668
  C     4.805407  1.780192  1.213012
  N     7.092745 -2.248155  0.953586
  N     7.096743  1.454376  0.969640
  N     4.859660 -2.808909 -0.167230
  N     4.816708  1.674996 -0.123621
  N     4.263029 -2.115681  3.624385
  N     4.428719  2.042999  3.781617
  S     3.471448 -2.476782  2.222028
  S     3.502574  1.942310  2.375525
  S     6.495425 -2.498704 -0.582107
  S     6.414361  1.501675 -0.538557
  S     5.907519 -1.984878  3.464050
  S     6.085011  1.883053  3.553364
