16  
    
  C     7.114275 -1.713616  1.621468
  C     6.859918  2.084841  1.927482
  C     5.855322 -2.094462  0.973615
  C     5.627619  1.582865  1.324080
  N     8.127187 -1.528676  0.809368
  N     7.841066  2.324818  1.053649
  N     6.001129 -2.403596 -0.295256
  N     5.636299  1.511150 -0.002378
  N     5.379127 -1.764844  3.539284
  N     5.210391  1.656424  3.819055
  S     4.591696 -2.366786  2.215448
  S     4.427299  1.185069  2.459636
  S     7.565358 -2.011207 -0.725911
  S     7.193100  2.084824 -0.495354
  S     6.995468 -1.489339  3.357714
  S     6.766640  2.221925  3.666137
