16  
    
  C    12.840863  1.676550  3.715222
  C    12.914511  5.574115  3.700677
  C    11.636350  1.241616  3.047427
  C    11.637622  5.004785  3.218888
  N    13.866518  1.636455  2.903943
  N    13.928935  5.614576  2.825562
  N    11.674613  1.028972  1.728996
  N    11.674186  4.644375  1.993194
  N    10.996336  1.680228  5.483053
  N    11.246109  5.495657  5.660147
  S    10.216232  1.236771  4.085535
  S    10.411366  4.825715  4.455657
  S    13.306319  1.309479  1.367654
  S    13.202309  4.926074  1.435738
  S    12.611670  1.968317  5.434261
  S    12.773612  6.042979  5.427797
