16  
    
  C     7.668096 -0.966239  1.765467
  C     7.746920  3.016831  2.210985
  C     6.414635 -1.504543  1.260808
  C     6.552645  2.452398  1.602019
  N     8.631234 -0.871560  0.884821
  N     8.840234  3.034001  1.432420
  N     6.452020 -1.757772 -0.010696
  N     6.672401  2.092066  0.307845
  N     6.006955 -1.125943  3.755263
  N     5.931768  2.652373  4.033221
  S     5.154821 -1.548717  2.425540
  S     5.171703  2.141886  2.679055
  S     7.972943 -1.327827 -0.557889
  S     8.327309  2.531134 -0.071002
  S     7.636648 -0.815206  3.476560
  S     7.454154  3.261009  3.911190
