16  
    
  C     4.341367 -2.205306  1.843507
  C     3.986189  1.194260  1.085212
  C     3.238084 -2.943416  1.270820
  C     2.902201  0.419031  0.562907
  N     5.351368 -1.949357  1.056934
  N     5.058727  1.417227  0.325793
  N     3.414630 -3.210649  0.001150
  N     3.095732  0.135480 -0.720966
  N     2.547516 -2.319957  3.685321
  N     2.214496  0.935672  3.044472
  S     1.876118 -3.083639  2.352473
  S     1.604992  0.223210  1.703121
  S     4.886014 -2.586681 -0.467223
  S     4.626159  0.719846 -1.113927
  S     4.174427 -1.954188  3.576265
  S     3.786078  1.508416  2.817864
