16  
    
  C    10.041782 -0.181970  2.790022
  C    10.070413  3.898778  2.729461
  C     8.812238 -0.486288  2.166046
  C     9.001839  2.997665  2.271120
  N    11.055081  0.037754  1.916326
  N    10.931885  4.151315  1.737718
  N     8.840445 -0.592457  0.809520
  N     8.994028  2.645218  1.001644
  N     8.247479 -0.281144  4.659436
  N     8.486947  3.498546  4.697483
  S     7.508400 -0.761903  3.242552
  S     7.806149  2.680232  3.448070
  S    10.404528 -0.285374  0.428866
  S    10.364737  3.346016  0.354570
  S     9.852786 -0.128431  4.511498
  S     9.971620  4.217222  4.468057
