16  
    
  C     7.633247 -1.154508  1.849303
  C     7.704434  2.989642  2.170577
  C     6.360242 -1.482293  1.290602
  C     6.528643  2.378786  1.558807
  N     8.587944 -0.920705  0.951127
  N     8.773939  3.003955  1.372687
  N     6.405155 -1.744589 -0.015247
  N     6.681906  2.054805  0.309062
  N     6.007419 -1.115641  3.764112
  N     5.954039  2.646232  4.109569
  S     5.086544 -1.642493  2.383443
  S     5.201258  2.183268  2.665958
  S     7.887414 -1.272855 -0.514997
  S     8.246716  2.496067 -0.121086
  S     7.626952 -0.829765  3.511708
  S     7.454555  3.263213  3.906695
