16  
    
  C     6.199617 -1.695352  2.371102
  C     6.621626  2.087342  2.186749
  C     5.031216 -2.142224  1.672774
  C     5.421565  1.599139  1.610373
  N     7.155626 -1.321377  1.578216
  N     7.541022  2.472857  1.288478
  N     5.096363 -2.194417  0.371914
  N     5.488296  1.482068  0.264962
  N     4.445923 -2.021506  4.189232
  N     4.952240  1.681173  4.138481
  S     3.731613 -2.572479  2.767515
  S     4.170799  1.255759  2.765228
  S     6.653903 -1.587838  0.035921
  S     6.919573  2.114391 -0.164641
  S     6.031070 -1.675237  4.057757
  S     6.497372  2.261623  3.971336
