16  
    
  C     9.086416 -0.390230  2.507399
  C     9.600257  3.556373  2.870485
  C     7.850791 -0.832403  1.944295
  C     8.325050  3.086329  2.294753
  N    10.129239 -0.191137  1.619020
  N    10.585999  3.664903  1.959653
  N     7.912125 -1.025354  0.618451
  N     8.445260  2.805862  1.016366
  N     7.382912 -0.764196  4.431351
  N     7.667253  3.640747  4.639188
  S     6.562251 -1.169558  3.063484
  S     6.890663  3.220817  3.244109
  S     9.437610 -0.585710  0.153852
  S     9.946416  3.065511  0.496569
  S     8.990767 -0.418104  4.274770
  S     9.297102  3.940063  4.499374
