16  
    
  C     5.490665 -2.294908  1.762565
  C     5.226893  1.731201  1.536562
  C     4.280735 -2.676661  1.019019
  C     4.163524  1.082086  0.772982
  N     6.584787 -2.070303  1.078903
  N     6.367058  1.927025  0.832114
  N     4.513195 -2.828482 -0.267719
  N     4.509287  0.925367 -0.490856
  N     3.582869 -2.678172  3.529138
  N     3.239550  1.154572  3.218980
  S     2.901796 -2.969186  2.032373
  S     2.730918  0.680392  1.717637
  S     6.056918 -2.285380 -0.524594
  S     6.054577  1.460846 -0.719003
  S     5.187401 -2.200163  3.467468
  S     4.837000  1.777301  3.216543
