16  
    
  C     7.065239 -1.598560  2.287688
  C     7.072440  2.336669  2.081643
  C     5.819377 -1.788422  1.561073
  C     5.881461  1.817204  1.405578
  N     8.108977 -1.388011  1.485175
  N     8.161244  2.370601  1.299076
  N     5.977066 -1.860915  0.244751
  N     6.123761  1.520071  0.124548
  N     5.247281 -1.740118  4.029759
  N     5.207189  2.015674  3.810586
  S     4.438242 -2.109540  2.585063
  S     4.485283  1.652653  2.386446
  S     7.565014 -1.430140 -0.031723
  S     7.678768  1.910096 -0.166146
  S     6.870369 -1.402751  3.974727
  S     6.774684  2.523817  3.845446
