16  
    
  C    10.244376  0.526839  2.936022
  C    10.802907  4.198500  2.912044
  C     9.108731 -0.069759  2.282336
  C     9.577384  4.095918  2.197642
  N    11.215875  0.852852  2.100875
  N    11.806784  4.551184  2.101409
  N     9.121914  0.056872  0.954321
  N     9.595133  4.388386  0.906069
  N     8.680316 -0.224733  4.839983
  N     8.978905  3.646267  4.678088
  S     7.881079 -0.612467  3.419221
  S     8.236491  3.823922  3.204930
  S    10.568261  0.723974  0.585905
  S    11.208492  4.742311  0.599875
  S    10.177779  0.484186  4.735198
  S    10.545375  4.265584  4.759237
