16  
    
  C     5.975621 -2.272317  1.793000
  C     6.098151  1.581628  1.899116
  C     4.736580 -2.493977  1.106468
  C     4.752666  1.671015  1.355658
  N     7.001422 -2.274100  0.982959
  N     7.051745  1.425654  0.990722
  N     4.823906 -2.684979 -0.202325
  N     4.635864  1.427808  0.053201
  N     4.204831 -2.181070  3.603983
  N     4.530367  2.202620  3.841162
  S     3.374957 -2.509696  2.250595
  S     3.520129  2.044051  2.523357
  S     6.387552 -2.468257 -0.529999
  S     6.258904  1.305251 -0.506704
  S     5.798883 -2.096869  3.525704
  S     6.147814  1.913074  3.589059
