16  
    
  C     9.734810 -0.258390  2.866025
  C     9.596176  3.808064  2.757129
  C     8.597726 -0.611098  2.165466
  C     8.390016  3.457030  2.038217
  N    10.827709 -0.013338  2.069549
  N    10.648741  3.879312  1.970019
  N     8.795728 -0.866160  0.849096
  N     8.522611  3.402879  0.702599
  N     7.855037 -0.454163  4.644935
  N     7.882182  3.409093  4.555667
  S     7.259123 -0.804790  3.151920
  S     7.075321  3.257254  3.120455
  S    10.340777 -0.384071  0.553179
  S    10.105923  3.739436  0.385964
  S     9.451192  0.075562  4.557406
  S     9.527702  3.711839  4.488178
