16  
    
  C     8.729583 -0.485085  2.425585
  C     8.547658  3.207351  2.634631
  C     7.546678 -0.962550  1.671833
  C     7.335975  2.743873  1.933528
  N     9.801851 -0.519455  1.667216
  N     9.522375  3.410319  1.790140
  N     7.718796 -1.277017  0.398454
  N     7.503543  2.472264  0.656419
  N     6.863596 -0.811521  4.108798
  N     6.839106  2.801006  4.469810
  S     6.113643 -0.939214  2.658194
  S     6.066594  2.482507  3.018796
  S     9.334804 -1.026349  0.151759
  S     9.016504  3.001430  0.188557
  S     8.473373 -0.296937  4.157753
  S     8.448343  3.226873  4.396565
