16  
    
  C     9.111516 -0.546692  2.578556
  C     9.519398  3.585993  2.795152
  C     7.924143 -0.961190  1.929257
  C     8.307053  3.085667  2.181433
  N    10.088101 -0.275736  1.679893
  N    10.562294  3.629500  1.953989
  N     7.960025 -1.087315  0.595927
  N     8.397300  2.691177  0.904833
  N     7.356130 -0.671529  4.391478
  N     7.726103  3.878998  4.624209
  S     6.586664 -1.165014  2.958845
  S     7.023254  3.260669  3.240248
  S     9.478632 -0.630848  0.165348
  S    10.004920  3.016325  0.536651
  S     9.022902 -0.401448  4.304700
  S     9.391548  3.948450  4.543073
