16  
    
  C    10.039743 -0.140232  2.807500
  C    10.045312  3.861610  2.733009
  C     8.794691 -0.565186  2.150286
  C     8.913021  3.094368  2.225382
  N    11.019288 -0.010856  1.942896
  N    10.893102  4.101093  1.765588
  N     8.855323 -0.578775  0.852087
  N     9.006040  2.704465  0.946160
  N     8.241230 -0.298583  4.653407
  N     8.519780  3.540148  4.694336
  S     7.500594 -0.769306  3.222434
  S     7.784708  2.727942  3.458990
  S    10.402868 -0.296700  0.444220
  S    10.352121  3.350564  0.343441
  S     9.849924 -0.161074  4.584689
  S    10.061110  4.152815  4.492757
