16  
    
  C     8.086808 -0.672549  2.474205
  C     8.310614  2.992731  2.322970
  C     6.975971 -1.352850  1.848827
  C     7.035723  2.473857  1.777045
  N     9.162407 -0.495601  1.656241
  N     9.323684  3.127894  1.454414
  N     7.170653 -1.626484  0.541440
  N     7.089370  2.203632  0.480184
  N     6.285309 -1.080342  4.291775
  N     6.526838  2.940392  4.197349
  S     5.534550 -1.510727  2.808812
  S     5.722505  2.274643  2.895319
  S     8.680387 -1.092187  0.155181
  S     8.649771  2.686262 -0.014792
  S     7.809977 -0.483331  4.154675
  S     8.099700  3.302900  4.025446
