16  
    
  C    11.497988  1.144985  3.139172
  C    11.375943  4.933738  3.001214
  C    10.436606  0.415513  2.589032
  C    10.290075  4.251477  2.374146
  N    12.302051  1.651136  2.194722
  N    12.456377  5.262144  2.273994
  N    10.353265  0.315811  1.272891
  N    10.508069  4.122112  1.072517
  N     9.875072  0.835847  5.122726
  N     9.547952  4.605737  4.726351
  S     9.205044  0.097516  3.776835
  S     8.948065  3.872364  3.357782
  S    11.688641  1.101576  0.709098
  S    11.936208  4.820572  0.702450
  S    11.413248  1.440678  4.859263
  S    11.146978  5.103535  4.704505
