16  
    
  C    10.870488  0.731438  2.912657
  C    10.870581  4.435374  3.386522
  C     9.692038  0.185769  2.372650
  C     9.747735  3.873291  2.673679
  N    11.911792  0.867642  2.094700
  N    11.894666  4.799834  2.604350
  N     9.798647  0.062634  1.043971
  N     9.997592  3.629860  1.384989
  N     9.340074  0.274333  4.930392
  N     9.194787  3.951602  5.229763
  S     8.481246 -0.228259  3.576730
  S     8.414087  3.607066  3.816285
  S    11.335817  0.404591  0.643072
  S    11.530876  4.176265  1.061065
  S    10.872060  0.849204  4.594612
  S    10.693042  4.653398  5.067632
