16  
    
  C     9.720799 -0.007903  2.876717
  C     9.778343  3.535098  2.732986
  C     8.587489 -0.626126  2.246239
  C     8.504071  3.377306  2.069041
  N    10.703700  0.331100  1.987619
  N    10.743320  3.690163  1.842228
  N     8.672582 -0.637687  0.884081
  N     8.503275  3.397839  0.732800
  N     8.062331 -0.604071  4.753527
  N     8.104218  3.133373  4.633605
  S     7.354530 -0.951865  3.312483
  S     7.340830  2.909345  3.177977
  S    10.079853  0.077154  0.489485
  S    10.076744  3.638834  0.339359
  S     9.550323  0.135374  4.601256
  S     9.760807  3.534079  4.522317
