16  
    
  C     8.754797 -1.003604  2.324262
  C     8.333074  3.247659  2.199556
  C     7.534458 -1.529245  1.702054
  C     7.232293  2.528721  1.676177
  N     9.709464 -0.627579  1.476994
  N     9.279542  3.535240  1.341965
  N     7.710073 -1.798388  0.430631
  N     7.305697  2.287031  0.398507
  N     7.014278 -1.491859  4.324791
  N     6.732791  2.820151  4.196940
  S     6.184364 -1.889711  2.880128
  S     5.978343  2.220497  2.831929
  S     9.203749 -1.204418 -0.042461
  S     8.802607  2.828504 -0.135759
  S     8.542812 -0.870708  4.077620
  S     8.268374  3.395676  3.914189
