16  
    
  C    11.977344  1.477212  3.593730
  C    11.897046  5.049874  3.720530
  C    10.907703  0.864074  2.886864
  C    10.694607  4.519451  3.202022
  N    12.876969  2.034342  2.793605
  N    12.835036  5.384873  2.851788
  N    11.080460  0.633202  1.593301
  N    10.692317  4.563081  1.894035
  N    10.506997  0.637544  5.397747
  N    10.484007  4.284439  5.826220
  S     9.718124  0.256417  4.025144
  S     9.584150  3.903832  4.467069
  S    12.413926  1.566768  1.233428
  S    12.203521  5.026647  1.377407
  S    11.914063  1.480435  5.312919
  S    11.941435  5.000215  5.467757
