16  
    
  C     9.716996 -0.104157  2.886568
  C     9.717314  3.537960  2.763419
  C     8.513986 -0.581913  2.183775
  C     8.511030  3.154903  2.087260
  N    10.690247  0.153421  2.049124
  N    10.683316  3.868417  1.920266
  N     8.745792 -0.856517  0.910100
  N     8.525801  3.275293  0.750574
  N     7.888033 -0.432634  4.712574
  N     7.946216  3.218548  4.595317
  S     7.140789 -0.843755  3.251138
  S     7.156710  3.290948  3.185391
  S    10.249838 -0.306626  0.544489
  S    10.027146  3.799682  0.377141
  S     9.512908  0.081467  4.594977
  S     9.566821  3.515107  4.480992
