16  
    
  C     7.240532 -1.681369  2.236412
  C     7.497953  2.263343  2.235340
  C     6.025360 -2.117329  1.600872
  C     6.292366  1.762800  1.598271
  N     8.332297 -1.556890  1.479583
  N     8.524268  2.348126  1.387176
  N     6.199479 -2.363325  0.289570
  N     6.395077  1.342356  0.339920
  N     5.385986 -1.541218  4.055581
  N     5.724462  2.121624  4.133826
  S     4.707929 -2.243854  2.712910
  S     4.984267  1.683630  2.696981
  S     7.769644 -1.933570 -0.026642
  S     7.971106  1.809036 -0.142166
  S     7.057330 -1.402745  3.944866
  S     7.317189  2.667755  3.902871
