16  
    
  C     4.697065 -2.541231  1.599129
  C     5.090494  1.267548  1.839684
  C     3.406175 -2.689429  0.929255
  C     3.818292  1.053626  1.202227
  N     5.773362 -2.653181  0.834105
  N     6.081623  1.592282  0.973278
  N     3.519237 -2.969477 -0.382981
  N     3.859636  1.115927 -0.124837
  N     2.841549 -2.449068  3.431911
  N     3.368977  0.873028  3.779739
  S     2.083865 -2.867610  1.999851
  S     2.512410  0.745832  2.325871
  S     5.158694 -2.884784 -0.717408
  S     5.426377  1.620622 -0.541203
  S     4.560533 -2.272638  3.320303
  S     4.901231  1.441902  3.537574
