16  
    
  C    11.129502  0.749293  2.882542
  C    11.169491  4.224021  3.344547
  C    10.051215 -0.022887  2.434394
  C     9.903834  4.061734  2.704331
  N    12.162419  0.821285  1.990177
  N    12.162199  4.263103  2.486532
  N    10.171346 -0.462660  1.165910
  N     9.913454  4.028564  1.358286
  N     9.415823  0.507326  4.851186
  N     9.429192  4.133232  5.274537
  S     8.735955 -0.253617  3.558482
  S     8.579039  4.120142  3.854852
  S    11.607498  0.026033  0.619147
  S    11.489520  4.075797  0.900910
  S    10.934457  1.030204  4.604915
  S    11.056370  4.509860  5.082434
