16  
    
  C    11.130745  0.755754  2.869162
  C    11.159878  4.217592  3.316370
  C    10.007852  0.010905  2.403505
  C     9.883327  4.017783  2.715567
  N    12.140148  0.845479  1.964704
  N    12.183540  4.251542  2.473309
  N    10.157612 -0.486755  1.162391
  N     9.916584  4.043419  1.369948
  N     9.415040  0.531681  4.856535
  N     9.416774  4.170078  5.259262
  S     8.723656 -0.248772  3.583627
  S     8.577591  4.081943  3.833159
  S    11.589583  0.032137  0.606445
  S    11.490540  4.087016  0.905575
  S    10.937412  1.027999  4.604808
  S    11.054803  4.495172  5.063251
