16  
    
  C     8.725605 -0.844583  2.418681
  C     8.450184  3.217070  2.544519
  C     7.550797 -1.204719  1.663905
  C     7.318841  2.643240  1.876184
  N     9.833601 -0.819969  1.672022
  N     9.463748  3.484699  1.712313
  N     7.753676 -1.358565  0.339104
  N     7.436937  2.449438  0.537540
  N     6.898835 -0.715279  4.062678
  N     6.789907  2.832621  4.480713
  S     6.140447 -1.231951  2.644843
  S     6.079936  2.242278  3.059103
  S     9.391075 -1.079988  0.123054
  S     8.960050  3.086655  0.220819
  S     8.569003 -0.571177  4.078175
  S     8.403463  3.439506  4.323982
