16  
    
  C    11.336494  1.018321  3.117098
  C    11.443820  4.709568  3.241896
  C    10.196156  0.348756  2.605640
  C    10.307900  4.147014  2.581827
  N    12.307666  1.243810  2.208601
  N    12.488241  4.897726  2.438389
  N    10.241371  0.114940  1.265804
  N    10.473609  3.775591  1.301283
  N     9.632092  0.904598  5.085890
  N     9.623003  4.401380  5.078457
  S     8.912361  0.314641  3.734629
  S     8.989594  3.714263  3.711456
  S    11.747017  0.606036  0.772500
  S    11.985138  4.313139  0.894631
  S    11.238921  1.235201  4.951357
  S    11.155817  5.068602  4.894111
