16  
    
  C     7.829521 -0.783154  2.225542
  C     8.351825  2.781767  2.373703
  C     6.760275 -1.420022  1.562743
  C     7.020514  2.593520  1.853630
  N     8.859738 -0.414859  1.458493
  N     9.330927  2.912813  1.471480
  N     6.975652 -1.602569  0.248346
  N     6.936534  2.507167  0.521456
  N     6.120383 -1.185184  3.968644
  N     6.670117  3.090623  4.414272
  S     5.395779 -1.777357  2.539362
  S     5.747359  2.547194  3.141798
  S     8.428894 -0.861980 -0.064770
  S     8.577599  2.787474  0.000682
  S     7.651024 -0.557918  3.894175
  S     8.360962  3.004032  4.121589
