16  
    
  C     8.911397 -0.300800  2.565556
  C     8.615156  3.364394  2.527828
  C     7.699983 -0.710265  1.936816
  C     7.359687  2.829145  1.969288
  N     9.943133 -0.072148  1.774994
  N     9.536568  3.804738  1.633971
  N     7.787599 -0.727358  0.610189
  N     7.365736  2.854598  0.642220
  N     7.205470 -0.681235  4.375571
  N     6.987661  2.686935  4.454481
  S     6.402102 -0.905848  2.989633
  S     6.126991  2.242278  3.092605
  S     9.338790 -0.291978  0.220884
  S     8.885658  3.368792  0.158206
  S     8.774623 -0.174086  4.265118
  S     8.512404  3.307039  4.260515
