16  
    
  C     4.224401 -2.254200  1.749849
  C     3.976977  1.216484  1.186802
  C     3.076723 -2.932519  1.223151
  C     3.004016  0.301478  0.720281
  N     5.244800 -2.131017  0.889043
  N     4.980487  1.448477  0.337466
  N     3.232852 -3.259996 -0.048430
  N     3.164599 -0.062276 -0.558113
  N     2.599916 -2.747370  3.770116
  N     2.323168  0.939143  3.092999
  S     1.784225 -3.203523  2.402205
  S     1.714716  0.030665  1.808311
  S     4.666261 -2.682815 -0.549654
  S     4.560376  0.745860 -1.085188
  S     4.065325 -1.975960  3.532951
  S     3.729676  1.676980  2.828860
