16  
    
  C    11.969144  1.305469  3.295533
  C    11.765260  4.784475  3.611727
  C    10.899055  0.610675  2.668743
  C    10.599682  4.423838  2.890826
  N    13.025734  1.546711  2.525088
  N    12.870058  4.932140  2.872556
  N    11.023418  0.478833  1.351834
  N    10.817470  4.243054  1.589892
  N    10.148008  1.024949  5.158555
  N     9.925692  4.575141  5.359582
  S     9.446298  0.520597  3.706933
  S     9.261955  4.144433  3.894976
  S    12.579446  1.034112  1.003012
  S    12.439757  4.671602  1.315968
  S    11.749417  1.489634  4.958720
  S    11.499098  5.078042  5.357037
