16  
    
  C     7.819666 -0.744901  2.202658
  C     8.368187  2.780781  2.375181
  C     6.781912 -1.452334  1.552833
  C     7.009914  2.613634  1.856641
  N     8.855478 -0.419257  1.447951
  N     9.331902  2.910400  1.484957
  N     6.964829 -1.622413  0.251335
  N     6.951980  2.513007  0.545541
  N     6.116413 -1.211638  3.940912
  N     6.652260  3.081192  4.384324
  S     5.388179 -1.757216  2.534507
  S     5.734142  2.521818  3.142644
  S     8.418555 -0.879911 -0.067612
  S     8.576854  2.807623  0.002571
  S     7.652230 -0.564321  3.860142
  S     8.344102  2.994315  4.127793
