16  
    
  C     4.619768 -2.393933  1.568328
  C     5.129492  1.591177  1.832438
  C     3.547595 -3.020234  0.872932
  C     3.810195  1.448349  1.315892
  N     5.646560 -2.037698  0.753349
  N     6.158428  1.518599  1.000019
  N     3.694969 -3.062681 -0.452624
  N     3.839103  1.184813 -0.008899
  N     2.865878 -3.071505  3.366809
  N     3.656959  1.530972  3.878044
  S     2.231450 -3.474183  1.877480
  S     2.653341  1.400351  2.587010
  S     5.120009 -2.286161 -0.826219
  S     5.408074  1.280062 -0.432910
  S     4.394441 -2.314756  3.308994
  S     5.274952  1.760376  3.549995
