16  
    
  C    11.284298  1.211310  3.191003
  C    11.372057  4.911487  2.901029
  C    10.074629  0.691675  2.647088
  C    10.303297  4.227213  2.232388
  N    12.332955  1.360148  2.337788
  N    12.381733  5.175627  2.078058
  N    10.163518  0.569575  1.330400
  N    10.417310  3.995157  0.913956
  N     9.802069  0.670183  5.300202
  N     9.680924  4.560436  4.768174
  S     8.929943  0.166304  3.958365
  S     8.978457  3.928617  3.388199
  S    11.713475  0.945434  0.813897
  S    11.906523  4.619212  0.517254
  S    11.297859  1.364700  4.925213
  S    11.260956  5.043080  4.600691
