16  
    
  C    10.654499  0.764858  2.935465
  C    10.634540  4.387786  2.824710
  C     9.459366  0.224699  2.348779
  C     9.591465  3.600108  2.207782
  N    11.659243  0.835571  2.099339
  N    11.693864  4.575463  2.025838
  N     9.644568 -0.221270  1.117474
  N     9.899773  3.141878  0.992709
  N     8.960096  0.718256  4.833339
  N     8.755122  4.458832  4.586098
  S     8.114277  0.257576  3.491665
  S     8.266056  3.417891  3.371821
  S    11.178953  0.159712  0.687266
  S    11.414509  3.820507  0.637804
  S    10.532854  1.228239  4.588597
  S    10.282382  5.090110  4.373075
