16  
    
  C    12.799027  1.697234  3.460766
  C    12.279749  5.045785  3.391739
  C    11.531919  1.254441  2.873978
  C    11.117860  4.595509  2.660319
  N    13.836415  1.664862  2.611292
  N    13.396999  5.231697  2.674484
  N    11.667674  0.991108  1.566703
  N    11.410859  4.497226  1.323338
  N    11.153944  1.713848  5.324672
  N    10.435221  4.630728  5.116910
  S    10.299322  1.279465  4.008399
  S     9.721843  4.276033  3.644503
  S    13.251636  1.199173  1.154570
  S    13.046807  4.907009  1.137313
  S    12.782278  1.901270  5.201283
  S    12.002120  5.099448  5.059413
