16  
    
  C     9.124594 -0.610548  2.528600
  C     9.601988  3.498491  2.757518
  C     7.912529 -0.979040  1.842158
  C     8.369419  3.139712  2.204510
  N    10.237451 -0.488350  1.741506
  N    10.665503  3.438302  1.931074
  N     8.129634 -1.140525  0.530090
  N     8.399649  2.819510  0.905748
  N     7.243284 -0.550609  4.299261
  N     7.793612  3.851019  4.632235
  S     6.528401 -1.210456  2.911831
  S     6.967113  3.356475  3.281681
  S     9.697774 -0.774872  0.197813
  S     9.996318  2.905380  0.510653
  S     8.913191 -0.396902  4.225091
  S     9.427977  4.045247  4.356317
