16  
    
  C    12.128183  1.269210  3.339391
  C    12.288063  5.054373  3.458438
  C    10.873036  0.820143  2.672579
  C    11.042818  4.632633  2.873576
  N    13.251034  1.231734  2.593535
  N    13.265873  5.123811  2.564798
  N    11.091013  0.562553  1.392527
  N    11.085259  4.466025  1.518517
  N    10.247471  1.379159  5.137113
  N    10.529888  5.349662  5.319635
  S     9.497161  0.842124  3.765626
  S     9.699719  4.795993  3.968395
  S    12.694823  0.828814  1.061672
  S    12.615724  4.719108  1.089973
  S    11.879819  1.643861  4.975462
  S    12.169914  5.517198  5.102253
