16  
    
  C     9.713237  0.136978  2.803204
  C     9.753599  3.561625  2.638460
  C     8.517359 -0.399736  2.153628
  C     8.569660  3.048600  1.998504
  N    10.644403  0.497744  1.922230
  N    10.732145  3.960016  1.853395
  N     8.586065 -0.473108  0.795366
  N     8.632304  3.046445  0.689149
  N     8.240900 -0.724300  4.709409
  N     8.155983  3.253701  4.616847
  S     7.381566 -1.032459  3.292292
  S     7.381870  2.847535  3.228947
  S    10.067800  0.170551  0.399763
  S    10.165400  3.665835  0.266644
  S     9.710593  0.013824  4.524709
  S     9.693028  3.772793  4.359220
