16  
    
  C     6.004869 -2.387803  1.815979
  C     6.095236  1.568234  1.857757
  C     4.721940 -2.547354  1.176687
  C     4.727181  1.596119  1.344594
  N     7.029942 -2.187992  0.941909
  N     7.075074  1.412748  0.968905
  N     4.808440 -2.684330 -0.159911
  N     4.701164  1.542110  0.021920
  N     4.163934 -2.134090  3.636681
  N     4.507260  2.226038  3.841895
  S     3.374489 -2.482658  2.208281
  S     3.494877  2.016767  2.487579
  S     6.427449 -2.507936 -0.569766
  S     6.273929  1.360127 -0.515163
  S     5.867999 -2.089875  3.519703
  S     6.139770  1.905092  3.577140
