16  
    
  C     4.080849 -2.883907  1.544073
  C     4.118890  1.211872  1.498989
  C     2.856716 -3.349683  0.926642
  C     2.799857  0.938284  0.914521
  N     5.120522 -2.822590  0.696570
  N     5.148372  1.270383  0.645101
  N     2.959316 -3.653305 -0.366001
  N     2.913354  0.702148 -0.392106
  N     2.070227 -2.703524  3.234246
  N     2.441956  1.272454  3.462235
  S     1.448415 -3.470581  1.895040
  S     1.571447  0.717922  2.140947
  S     4.514120 -3.286503 -0.775894
  S     4.520132  0.960728 -0.873889
  S     3.696283 -2.361165  3.220147
  S     4.030440  1.536225  3.251635
