16  
    
  C    10.686700  0.713832  2.946185
  C    10.661732  4.423917  2.772927
  C     9.449937  0.241165  2.318390
  C     9.607741  3.578916  2.247063
  N    11.739614  0.787373  2.122810
  N    11.743920  4.569601  2.028703
  N     9.614904 -0.284311  1.073726
  N     9.878404  3.223474  0.985583
  N     8.989798  0.749465  4.814595
  N     8.744187  4.471749  4.511371
  S     8.181379  0.268925  3.458767
  S     8.325610  3.343743  3.351067
  S    11.213081  0.158715  0.678958
  S    11.449098  3.782714  0.653625
  S    10.561094  1.233426  4.603668
  S    10.273225  5.081537  4.392447
