16  
    
  C     7.362604 -1.641519  2.152313
  C     7.559201  2.455045  2.116056
  C     6.105473 -1.972932  1.516101
  C     6.303381  1.994115  1.566269
  N     8.331716 -1.278293  1.332960
  N     8.534992  2.673115  1.218240
  N     6.244703 -2.061980  0.225483
  N     6.290118  1.914394  0.231759
  N     5.593102 -2.109325  3.948430
  N     5.900187  2.087385  4.092654
  S     4.827996 -2.516792  2.512809
  S     4.993168  1.908408  2.755266
  S     7.764623 -1.589741 -0.185573
  S     7.853096  2.408365 -0.248734
  S     7.220943 -1.629018  3.907466
  S     7.420614  2.687397  3.859440
