16  
    
  C     8.972710 -0.333375  2.353631
  C     9.459279  3.286221  2.734572
  C     7.851875 -0.969614  1.691112
  C     8.211142  3.005396  2.076459
  N    10.052225 -0.280648  1.620581
  N    10.493097  3.230576  1.916229
  N     8.067967 -1.249769  0.436692
  N     8.267704  2.686681  0.778219
  N     7.073763 -0.312430  4.082278
  N     7.791432  3.289895  4.662294
  S     6.489899 -1.072061  2.759020
  S     6.872995  2.999159  3.267392
  S     9.648263 -0.892498  0.143944
  S     9.925004  2.853650  0.443520
  S     8.705246  0.121648  3.982998
  S     9.446097  3.722450  4.466179
