16  
    
  C     4.269607 -2.523965  1.606941
  C     4.158108  1.203803  1.691806
  C     3.084478 -3.154615  1.074138
  C     2.854377  0.991894  1.092783
  N     5.270449 -2.406587  0.699368
  N     5.149054  1.153266  0.782025
  N     3.151170 -3.409082 -0.257788
  N     2.862895  0.784367 -0.227630
  N     2.646289 -2.757889  3.595226
  N     2.382588  1.347901  3.637077
  S     1.834526 -3.412374  2.270754
  S     1.571779  1.023140  2.226531
  S     4.699561 -3.097749 -0.665065
  S     4.492937  0.810647 -0.700782
  S     4.136767 -2.075317  3.273764
  S     4.070981  1.423417  3.467428
