16  
    
  C    11.735928  0.976471  3.214573
  C    11.939884  4.992636  3.169219
  C    10.453030  0.560033  2.587157
  C    10.754703  4.260429  2.668921
  N    12.727119  1.105889  2.356259
  N    12.932807  5.150449  2.286895
  N    10.505581  0.519975  1.260684
  N    10.835535  3.887914  1.398586
  N     9.854615  1.057601  5.077387
  N    10.259651  5.216130  5.044748
  S     9.101494  0.480493  3.676335
  S     9.548109  4.268700  3.895253
  S    12.072418  0.850917  0.860516
  S    12.340289  4.483472  0.862927
  S    11.501947  1.279371  4.849973
  S    11.861641  5.609108  4.822108
