16  
    
  C     4.276727 -2.448310  1.684156
  C     4.062397  1.167967  1.627489
  C     3.178879 -3.226657  1.141161
  C     2.848891  0.665262  0.996582
  N     5.236787 -2.174267  0.781181
  N     5.049819  1.321331  0.736609
  N     3.396127 -3.617282 -0.137620
  N     2.930929  0.335773 -0.294879
  N     2.623595 -2.887050  3.602054
  N     2.357627  1.245317  3.509661
  S     1.841372 -3.364306  2.200173
  S     1.537727  0.753159  2.097577
  S     4.723122 -2.856038 -0.634556
  S     4.479724  0.900955 -0.715615
  S     4.163418 -2.182843  3.403649
  S     3.980122  1.505636  3.281250
