16  
    
  C    11.554504  1.225897  3.017230
  C    11.415096  4.882142  3.112762
  C    10.469978  0.386362  2.547452
  C    10.319313  4.340775  2.343919
  N    12.365879  1.728483  2.062227
  N    12.410930  5.256836  2.311481
  N    10.534126  0.187881  1.245683
  N    10.483731  4.217567  1.003300
  N     9.977693  0.766269  5.080866
  N     9.559298  4.498783  4.830601
  S     9.192918  0.087360  3.806745
  S     8.962025  3.897826  3.355430
  S    11.774417  1.153754  0.614200
  S    12.010245  4.901438  0.777178
  S    11.440220  1.491873  4.797758
  S    11.093663  5.119682  4.767344
