16  
    
  C    11.462361  1.145421  3.167865
  C    11.438174  4.921930  2.993896
  C    10.234859  0.552727  2.625620
  C    10.337812  4.225287  2.300986
  N    12.320553  1.562927  2.239383
  N    12.396135  5.287312  2.154825
  N    10.249120  0.380847  1.302987
  N    10.445553  4.067747  1.001420
  N     9.857635  0.824185  5.099906
  N     9.566737  4.651090  4.749973
  S     9.136661  0.080912  3.786026
  S     8.950858  3.878580  3.391882
  S    11.665616  1.057666  0.831592
  S    11.945763  4.741149  0.628863
  S    11.414885  1.426477  4.873995
  S    11.152800  5.071277  4.694180
