16  
    
  C     9.739755 -0.039846  2.855260
  C     9.752794  3.652667  2.702057
  C     8.525726 -0.553855  2.226634
  C     8.472012  3.372185  2.144538
  N    10.659205  0.369763  2.025604
  N    10.809551  3.783778  1.909714
  N     8.674180 -0.690379  0.950367
  N     8.540526  3.477240  0.839871
  N     7.922000 -0.268144  4.712563
  N     8.063605  3.209182  4.634169
  S     7.227207 -1.016431  3.334672
  S     7.132496  2.978989  3.283780
  S    10.164836 -0.128989  0.522628
  S    10.120964  3.634907  0.326152
  S     9.547112  0.071307  4.604248
  S     9.704074  3.405843  4.411355
