16  
    
  C     7.216735 -1.330896  2.306235
  C     7.788142  2.879760  2.346958
  C     6.085994 -1.770131  1.527779
  C     6.649147  2.303660  1.698573
  N     8.299952 -0.915214  1.593008
  N     8.850087  3.061880  1.559541
  N     6.345092 -1.817455  0.212993
  N     6.820656  2.119669  0.398025
  N     5.226973 -1.862745  3.975655
  N     6.016206  2.489361  4.122709
  S     4.746539 -2.456450  2.475434
  S     5.283332  2.068469  2.696731
  S     7.871421 -1.191937 -0.003783
  S     8.309143  2.651687 -0.005766
  S     6.769283 -1.266679  4.052760
  S     7.587724  2.984465  4.032522
