16  
    
  C     9.838841 -0.234314  2.836515
  C     9.681092  3.980733  2.730784
  C     8.678062 -0.610525  2.094890
  C     8.470908  3.580749  2.090056
  N    10.918504  0.061559  2.062223
  N    10.782010  3.998034  1.972101
  N     8.934222 -0.764576  0.785949
  N     8.653095  3.471120  0.785549
  N     7.881182 -0.287497  4.491044
  N     7.785124  3.577560  4.536577
  S     7.283909 -0.930821  3.092959
  S     7.094814  3.151962  3.089283
  S    10.509437 -0.375216  0.545470
  S    10.216774  3.617861  0.419473
  S     9.545297  0.022696  4.463346
  S     9.406009  4.018653  4.480250
