16  
    
  C     9.059882 -0.290623  2.504491
  C     9.505814  3.538930  2.826563
  C     7.838132 -0.832717  1.905980
  C     8.272147  3.145099  2.241699
  N    10.039566 -0.179589  1.652828
  N    10.544948  3.595379  2.007028
  N     7.886508 -0.948569  0.593435
  N     8.399247  2.794338  0.978757
  N     7.392159 -0.809944  4.522571
  N     7.635366  3.523662  4.683016
  S     6.567781 -1.158299  3.111130
  S     6.802993  3.166042  3.249581
  S     9.432236 -0.564225  0.151147
  S     9.931705  3.138661  0.479416
  S     8.968904 -0.425291  4.221097
  S     9.280222  3.951151  4.540392
