16  
    
  C     8.468035 -0.933352  2.387801
  C     8.270552  2.682514  2.008378
  C     7.293161 -1.271426  1.706578
  C     7.071416  2.323986  1.330179
  N     9.566302 -0.883423  1.613263
  N     9.377428  2.791867  1.233307
  N     7.420977 -1.300459  0.369415
  N     7.214129  2.113861  0.008503
  N     6.643635 -1.159919  4.115867
  N     6.412209  2.310609  3.788067
  S     5.900925 -1.582950  2.637740
  S     5.676089  1.917615  2.367917
  S     9.010144 -1.152037  0.076109
  S     8.808782  2.433428 -0.268149
  S     8.254207 -0.926690  4.071932
  S     7.946553  2.782188  3.726893
