16  
    
  C     8.867790 -0.908864  2.361983
  C     8.552662  3.213390  2.498414
  C     7.654683 -1.297128  1.674680
  C     7.371459  2.643870  1.946927
  N     9.936183 -0.878579  1.601487
  N     9.497813  3.551625  1.658382
  N     7.741462 -1.348564  0.373055
  N     7.406735  2.512004  0.651721
  N     6.894458 -0.886140  4.151821
  N     6.792085  2.831824  4.381220
  S     6.207093 -1.474353  2.752111
  S     6.085346  2.203656  3.050218
  S     9.368641 -1.161459  0.007312
  S     8.878364  3.042237  0.111133
  S     8.484631 -0.676154  4.082173
  S     8.261727  3.506178  4.162594
