16  
    
  C     9.733661  0.130074  2.750306
  C     9.722083  3.638701  2.635444
  C     8.494322 -0.335275  2.112102
  C     8.540577  3.016609  1.988474
  N    10.648306  0.524938  1.911647
  N    10.706455  3.982607  1.837439
  N     8.548207 -0.484854  0.820965
  N     8.641116  3.003180  0.655856
  N     8.220167 -0.695470  4.711978
  N     8.176027  3.276359  4.589102
  S     7.423587 -1.034419  3.273734
  S     7.392018  2.824641  3.202518
  S    10.046060  0.168906  0.385756
  S    10.169281  3.650576  0.256100
  S     9.721417 -0.020317  4.519108
  S     9.706854  3.810120  4.391025
