16  
    
  C     8.466458 -0.960274  2.393719
  C     8.177355  2.596646  2.031185
  C     7.237697 -1.117913  1.669785
  C     7.079226  2.118130  1.296886
  N     9.591721 -0.877602  1.631995
  N     9.276485  2.827578  1.306716
  N     7.419108 -1.275964  0.341768
  N     7.308305  2.027481 -0.017256
  N     6.525927 -1.182664  4.128936
  N     6.272969  2.266000  3.782888
  S     5.799425 -1.357131  2.660297
  S     5.696793  1.844729  2.264877
  S     9.063131 -1.146573  0.057387
  S     8.894617  2.327716 -0.300058
  S     8.180166 -0.864061  4.124260
  S     7.942669  2.620643  3.763004
