16  
    
  C     7.227014 -1.402774  2.266466
  C     7.781994  2.776485  2.290579
  C     6.087000 -1.851568  1.495557
  C     6.596324  2.283800  1.610762
  N     8.235690 -0.914053  1.563639
  N     8.778256  2.993718  1.472871
  N     6.310383 -1.869962  0.179945
  N     6.693189  2.105778  0.306281
  N     5.339998 -1.807460  3.939698
  N     6.025058  2.499388  4.221955
  S     4.702250 -2.162192  2.408131
  S     5.283460  2.060127  2.739153
  S     7.796660 -1.164537  0.003045
  S     8.284223  2.576723 -0.082607
  S     6.918954 -1.207364  3.967319
  S     7.585009  3.115224  4.019062
