16  
    
  C    11.302097  0.665019  3.023214
  C    11.121448  4.399568  3.587262
  C    10.304733 -0.067865  2.272796
  C     9.852576  4.149128  2.976072
  N    12.451888  0.781529  2.350640
  N    12.095527  4.389546  2.655946
  N    10.600398 -0.350698  1.002227
  N     9.806537  3.870648  1.686205
  N     9.312210  0.386205  4.513150
  N     9.354761  4.734092  5.467062
  S     8.848125 -0.354140  3.089701
  S     8.483490  4.212721  4.143616
  S    12.227745  0.087840  0.851732
  S    11.383969  4.127441  1.205321
  S    10.936273  0.780342  4.742950
  S    10.987279  4.873433  5.226322
