16  
    
  C     5.823902 -2.115416  1.669188
  C     5.258311  1.403535  1.702228
  C     4.524376 -2.520066  1.106307
  C     3.980546  0.933095  1.145270
  N     6.757340 -2.007469  0.731553
  N     6.205275  1.580656  0.778027
  N     4.527373 -2.740255 -0.201221
  N     4.089332  0.619949 -0.149393
  N     4.238395 -2.320258  3.673226
  N     3.580157  1.204379  3.658086
  S     3.268382 -2.632910  2.338806
  S     2.796632  0.628022  2.320848
  S     6.045664 -2.389062 -0.730603
  S     5.597493  1.050789 -0.661767
  S     5.796385 -1.821903  3.390953
  S     5.183012  1.557629  3.493535
