16  
    
  C     7.233665 -1.674666  2.232254
  C     7.502215  2.264795  2.232775
  C     6.026208 -2.128808  1.605747
  C     6.291757  1.768284  1.597476
  N     8.333505 -1.555178  1.474430
  N     8.528094  2.346114  1.385093
  N     6.203370 -2.368641  0.288794
  N     6.388733  1.344021  0.342250
  N     5.387458 -1.532493  4.059372
  N     5.725019  2.123426  4.136091
  S     4.707423 -2.240826  2.714445
  S     4.982896  1.678778  2.693918
  S     7.770260 -1.932603 -0.031627
  S     7.975218  1.804990 -0.139318
  S     7.054325 -1.399280  3.948980
  S     7.316873  2.668170  3.903589
