16  
    
  C     5.918366 -2.186809  1.817695
  C     5.643730  1.154072  1.736656
  C     4.661089 -2.420699  1.246046
  C     4.390118  0.760727  1.157166
  N     6.870885 -2.004632  0.897915
  N     6.687060  1.343205  0.927988
  N     4.641290 -2.493330 -0.090135
  N     4.476894  0.456867 -0.131021
  N     4.256946 -2.393668  3.774464
  N     3.796427  1.234200  3.587985
  S     3.388309 -2.589522  2.413461
  S     3.024097  0.717168  2.215969
  S     6.208227 -2.322642 -0.547044
  S     6.081793  0.804009 -0.581543
  S     5.882364 -2.124515  3.531811
  S     5.419990  1.480512  3.451931
