16  
    
  C     7.208278 -1.351346  2.149325
  C     7.473710  2.090097  2.183554
  C     6.019820 -1.932244  1.574835
  C     6.248712  1.606708  1.609232
  N     8.242455 -1.269549  1.349108
  N     8.452923  2.311672  1.291994
  N     6.209312 -2.294023  0.312874
  N     6.277580  1.311890  0.309191
  N     5.497753 -1.510661  4.166281
  N     5.648039  2.050170  4.073835
  S     4.703982 -2.120253  2.817239
  S     4.826286  1.630498  2.637885
  S     7.795983 -1.986510 -0.086071
  S     7.843217  1.776216 -0.188223
  S     7.020257 -0.921165  3.873866
  S     7.222653  2.568316  3.825124
