16  
    
  C    11.059766  0.512692  3.191672
  C    11.123142  4.210093  3.037874
  C     9.899704 -0.072362  2.549170
  C     9.910507  3.688547  2.411609
  N    12.027699  0.808082  2.367268
  N    12.185935  4.428284  2.257450
  N    10.058873 -0.138968  1.243416
  N    10.064487  3.676730  1.102757
  N     9.320942  0.134856  5.048791
  N     9.363893  4.033614  4.897625
  S     8.534718 -0.205784  3.626217
  S     8.635256  3.398794  3.541683
  S    11.516339  0.487679  0.836109
  S    11.611542  4.045653  0.702288
  S    10.906103  0.683689  4.894636
  S    10.947027  4.482470  4.724938
