16  
    
  C     5.856103 -2.248700  1.639390
  C     5.283158  1.381186  1.698896
  C     4.573897 -2.560289  1.161315
  C     4.058063  0.922536  1.142396
  N     6.745603 -2.002347  0.668214
  N     6.291120  1.472411  0.825586
  N     4.531525 -2.683006 -0.178741
  N     4.023291  0.693599 -0.164642
  N     4.243006 -2.324499  3.714448
  N     3.576587  1.207001  3.665496
  S     3.343199 -2.589463  2.303981
  S     2.806556  0.620669  2.343485
  S     6.051067 -2.368873 -0.741696
  S     5.653358  0.925929 -0.656409
  S     5.851868 -1.828289  3.367957
  S     5.202358  1.601535  3.461038
