16  
    
  C     5.348563 -2.231817  1.536266
  C     4.967411  1.729174  1.739006
  C     4.220948 -2.884592  0.917723
  C     3.887249  0.925905  1.131490
  N     6.337457 -2.021349  0.701398
  N     6.065745  1.855024  0.971851
  N     4.401336 -3.119218 -0.380220
  N     4.277599  0.293052  0.027681
  N     3.456088 -2.294005  3.330029
  N     3.025255  1.790365  3.382201
  S     2.854882 -3.066720  1.931050
  S     2.534014  0.835028  2.171431
  S     5.934542 -2.609510 -0.800386
  S     5.812357  0.771593 -0.238493
  S     5.051411 -1.748111  3.224017
  S     4.643853  2.338910  3.345244
