16  
    
  C    12.535098  1.580760  3.517294
  C    12.363820  5.222738  3.488491
  C    11.338023  1.039434  3.012837
  C    11.117488  4.794411  2.883955
  N    13.577717  1.790333  2.688633
  N    13.330087  5.417027  2.553484
  N    11.402748  0.879439  1.691615
  N    11.151311  4.520581  1.572832
  N    10.823390  1.358380  5.490254
  N    10.661507  4.895889  5.429165
  S    10.028359  0.749734  4.107245
  S     9.873682  4.644612  3.960806
  S    12.865633  1.383860  1.164454
  S    12.737227  4.905852  1.089455
  S    12.464898  1.773584  5.266405
  S    12.230838  5.493362  5.234266
