16  
    
  C    11.633171  1.141816  2.998914
  C    11.823159  5.167700  3.055052
  C    10.353906  0.805900  2.371585
  C    10.668630  4.397037  2.596997
  N    12.617371  1.265982  2.104358
  N    12.802083  5.207724  2.192377
  N    10.417328  0.545156  1.053503
  N    10.805163  3.998658  1.330908
  N    10.096696  0.608367  4.981599
  N    10.269625  4.815373  5.055931
  S     9.173704  0.387387  3.621659
  S     9.479721  4.186247  3.723184
  S    11.999749  0.887956  0.617483
  S    12.343120  4.416339  0.870504
  S    11.594334  1.258005  4.661988
  S    11.739033  5.552467  4.802220
