16  
    
  C     8.765586 -0.990011  2.327480
  C     8.360261  3.269990  2.205526
  C     7.536303 -1.524379  1.698734
  C     7.238682  2.537376  1.693536
  N     9.713667 -0.636292  1.482606
  N     9.297668  3.552617  1.337655
  N     7.720455 -1.778949  0.428141
  N     7.318207  2.294281  0.406105
  N     7.029799 -1.495315  4.319949
  N     6.738623  2.821509  4.231270
  S     6.186540 -1.876603  2.880760
  S     5.975971  2.219731  2.853822
  S     9.216802 -1.209732 -0.031288
  S     8.810056  2.843982 -0.115137
  S     8.541566 -0.864247  4.062191
  S     8.261760  3.402669  3.905975
