16  
    
  C     7.181585 -1.298453  2.275751
  C     7.799797  2.796487  2.330567
  C     6.161458 -2.007073  1.514456
  C     6.576234  2.420000  1.661648
  N     8.190531 -0.826999  1.554304
  N     8.852365  3.000931  1.540701
  N     6.472545 -2.060349  0.245999
  N     6.673878  2.256892  0.358216
  N     5.334703 -2.118126  3.958017
  N     5.955670  2.361607  4.183103
  S     4.777995 -2.559129  2.464029
  S     5.239791  2.014539  2.701911
  S     7.919684 -1.258593 -0.022087
  S     8.277249  2.713967  0.025252
  S     6.874841 -1.359876  4.003910
  S     7.547229  2.972143  4.024783
