16  
    
  C    12.898083  1.640398  3.689449
  C    12.887333  5.484986  3.716533
  C    11.574392  1.237643  3.076266
  C    11.655318  4.976788  3.178564
  N    13.909728  1.719234  2.858066
  N    13.886990  5.515777  2.846417
  N    11.672938  1.182151  1.752713
  N    11.622075  4.626133  1.922719
  N    11.201139  1.579962  5.621793
  N    11.327124  5.543789  5.667529
  S    10.346959  1.268462  4.241375
  S    10.384576  5.015259  4.491354
  S    13.267871  1.499295  1.348213
  S    13.193652  4.918414  1.408722
  S    12.781515  1.937615  5.445559
  S    12.854904  6.063841  5.337237
