16  
    
  C    11.722415  1.074079  2.882642
  C    11.634064  4.981421  3.176481
  C    10.475019  0.463659  2.351125
  C    10.490067  4.454616  2.422347
  N    12.565235  1.462325  1.928519
  N    12.690218  5.345563  2.390993
  N    10.471243  0.381225  1.018360
  N    10.680446  4.352717  1.123392
  N    10.179716  0.776369  4.849469
  N     9.741021  4.572091  4.929443
  S     9.369128  0.094618  3.562440
  S     9.119465  4.025170  3.491822
  S    11.856483  1.062604  0.493583
  S    12.197901  4.936614  0.769805
  S    11.592015  1.565957  4.528774
  S    11.344871  5.018444  4.857049
