16  
    
  C     8.171658 -0.844185  2.523294
  C     8.194697  2.977007  2.376423
  C     6.993592 -1.309025  1.828793
  C     7.066693  2.342673  1.763324
  N     9.191478 -0.627906  1.683030
  N     9.183903  3.211931  1.514031
  N     7.145723 -1.700365  0.554186
  N     7.184279  2.216665  0.433690
  N     6.328677 -0.912106  4.287835
  N     6.340876  2.890626  4.198958
  S     5.638840 -1.472016  2.872606
  S     5.779255  2.158238  2.809609
  S     8.697229 -1.229504  0.222894
  S     8.677090  2.705299 -0.026842
  S     7.961010 -0.430008  4.185450
  S     8.021433  3.292635  4.084871
