16  
    
  C    10.306774  0.379843  2.582833
  C    10.462948  4.237885  3.008146
  C     9.144486 -0.176592  1.903893
  C     9.253143  3.673752  2.462972
  N    11.366547  0.395668  1.775008
  N    11.450042  4.270384  2.126715
  N     9.332837 -0.641201  0.656867
  N     9.285635  3.373167  1.146131
  N     8.354237  0.519789  4.239186
  N     8.734399  4.438973  4.914697
  S     7.743238 -0.199502  2.890015
  S     7.963183  3.916441  3.520056
  S    10.902352 -0.299066  0.361419
  S    10.830204  3.695912  0.718797
  S     9.980887  0.971394  4.211940
  S    10.416840  4.622051  4.769661
