16  
    
  C    12.726860  1.642057  3.329138
  C    12.616602  5.411665  3.243758
  C    11.481245  1.243272  2.755717
  C    11.366866  4.826767  2.705339
  N    13.646585  1.913739  2.450988
  N    13.542539  5.586465  2.282111
  N    11.534421  1.097391  1.441782
  N    11.344644  4.696893  1.427324
  N    11.059887  1.500401  5.287859
  N    11.067333  4.803366  5.211707
  S    10.284479  0.847276  3.928875
  S    10.195810  4.437400  3.889788
  S    13.046389  1.579792  0.964786
  S    12.849850  5.110793  0.878066
  S    12.744387  1.651600  5.139128
  S    12.526109  5.490638  4.987967
