16  
    
  C     4.699322 -1.990186  1.910246
  C     4.170635  1.136480  1.294328
  C     3.537064 -2.463513  1.226705
  C     2.947892  0.815494  0.566637
  N     5.813438 -1.972692  1.139550
  N     5.231151  1.152774  0.497543
  N     3.721415 -2.795075 -0.068069
  N     3.028988  0.766238 -0.767189
  N     2.867112 -2.237164  3.691229
  N     2.292376  1.169490  3.008723
  S     2.144592 -2.671198  2.258390
  S     1.535791  0.590267  1.664468
  S     5.293604 -2.350081 -0.438917
  S     4.684596  1.046434 -1.069732
  S     4.442545 -1.732431  3.588102
  S     3.960272  1.275774  3.034388
