16  
    
  C     5.406372 -2.164631  1.538221
  C     5.158927  1.605750  1.576050
  C     4.270709 -2.627223  0.783067
  C     4.156673  0.787760  0.957004
  N     6.565615 -2.035268  0.872703
  N     6.271156  1.735220  0.857479
  N     4.519092 -2.803881 -0.513786
  N     4.436492  0.480069 -0.303136
  N     3.528313 -2.453808  3.251844
  N     3.130092  1.798160  3.116972
  S     2.872799 -2.881187  1.789238
  S     2.638585  0.851551  1.853057
  S     6.139023 -2.476978 -0.735409
  S     5.968825  1.017893 -0.571288
  S     5.096711 -1.981876  3.275517
  S     4.720310  2.334879  3.037485
