16  
    
  C    11.574328  1.405091  2.843545
  C    11.457554  5.072893  3.164379
  C    10.380158  0.735555  2.361878
  C    10.392235  4.489983  2.396281
  N    12.519175  1.613635  1.931364
  N    12.505282  5.336297  2.431687
  N    10.477085  0.444432  1.088367
  N    10.595314  4.441385  1.072474
  N    10.201578  0.618048  5.001107
  N     9.707562  4.397142  4.830179
  S     9.381359  0.002715  3.661390
  S     9.055781  4.010780  3.367761
  S    11.947471  0.925821  0.465384
  S    12.120606  4.964147  0.848137
  S    11.502487  1.612882  4.622792
  S    11.257554  4.986497  4.870069
