16  
    
  C    11.925035  1.215820  3.361095
  C    11.852782  4.890399  3.465846
  C    10.734858  0.719142  2.661383
  C    10.687949  4.417232  2.742317
  N    13.000825  1.249015  2.594143
  N    12.945905  4.988713  2.713183
  N    10.920754  0.475428  1.358585
  N    10.903122  4.239791  1.458968
  N     9.989509  1.201430  5.115491
  N     9.943770  4.845603  5.203082
  S     9.403296  0.447311  3.727618
  S     9.290147  4.411778  3.769284
  S    12.505608  0.775467  1.089284
  S    12.460075  4.594778  1.144776
  S    11.633819  1.607191  5.024393
  S    11.584024  5.129553  5.225119
