16  
    
  C     9.821913 -0.167379  2.890330
  C     9.709525  3.612618  2.749086
  C     8.616361 -0.688996  2.175791
  C     8.443135  3.374115  2.086735
  N    10.817740  0.047830  2.093326
  N    10.724233  3.927440  1.941296
  N     8.719203 -0.840764  0.886456
  N     8.512040  3.291243  0.776082
  N     7.916673 -0.491880  4.655515
  N     7.871938  3.316912  4.611088
  S     7.203923 -0.782036  3.165723
  S     7.028646  3.296033  3.133091
  S    10.278643 -0.389462  0.545578
  S    10.081360  3.790465  0.346617
  S     9.433016  0.079329  4.572726
  S     9.542730  3.652558  4.475529
