16  
    
  C     7.320229 -1.528470  2.171616
  C     7.594591  2.795580  2.208419
  C     6.182889 -2.070519  1.465908
  C     6.376471  2.264902  1.595179
  N     8.321380 -1.113242  1.386513
  N     8.630245  2.982728  1.411466
  N     6.301561 -2.076314  0.141960
  N     6.462808  2.116375  0.303971
  N     5.549431 -2.113690  3.964804
  N     5.973708  2.319050  4.096920
  S     4.855502 -2.647998  2.527124
  S     5.115495  1.968832  2.733811
  S     7.803426 -1.398834 -0.178334
  S     8.045982  2.599776 -0.151568
  S     7.073651 -1.455860  3.922782
  S     7.528676  2.718821  3.939231
