16  
    
  C     4.836504 -2.489286  1.601678
  C     4.962250  1.501979  2.009376
  C     3.606033 -2.919326  0.976229
  C     3.787434  1.069585  1.316504
  N     5.915637 -2.440748  0.810394
  N     5.891666  1.860153  1.177117
  N     3.696282 -3.128721 -0.348939
  N     3.870025  0.914046  0.001835
  N     3.014804 -2.326907  3.464194
  N     3.256914  1.068266  3.779850
  S     2.236080 -2.840937  2.093258
  S     2.452059  0.719889  2.339241
  S     5.340806 -2.984131 -0.675389
  S     5.430122  1.439590 -0.372366
  S     4.705441 -2.142037  3.308320
  S     4.865328  1.499772  3.753913
