16  
    
  C     4.613361 -2.139672  1.531827
  C     4.606757  1.653210  1.580669
  C     3.300141 -2.291799  1.010310
  C     3.462528  1.049172  0.958493
  N     5.619202 -2.214126  0.622504
  N     5.597991  1.898499  0.719720
  N     3.301546 -2.356163 -0.344951
  N     3.539414  0.955620 -0.375757
  N     3.015865 -2.116485  3.573458
  N     2.768623  1.291052  3.380809
  S     2.050708 -2.113414  2.220587
  S     2.103009  0.859602  1.996720
  S     4.864426 -2.309001 -0.831199
  S     5.004455  1.526402 -0.801538
  S     4.650669 -1.859673  3.247243
  S     4.372893  1.679843  3.317494
