16  
    
  C    10.301371 -0.004046  2.812623
  C    10.228828  3.899850  3.078045
  C     9.051259 -0.262364  2.207850
  C     8.958590  3.667060  2.520778
  N    11.358092  0.067863  2.002737
  N    11.273168  4.034912  2.286516
  N     9.140561 -0.555163  0.911538
  N     9.107863  3.464993  1.197709
  N     8.520345 -0.096254  4.682961
  N     8.622520  4.393593  5.015276
  S     7.738622 -0.608551  3.318375
  S     7.628646  3.967544  3.682146
  S    10.755211 -0.338343  0.472483
  S    10.658062  3.709480  0.774153
  S    10.152012  0.068398  4.501575
  S    10.272479  4.307170  4.737858
