16  
    
  C     4.677384 -2.043250  1.619348
  C     4.380789  1.551865  1.420808
  C     3.375598 -2.171082  1.049789
  C     3.245508  0.978748  0.796333
  N     5.660173 -2.152609  0.715566
  N     5.432456  1.811143  0.652152
  N     3.347052 -2.167135 -0.291078
  N     3.373604  0.965075 -0.541413
  N     3.010177 -1.764066  3.586793
  N     2.773582  0.900301  3.286519
  S     2.102273 -2.167683  2.246030
  S     1.973855  0.625561  1.902788
  S     4.920485 -2.354070 -0.773272
  S     4.919210  1.371452 -0.848500
  S     4.683738 -1.783422  3.357835
  S     4.315041  1.569912  3.128259
