16  
    
  C     5.883560 -2.163515  1.706893
  C     5.490407  1.177455  1.727451
  C     4.587244 -2.497474  1.160850
  C     4.253220  0.742662  1.141133
  N     6.896705 -2.020367  0.851174
  N     6.527651  1.113767  0.895968
  N     4.583384 -2.571465 -0.168315
  N     4.372569  0.560194 -0.183787
  N     4.325908 -2.323679  3.737402
  N     3.743920  1.232585  3.651485
  S     3.383382 -2.574629  2.394594
  S     2.945082  0.716428  2.267764
  S     6.174998 -2.293246 -0.665509
  S     5.940605  0.784368 -0.591692
  S     5.958533 -2.044437  3.463257
  S     5.341095  1.631038  3.438103
