16  
    
  C     7.075648 -1.576993  2.262088
  C     7.050264  2.355050  2.091526
  C     5.807253 -1.799307  1.556148
  C     5.883824  1.805072  1.416810
  N     8.115132 -1.378563  1.499058
  N     8.149938  2.380097  1.338571
  N     5.979756 -1.842339  0.261667
  N     6.085527  1.515183  0.110861
  N     5.232578 -1.772210  4.036210
  N     5.219401  2.019381  3.808756
  S     4.455380 -2.096068  2.611172
  S     4.485580  1.657256  2.395742
  S     7.552439 -1.439993 -0.045531
  S     7.681319  1.908339 -0.174829
  S     6.873240 -1.385411  4.002190
  S     6.798079  2.534763  3.843799
