16  
    
  C     4.507662 -2.144781  1.888809
  C     4.002280  1.169579  1.153862
  C     3.343835 -2.672415  1.236383
  C     2.819955  0.699445  0.505976
  N     5.555855 -2.035300  1.080097
  N     5.068069  1.262705  0.394384
  N     3.540725 -3.023510 -0.021714
  N     3.030480  0.386682 -0.754300
  N     2.637309 -2.396769  3.713854
  N     2.328464  0.921594  2.988832
  S     1.989804 -3.011471  2.320976
  S     1.516459  0.337937  1.617312
  S     5.068409 -2.543581 -0.400038
  S     4.653863  0.761388 -1.097425
  S     4.188916 -1.817420  3.597298
  S     3.858138  1.460860  2.878692
