16  
    
  C     8.753141 -0.776764  2.373695
  C     8.464063  3.193802  2.593275
  C     7.541043 -1.197443  1.668326
  C     7.285285  2.633442  1.904671
  N     9.881747 -0.767160  1.681425
  N     9.443828  3.516891  1.776328
  N     7.764987 -1.345837  0.369230
  N     7.459053  2.464962  0.600574
  N     6.904034 -0.722409  4.076274
  N     6.829400  2.827321  4.459851
  S     6.099041 -1.157418  2.645163
  S     6.098500  2.292134  3.058623
  S     9.389499 -1.080321  0.113239
  S     8.974750  3.070549  0.214102
  S     8.534251 -0.540488  4.090107
  S     8.396121  3.391248  4.303831
