16  
    
  C     7.188783 -1.342331  2.315237
  C     7.837047  2.762023  2.305585
  C     6.148398 -1.931540  1.535341
  C     6.616377  2.286708  1.669996
  N     8.249598 -0.952621  1.596837
  N     8.845822  3.070787  1.457260
  N     6.307255 -1.805404  0.216002
  N     6.699373  2.104158  0.339802
  N     5.309565 -1.807705  3.950686
  N     6.034476  2.478932  4.197635
  S     4.727088 -2.251383  2.435625
  S     5.260328  2.062840  2.718046
  S     7.812480 -1.163816  0.010044
  S     8.313810  2.598046 -0.033752
  S     6.836003 -1.238562  3.964008
  S     7.581616  3.072484  4.032542
