16  
    
  C     6.030377 -2.256116  1.726751
  C     6.085444  1.648398  1.839311
  C     4.755007 -2.463371  1.103224
  C     4.795300  1.782213  1.220788
  N     7.078034 -2.263995  0.947044
  N     7.095955  1.431764  0.996241
  N     4.880349 -2.811414 -0.152489
  N     4.745842  1.652718 -0.102532
  N     4.264848 -2.115696  3.587826
  N     4.454210  2.088017  3.777537
  S     3.466456 -2.464999  2.236507
  S     3.521177  1.939842  2.394021
  S     6.472001 -2.494028 -0.571300
  S     6.401533  1.491518 -0.546782
  S     5.891236 -2.015277  3.486684
  S     6.081741  1.891055  3.559240
