16  
    
  C     3.524999 -3.103008  1.036678
  C     3.879803  0.768581  1.459040
  C     2.264921 -3.573773  0.439283
  C     2.642070  0.350118  0.779609
  N     4.551795 -3.014162  0.227149
  N     4.918248  0.887119  0.647178
  N     2.333525 -3.765276 -0.873353
  N     2.809683  0.138735 -0.515119
  N     1.762025 -2.964164  2.915270
  N     2.086133  0.418790  3.291222
  S     1.048899 -3.834728  1.723709
  S     1.326315 -0.034465  1.922667
  S     3.965878 -3.351033 -1.295008
  S     4.356719  0.508701 -0.944484
  S     3.326781 -2.571473  2.645387
  S     3.670566  1.044334  3.181565
