16  
    
  C    12.471792  1.527441  3.377809
  C    12.340281  5.341920  3.467194
  C    11.273334  1.127830  2.793116
  C    11.139662  4.755006  2.954400
  N    13.455016  1.821167  2.518519
  N    13.326469  5.567437  2.634473
  N    11.350652  0.904120  1.487240
  N    11.241369  4.486073  1.649389
  N    10.874476  1.149147  5.420173
  N    10.667512  4.961155  5.406259
  S    10.072841  0.844681  3.997839
  S     9.792858  4.563484  4.071999
  S    12.910781  1.313793  1.067536
  S    12.767992  5.098328  1.171548
  S    12.348018  1.843178  5.160415
  S    12.208421  5.486834  5.209585
