16  
    
  C    10.940951  0.576026  2.993589
  C    10.871789  4.322199  2.864366
  C     9.700918  0.149449  2.344196
  C     9.818821  3.599820  2.177633
  N    11.993362  0.506636  2.206307
  N    11.877444  4.654546  2.038365
  N     9.820058 -0.106959  1.053370
  N    10.149688  3.187373  0.952647
  N     9.287757  0.451895  4.908884
  N     9.001728  4.127008  4.597993
  S     8.452445 -0.018126  3.551290
  S     8.310830  3.501983  3.191334
  S    11.448624  0.157906  0.691816
  S    11.660241  3.885848  0.660217
  S    10.867952  0.949870  4.662585
  S    10.527391  4.757547  4.443767
