16  
    
  C     4.538238 -2.582052  1.493675
  C     5.250424  1.474838  1.751764
  C     3.253165 -2.748136  0.801391
  C     3.957887  1.147629  1.199148
  N     5.585652 -2.371290  0.683012
  N     6.194712  1.639943  0.842882
  N     3.366032 -2.767081 -0.532666
  N     3.944123  0.980940 -0.100607
  N     2.779577 -2.784688  3.360205
  N     3.606300  1.476672  3.767116
  S     1.988651 -3.243163  1.926026
  S     2.735591  1.224466  2.352554
  S     4.960070 -2.391068 -0.852926
  S     5.493737  1.436616 -0.636720
  S     4.427188 -2.644932  3.265835
  S     5.243613  1.731575  3.444372
