16  
    
  C     5.519446 -2.129450  1.917478
  C     5.272478  1.587959  1.737531
  C     4.389963 -2.734706  1.261306
  C     4.117076  1.026133  1.095906
  N     6.535384 -1.823063  1.108399
  N     6.202928  2.083155  0.915155
  N     4.459313 -2.838121 -0.090293
  N     4.193711  1.038852 -0.210506
  N     3.737126 -2.448938  3.744883
  N     3.551169  0.842110  3.495930
  S     3.004734 -2.842908  2.352460
  S     2.994191  0.199951  2.109332
  S     5.989063 -2.210961 -0.442461
  S     5.644255  1.705166 -0.608284
  S     5.278839 -1.886553  3.603465
  S     5.059353  1.549476  3.447848
