16  
    
  C     8.855874 -0.154977  2.537650
  C     8.609378  3.169238  2.570369
  C     7.634991 -0.567866  1.924262
  C     7.414438  2.534380  1.971508
  N     9.831220  0.167716  1.696264
  N     9.588454  3.520702  1.728708
  N     7.680655 -0.681964  0.586423
  N     7.577473  2.512912  0.666990
  N     7.104630 -0.760129  4.410351
  N     6.697944  2.903500  4.321832
  S     6.356886 -0.957498  2.958424
  S     6.034071  2.172819  2.953424
  S     9.168730 -0.199357  0.208690
  S     9.049880  3.026157  0.183100
  S     8.690980 -0.157351  4.245412
  S     8.318216  3.335614  4.244526
