16  
    
  C    10.063837  0.073225  2.642839
  C     9.887796  4.068382  2.744965
  C     8.897863 -0.562959  2.084839
  C     8.893114  3.128023  2.234863
  N    11.055599  0.248208  1.764420
  N    10.874456  4.393761  1.924295
  N     8.963922 -0.699117  0.784050
  N     9.225157  2.682648  1.036909
  N     8.265308 -0.396037  4.518544
  N     8.149667  3.527064  4.634372
  S     7.529977 -0.855725  3.119489
  S     7.795538  2.505534  3.390664
  S    10.450278 -0.207126  0.284052
  S    10.665556  3.319358  0.580321
  S     9.836576  0.177854  4.418344
  S     9.454131  4.526910  4.350723
