16  
    
  C     5.929647 -2.220019  1.826602
  C     6.078588  1.744141  1.865993
  C     4.690288 -2.398575  1.141082
  C     4.731661  1.648954  1.368719
  N     6.958065 -2.231965  1.013947
  N     7.030132  1.456194  0.987721
  N     4.744459 -2.573504 -0.167928
  N     4.657760  1.355550  0.070233
  N     4.077418 -2.280190  3.710502
  N     4.541035  2.130069  3.942674
  S     3.298520 -2.603350  2.236100
  S     3.581179  2.087166  2.564078
  S     6.409365 -2.446005 -0.540574
  S     6.224050  1.164335 -0.441420
  S     5.790686 -2.067330  3.517427
  S     6.167540  1.951338  3.615790
