16  
    
  C     8.917958 -0.306207  2.567873
  C     8.617896  3.372695  2.537005
  C     7.701537 -0.702513  1.926971
  C     7.360216  2.831750  1.967291
  N     9.942061 -0.069286  1.773162
  N     9.531649  3.804852  1.636022
  N     7.789515 -0.730469  0.609315
  N     7.367140  2.857221  0.643060
  N     7.203732 -0.677361  4.376977
  N     6.992399  2.687083  4.454257
  S     6.401807 -0.907878  2.988519
  S     6.133201  2.251717  3.093344
  S     9.339229 -0.296745  0.217754
  S     8.883747  3.370377  0.155719
  S     8.776964 -0.175272  4.273422
  S     8.516366  3.303454  4.261847
