16  
    
  C    11.264405  0.409811  3.027357
  C    11.139490  4.485431  3.400716
  C    10.096067 -0.151640  2.342538
  C     9.859486  4.202854  2.784310
  N    12.263563  0.662386  2.224296
  N    12.144210  4.323224  2.542681
  N    10.308398 -0.453884  1.069159
  N     9.876067  3.941383  1.500475
  N     9.445801  0.380813  4.784594
  N     9.478581  4.061548  5.293341
  S     8.735048 -0.327313  3.423011
  S     8.546966  4.332092  3.963785
  S    11.831478  0.088107  0.750324
  S    11.463585  4.042431  1.052736
  S    10.978105  1.075904  4.641677
  S    11.077864  4.578236  5.096904
