16  
    
  C     9.884030 -0.078548  2.795907
  C     9.719827  3.830811  2.802182
  C     8.778064 -0.672801  2.057058
  C     8.565171  3.356291  2.075566
  N    11.006264  0.078222  2.028178
  N    10.771444  4.086553  2.049252
  N     8.945123 -0.789065  0.724195
  N     8.732480  3.085700  0.783213
  N     7.964144 -0.341465  4.466578
  N     7.827626  3.599874  4.535245
  S     7.411672 -0.917802  3.017400
  S     7.219537  3.187771  3.045125
  S    10.524214 -0.311465  0.463229
  S    10.315428  3.691932  0.474197
  S     9.557328  0.037416  4.523678
  S     9.387972  4.225015  4.536961
