16  
    
  C     6.146014 -1.550336  2.422158
  C     6.581828  2.173810  2.202582
  C     4.994914 -2.110728  1.763153
  C     5.399187  1.591765  1.646030
  N     7.158696 -1.288928  1.609111
  N     7.606977  2.421919  1.391698
  N     5.143376 -2.247638  0.476090
  N     5.457417  1.483615  0.320401
  N     4.396112 -2.142220  4.258384
  N     4.992497  1.627092  4.183353
  S     3.702298 -2.682253  2.851761
  S     4.119479  1.349451  2.786132
  S     6.592708 -1.643315  0.084255
  S     6.965426  2.084009 -0.160237
  S     5.950127 -1.577424  4.188892
  S     6.540623  2.252172  3.919929
