16  
    
  C    10.228529  0.441839  2.598515
  C    10.582697  4.302839  2.879024
  C     9.038810 -0.175991  1.971162
  C     9.339976  3.779552  2.302138
  N    11.283338  0.612697  1.796219
  N    11.582520  4.275726  2.024727
  N     9.290124 -0.547653  0.709351
  N     9.401865  3.522440  0.970251
  N     8.336047  0.570202  4.379201
  N     8.944746  4.152864  4.869515
  S     7.623550 -0.213825  3.054082
  S     8.081894  3.824394  3.515786
  S    10.824937  0.036582  0.300760
  S    10.958584  3.752993  0.562568
  S     9.961822  0.907153  4.261908
  S    10.538088  4.643232  4.597101
