16  
    
  C     9.097006 -0.543347  2.531238
  C     9.545245  3.486430  2.771080
  C     7.914152 -0.922100  1.786467
  C     8.317570  3.194389  2.122961
  N    10.220459 -0.475183  1.770832
  N    10.571357  3.289963  1.952905
  N     8.096478 -1.098446  0.479363
  N     8.310376  2.814733  0.836082
  N     7.211190 -0.624545  4.212857
  N     7.854801  3.696032  4.600759
  S     6.574541 -1.168708  2.758249
  S     7.007006  3.385883  3.206798
  S     9.746283 -0.907274  0.240240
  S     9.967929  2.892883  0.464525
  S     8.836060 -0.347394  4.230658
  S     9.472778  4.138039  4.451596
