16  
    
  C    12.791135  1.689391  3.456807
  C    12.274670  5.045811  3.404296
  C    11.532239  1.262992  2.878432
  C    11.119006  4.585385  2.658092
  N    13.840828  1.662420  2.625301
  N    13.394195  5.228528  2.673696
  N    11.669067  0.992215  1.570840
  N    11.406841  4.495701  1.324173
  N    11.148409  1.723000  5.327962
  N    10.440995  4.619153  5.110816
  S    10.301287  1.283681  4.008145
  S     9.722239  4.274253  3.643049
  S    13.248931  1.201684  1.158441
  S    13.048364  4.903745  1.138794
  S    12.777176  1.899389  5.202409
  S    11.999398  5.102742  5.062535
