16  
    
  C     6.039760 -2.262695  1.807321
  C     6.072627  1.560822  1.860037
  C     4.797339 -2.631996  1.147374
  C     4.743486  1.690025  1.265500
  N     7.079426 -2.236848  0.937498
  N     7.042291  1.414796  0.965374
  N     4.857053 -2.732284 -0.205639
  N     4.737440  1.624906 -0.064750
  N     4.238237 -2.100506  3.635984
  N     4.472352  2.176807  3.783481
  S     3.388921 -2.454495  2.213536
  S     3.544151  1.960523  2.444093
  S     6.431517 -2.515725 -0.574416
  S     6.340112  1.444036 -0.527719
  S     5.894061 -2.067393  3.507582
  S     6.091127  1.902707  3.564683
