16  
    
  C    10.263540  0.583576  2.999893
  C    10.615081  4.560194  2.879194
  C     9.095135  0.009645  2.352850
  C     9.370054  4.155828  2.246125
  N    11.177880  1.001273  2.156965
  N    11.612969  4.817498  2.061179
  N     9.314530 -0.194574  1.056666
  N     9.435648  4.145256  0.918126
  N     8.715134  0.065065  4.934982
  N     9.100623  3.923925  4.814949
  S     7.966705 -0.487377  3.541468
  S     8.165063  3.939841  3.446522
  S    10.735673  0.532458  0.644095
  S    11.047429  4.459701  0.508584
  S    10.273372  0.617078  4.735235
  S    10.715035  4.341086  4.615910
