16  
    
  C     6.235919 -1.647597  2.155237
  C     6.592413  2.052107  2.142851
  C     5.159649 -2.406281  1.487717
  C     5.326433  1.677301  1.507638
  N     7.279351 -1.344414  1.392426
  N     7.609387  2.283224  1.310857
  N     5.426450 -2.569378  0.218853
  N     5.412060  1.443262  0.198509
  N     4.344183 -2.051766  3.932648
  N     4.810051  1.944369  3.984012
  S     3.811415 -2.845159  2.522777
  S     4.011186  1.508452  2.618326
  S     6.800966 -1.819987 -0.138174
  S     6.998318  1.983999 -0.253134
  S     5.945257 -1.554785  3.926430
  S     6.422640  2.297702  3.807160
