16  
    
  C    12.063393  1.277368  3.381658
  C    12.210772  5.132911  3.139106
  C    10.886144  0.849609  2.759800
  C    10.933997  4.791176  2.567134
  N    13.180543  1.210351  2.662518
  N    13.214786  5.119068  2.347451
  N    11.050402  0.522967  1.500467
  N    11.006732  4.326914  1.315046
  N    10.132692  1.399931  5.190593
  N    10.564390  5.294550  5.070700
  S     9.453540  0.724138  3.801413
  S     9.640378  4.900278  3.759537
  S    12.676298  0.772444  1.151887
  S    12.696275  4.441320  0.952518
  S    11.800554  1.638958  5.075153
  S    12.161299  5.563295  4.803426
