16  
    
  C     7.266483 -1.433921  2.254094
  C     7.263267  2.229817  2.084776
  C     6.017587 -1.879407  1.663219
  C     6.037313  1.666669  1.486034
  N     8.291778 -1.323185  1.381483
  N     8.266766  2.346872  1.258997
  N     6.144608 -2.233735  0.388173
  N     6.136961  1.289724  0.215427
  N     5.399137 -1.243330  3.999263
  N     5.592370  2.081411  4.018959
  S     4.723630 -2.091138  2.724922
  S     4.747398  1.605316  2.648460
  S     7.619787 -1.764064 -0.075583
  S     7.722104  1.815427 -0.263541
  S     7.040754 -0.926344  3.920144
  S     7.176901  2.447252  3.818128
