16  
    
  C    12.089597  1.599901  3.455590
  C    12.142821  4.977566  3.809800
  C    10.996047  0.826955  2.842124
  C    10.891175  4.608573  3.196744
  N    13.100567  1.851289  2.621761
  N    13.005852  5.451096  2.917213
  N    11.091990  0.750607  1.521807
  N    10.859012  4.632999  1.892055
  N    10.277411  1.077602  5.309893
  N    10.595137  4.633008  5.824549
  S     9.722261  0.369262  3.892566
  S     9.665816  4.322375  4.507623
  S    12.528154  1.399336  1.121710
  S    12.298801  5.202824  1.416938
  S    11.815837  1.724792  5.140198
  S    12.162690  5.014963  5.521341
