16  
    
  C    10.886212  0.808061  2.946473
  C    10.888022  4.410756  3.326862
  C     9.686293  0.193499  2.342978
  C     9.737069  3.808413  2.726605
  N    11.942808  0.873916  2.145226
  N    11.917519  4.771890  2.582980
  N     9.786828  0.031573  1.031927
  N     9.965353  3.673475  1.417145
  N     9.292028  0.236898  4.941100
  N     9.187817  4.000655  5.264850
  S     8.442485 -0.227941  3.589210
  S     8.423430  3.572584  3.854874
  S    11.380418  0.445703  0.639601
  S    11.533912  4.191815  1.080200
  S    10.857439  0.789734  4.676080
  S    10.670067  4.666773  5.069993
