16  
    
  C    12.498408  1.754083  3.415173
  C    12.808852  5.392655  3.435511
  C    11.310245  1.276900  2.713566
  C    11.621975  4.956481  2.729952
  N    13.533522  1.964109  2.593519
  N    13.825851  5.615430  2.569414
  N    11.395256  1.290299  1.361931
  N    11.682002  4.874092  1.404804
  N    10.827633  1.065532  5.212033
  N    11.042554  5.009517  5.224009
  S    10.103463  0.675118  3.807994
  S    10.378736  4.499670  3.784458
  S    12.949754  1.680864  1.028455
  S    13.265779  5.254085  1.002435
  S    12.402352  1.552880  5.114265
  S    12.576731  5.582871  5.162656
