16  
    
  C     5.673649 -2.001063  1.697336
  C     5.203940  1.475479  1.701953
  C     4.428394 -2.466462  1.158401
  C     4.022610  0.749031  1.180879
  N     6.672545 -1.935086  0.810868
  N     6.156486  1.840987  0.844958
  N     4.538304 -2.777337 -0.131451
  N     4.106575  0.571938 -0.125014
  N     4.100595 -2.361849  3.737855
  N     3.548274  1.114778  3.650158
  S     3.215221 -2.689231  2.353858
  S     2.744637  0.615746  2.298104
  S     6.082738 -2.401962 -0.627257
  S     5.548619  1.317476 -0.638360
  S     5.638783 -1.830704  3.392527
  S     5.186546  1.495237  3.402565
