16  
    
  C    10.151030  0.390102  2.831019
  C    10.699207  4.352510  2.802976
  C     8.964622 -0.097858  2.221217
  C     9.563931  3.781953  2.149654
  N    11.095549  0.797659  1.981638
  N    11.743542  4.545783  2.025236
  N     8.988533 -0.178239  0.879594
  N     9.696412  3.682908  0.817625
  N     8.559971 -0.053718  4.744470
  N     8.986725  3.940098  4.644859
  S     7.716686 -0.411474  3.362298
  S     8.137753  3.711660  3.221102
  S    10.507479  0.475694  0.453934
  S    11.190479  4.204624  0.447670
  S    10.014718  0.738703  4.507730
  S    10.584563  4.499772  4.496021
