16  
    
  C    12.516622  1.569196  3.468652
  C    12.347725  5.359313  3.484021
  C    11.322310  1.099379  2.837616
  C    11.121959  4.735861  2.948277
  N    13.451112  1.797856  2.530474
  N    13.376806  5.532011  2.607887
  N    11.345657  0.892861  1.501510
  N    11.258722  4.493538  1.626747
  N    10.892496  1.174716  5.411103
  N    10.652898  4.938175  5.403108
  S    10.053216  0.823629  4.047506
  S     9.808042  4.595669  4.045037
  S    12.915068  1.331473  1.075204
  S    12.728503  5.046823  1.149635
  S    12.367553  1.830038  5.199471
  S    12.214445  5.485762  5.209585
