16  
    
  C     8.981368 -0.198045  2.340043
  C     9.473339  3.245293  2.713846
  C     7.864171 -0.901213  1.821068
  C     8.194445  2.951895  2.133195
  N    10.058660 -0.229250  1.539445
  N    10.507713  3.188266  1.854559
  N     8.012040 -1.329884  0.544767
  N     8.205660  2.654026  0.825887
  N     7.224186 -0.379581  4.252732
  N     7.687201  3.276094  4.656453
  S     6.526011 -1.119844  2.961897
  S     6.909997  2.877737  3.254676
  S     9.598130 -0.945959  0.105158
  S     9.818636  2.723406  0.400420
  S     8.824526  0.164303  4.028402
  S     9.283534  3.639242  4.398459
