16  
    
  C    12.543490  1.566622  3.383492
  C    12.910509  5.457138  3.582109
  C    11.363209  0.893738  2.719003
  C    11.815024  4.865411  2.857543
  N    13.457607  1.875480  2.483031
  N    13.963052  5.803493  2.913855
  N    11.452482  0.792465  1.423623
  N    12.061613  4.812245  1.566807
  N    10.902003  1.007426  5.257459
  N    10.865198  4.928462  5.165856
  S    10.092021  0.589835  3.851950
  S    10.318932  4.663696  3.676836
  S    12.852441  1.486007  0.960124
  S    13.578098  5.419690  1.279874
  S    12.423802  1.733763  5.111661
  S    12.358330  5.552997  5.323011
