16  
    
  C    10.285195  0.505024  2.945347
  C    10.826707  4.212027  2.917765
  C     9.123099 -0.070028  2.287743
  C     9.555885  4.142538  2.230388
  N    11.247220  0.853535  2.102105
  N    11.806081  4.592214  2.098813
  N     9.092122  0.032882  0.961725
  N     9.597559  4.380447  0.903266
  N     8.684914 -0.238188  4.845153
  N     8.984515  3.630998  4.682368
  S     7.910045 -0.601095  3.412812
  S     8.236568  3.840660  3.217343
  S    10.571132  0.723197  0.588767
  S    11.173120  4.725462  0.588601
  S    10.168873  0.505777  4.753602
  S    10.562011  4.255517  4.769406
