16  
    
  C     6.155826 -1.611710  2.401651
  C     6.634143  2.094155  2.203222
  C     5.015547 -2.157463  1.720726
  C     5.429486  1.630018  1.607930
  N     7.191593 -1.333141  1.592238
  N     7.556743  2.456418  1.310403
  N     5.103225 -2.205109  0.394755
  N     5.465655  1.448079  0.298459
  N     4.392553 -2.038416  4.228688
  N     4.970785  1.666019  4.175469
  S     3.724790 -2.598917  2.799137
  S     4.159301  1.283221  2.769944
  S     6.629421 -1.591507  0.047740
  S     6.935243  2.117754 -0.162909
  S     6.009140 -1.655083  4.080370
  S     6.494159  2.253959  3.947385
