16  
    
  C     4.056451 -2.678375  1.558708
  C     4.211067  1.461743  1.549452
  C     2.863035 -3.148109  0.951162
  C     2.898466  1.181896  1.010191
  N     5.168628 -2.772933  0.843840
  N     5.246134  1.302404  0.706478
  N     3.037502 -3.520817 -0.327821
  N     2.923421  0.967634 -0.302331
  N     2.331875 -2.608902  3.377853
  N     2.489209  1.391514  3.548822
  S     1.544226 -3.245858  2.068435
  S     1.618513  1.334870  2.172927
  S     4.656445 -3.290181 -0.666489
  S     4.514954  1.058369 -0.777673
  S     3.978994 -2.318418  3.226204
  S     4.154631  1.634003  3.322526
