16  
    
  C     6.342159 -1.728831  1.637006
  C     6.440005  2.159596  1.958565
  C     5.165710 -2.284323  0.976463
  C     5.307052  1.483817  1.382983
  N     7.357676 -1.361052  0.835438
  N     7.461552  2.377687  1.165022
  N     5.463487 -2.565523 -0.294140
  N     5.427523  1.178534  0.104716
  N     4.505191 -1.785101  3.375724
  N     4.551695  2.008034  3.737996
  S     3.806091 -2.515849  2.066957
  S     3.934157  1.246375  2.405460
  S     6.896157 -1.895639 -0.663704
  S     6.964859  1.777230 -0.368075
  S     6.094036 -1.394659  3.362014
  S     6.106332  2.580540  3.605355
