16  
    
  C     7.737126 -0.894436  1.773281
  C     7.769812  2.954690  2.322327
  C     6.491659 -1.338758  1.198748
  C     6.633331  2.351739  1.591935
  N     8.696800 -0.776117  0.844171
  N     8.859508  3.119005  1.600176
  N     6.609388 -1.778536 -0.088503
  N     6.792056  2.217560  0.270995
  N     6.107610 -1.108527  3.768759
  N     5.907708  2.695689  4.052328
  S     5.224445 -1.442780  2.405892
  S     5.281957  2.119982  2.614736
  S     8.186393 -1.436899 -0.578919
  S     8.492544  2.647649  0.086581
  S     7.744999 -0.668184  3.497702
  S     7.477694  3.245850  4.015142
