16  
    
  C     9.493737 -0.530852  2.707413
  C     9.394185  3.314398  2.553517
  C     8.222968 -0.914651  2.123160
  C     8.098871  3.025898  1.935031
  N    10.522243 -0.469666  1.884874
  N    10.439039  3.279085  1.741875
  N     8.273426 -1.171845  0.842971
  N     8.212611  2.741839  0.652602
  N     7.706706 -0.687183  4.623418
  N     7.484149  3.348231  4.389424
  S     6.850270 -1.019506  3.201382
  S     6.732176  2.937512  2.985575
  S     9.880484 -0.957408  0.419238
  S     9.777490  2.874600  0.232855
  S     9.341401 -0.266714  4.451076
  S     9.096595  3.481821  4.213569
