16  
    
  C     4.517036 -2.135469  1.911914
  C     4.048395  1.196108  1.171551
  C     3.357443 -2.679252  1.263124
  C     2.821867  0.687778  0.537672
  N     5.627791 -2.004796  1.124581
  N     5.138068  1.233187  0.396807
  N     3.558484 -2.901311 -0.052125
  N     2.983358  0.509919 -0.767081
  N     2.701697 -2.430323  3.718204
  N     2.285472  0.908769  2.967704
  S     2.028634 -2.965751  2.299113
  S     1.529921  0.396713  1.603637
  S     5.134354 -2.544833 -0.376050
  S     4.643603  0.780325 -1.087264
  S     4.218823 -1.770931  3.582550
  S     3.865986  1.439287  2.898244
