16  
    
  C     5.136922 -2.267630  1.540167
  C     4.965599  1.525502  2.038881
  C     3.993077 -2.967996  0.975860
  C     3.852918  0.873885  1.410369
  N     6.225556 -2.220939  0.743014
  N     6.051063  1.624579  1.277243
  N     4.122916 -3.316560 -0.303319
  N     4.043869  0.612861  0.118681
  N     3.405883 -2.348328  3.395314
  N     3.086428  1.403957  3.745501
  S     2.660095 -3.043786  2.104967
  S     2.429564  0.809460  2.336051
  S     5.698005 -2.914619 -0.698369
  S     5.620397  1.054092 -0.237393
  S     4.983904 -1.796154  3.242188
  S     4.504645  2.153364  3.647285
