16  
    
  C    12.541323  1.527748  3.686638
  C    12.364358  5.153010  3.396988
  C    11.322258  0.923538  3.048484
  C    11.068782  4.765863  2.811939
  N    13.511049  1.801932  2.850417
  N    13.418086  5.177982  2.617388
  N    11.377041  0.901117  1.727216
  N    11.219495  4.577768  1.526199
  N    10.821909  1.456333  5.539889
  N    10.677585  4.932709  5.407356
  S    10.085868  0.840388  4.241586
  S     9.781270  4.574044  4.012000
  S    12.911582  1.410672  1.288060
  S    12.787974  4.842690  1.089409
  S    12.437625  1.717584  5.429035
  S    12.267047  5.420813  5.084581
