16  
    
  C     4.098784 -2.662894  1.572939
  C     4.174962  1.455566  1.575646
  C     2.878166 -3.169160  0.984523
  C     2.907873  1.211625  0.992494
  N     5.186799 -2.689804  0.783110
  N     5.226232  1.338547  0.749818
  N     3.011101 -3.533802 -0.298939
  N     2.945779  0.976888 -0.335079
  N     2.331337 -2.603064  3.409577
  N     2.494232  1.438094  3.606641
  S     1.558939 -3.205863  2.070206
  S     1.657347  1.400976  2.185370
  S     4.662038 -3.316685 -0.699720
  S     4.518461  1.036831 -0.776231
  S     3.994369 -2.316420  3.260193
  S     4.153493  1.605883  3.326721
