16  
    
  C    12.629606  1.566892  3.363261
  C    12.683136  5.309714  3.254586
  C    11.436374  1.208481  2.728942
  C    11.483013  4.697048  2.651552
  N    13.603609  1.895744  2.560099
  N    13.613427  5.638555  2.370673
  N    11.465002  1.172857  1.402384
  N    11.494862  4.671592  1.338206
  N    10.988354  1.036740  5.312065
  N    11.162209  5.021720  5.236058
  S    10.129953  0.894935  3.869691
  S    10.309479  4.466779  3.992656
  S    13.016490  1.774724  1.041949
  S    12.985837  5.252371  0.903304
  S    12.516701  1.662168  5.123568
  S    12.695388  5.534008  4.964196
