16  
    
  C     5.364892 -2.242010  1.546847
  C     5.021864  1.783142  1.678881
  C     4.230991 -2.809152  0.893561
  C     3.972768  0.965155  1.140761
  N     6.397117 -2.005081  0.694567
  N     6.109033  1.876885  0.925816
  N     4.458970 -3.142176 -0.379750
  N     4.293089  0.258290  0.054844
  N     3.454759 -2.343377  3.320471
  N     3.008359  1.859401  3.385993
  S     2.860207 -3.020716  1.888237
  S     2.544900  0.838312  2.124126
  S     5.950349 -2.539804 -0.788390
  S     5.848470  0.751802 -0.304991
  S     5.063680 -1.761253  3.203554
  S     4.632950  2.322839  3.270574
