16  
    
  C    12.568469  1.628477  3.406926
  C    12.837897  5.257957  3.303074
  C    11.405388  1.272167  2.717003
  C    11.556900  4.789582  2.747521
  N    13.555278  1.940042  2.594780
  N    13.719398  5.569490  2.403300
  N    11.463702  1.307340  1.411522
  N    11.611228  4.721407  1.428731
  N    10.929991  0.923038  5.237522
  N    11.082972  5.091893  5.292665
  S    10.046713  0.803204  3.828003
  S    10.300989  4.453239  3.904147
  S    12.993517  1.733264  1.018130
  S    13.102467  5.332882  0.940218
  S    12.453104  1.650034  5.149711
  S    12.693473  5.573220  4.984651
