16  
    
  C    11.322077  1.069618  3.274364
  C    11.436213  4.856963  2.804806
  C    10.039479  0.687625  2.653444
  C    10.214505  4.256886  2.228368
  N    12.268124  1.328491  2.345035
  N    12.447518  5.070466  1.965539
  N    10.061285  0.543031  1.318043
  N    10.385753  4.009798  0.967257
  N     9.767785  0.621928  5.306771
  N     9.795233  4.444106  4.728071
  S     8.903035  0.312863  3.938963
  S     8.957966  3.949726  3.356709
  S    11.655287  0.888182  0.898797
  S    11.885974  4.587579  0.540788
  S    11.224932  1.320765  5.001613
  S    11.345389  5.038334  4.511783
