16  
    
  C    11.979571  1.475251  3.603098
  C    11.895576  5.038075  3.706122
  C    10.902684  0.855165  2.881316
  C    10.682474  4.515581  3.211386
  N    12.877570  2.018348  2.788837
  N    12.836318  5.387190  2.856520
  N    11.079973  0.637408  1.578492
  N    10.706476  4.554304  1.885889
  N    10.504993  0.628423  5.399625
  N    10.477378  4.283288  5.820034
  S     9.720176  0.257735  4.020115
  S     9.576147  3.896447  4.464401
  S    12.409902  1.568732  1.230561
  S    12.197368  5.018411  1.376936
  S    11.920272  1.474147  5.329556
  S    11.932062  5.002582  5.467851
