16  
    
  C     5.922116 -2.196633  1.711280
  C     5.422768  1.182954  1.730595
  C     4.614396 -2.446016  1.155130
  C     4.169576  0.830870  1.116669
  N     6.831376 -2.085297  0.762054
  N     6.498278  1.098213  0.942264
  N     4.607107 -2.678555 -0.172531
  N     4.231100  0.580951 -0.184690
  N     4.298287 -2.317963  3.753824
  N     3.737164  1.213644  3.644615
  S     3.367669 -2.569920  2.380200
  S     2.905180  0.690116  2.286893
  S     6.147183 -2.256132 -0.706142
  S     5.873023  0.797751 -0.583377
  S     5.972293 -1.987579  3.403228
  S     5.310042  1.678458  3.398883
