16  
    
  C    11.968869  1.287494  3.323819
  C    11.762841  4.944817  3.656018
  C    10.860614  0.780951  2.617064
  C    10.636610  4.397839  3.012919
  N    12.997352  1.579509  2.539924
  N    12.902528  5.104613  2.865838
  N    11.058512  0.483795  1.320882
  N    10.824208  4.306393  1.710883
  N    10.301698  0.758492  5.147679
  N     9.936138  4.426289  5.491614
  S     9.516921  0.490034  3.714253
  S     9.269132  4.002204  4.028903
  S    12.531722  1.169807  0.991669
  S    12.350272  4.589535  1.352691
  S    11.825640  1.470575  5.087061
  S    11.479623  5.033125  5.394299
