16  
    
  C     7.827848 -0.753472  2.109385
  C     8.273685  2.858099  2.451270
  C     6.743270 -1.451236  1.493281
  C     7.011736  2.586259  1.877434
  N     8.859555 -0.377375  1.309990
  N     9.260046  2.933078  1.564695
  N     6.970301 -1.700997  0.182204
  N     7.052345  2.592860  0.546804
  N     6.087191 -1.258212  3.958837
  N     6.627146  3.000184  4.328857
  S     5.385445 -1.688014  2.527449
  S     5.726340  2.427290  3.049090
  S     8.419826 -0.984725 -0.167476
  S     8.537709  2.844356  0.040015
  S     7.600904 -0.595200  3.817420
  S     8.252968  2.967351  4.177315
