16  
    
  C     5.841495 -2.160109  1.653203
  C     5.263775  1.391782  1.693130
  C     4.530437 -2.527135  1.108499
  C     3.987388  0.936890  1.147780
  N     6.741899 -2.005200  0.709792
  N     6.230173  1.558451  0.786906
  N     4.536753 -2.722543 -0.187463
  N     4.066815  0.637115 -0.151635
  N     4.241247 -2.320309  3.692103
  N     3.570900  1.204634  3.657131
  S     3.285986 -2.622336  2.325290
  S     2.802688  0.626473  2.327742
  S     6.046298 -2.385727 -0.732940
  S     5.612918  1.016736 -0.664407
  S     5.813869 -1.820207  3.387151
  S     5.188885  1.568953  3.492756
