16  
    
  C     4.523939 -2.661611  1.493094
  C     5.186457  1.461922  1.674433
  C     3.236127 -2.795577  0.818739
  C     3.905710  1.211374  1.076453
  N     5.532657 -2.376214  0.714615
  N     6.129867  1.682057  0.751222
  N     3.298612 -2.809859 -0.493849
  N     3.904602  1.135933 -0.242722
  N     2.717669 -2.780516  3.362176
  N     3.530434  1.211570  3.694534
  S     1.901085 -2.929385  1.896608
  S     2.643318  0.989387  2.266624
  S     4.910809 -2.595534 -0.820202
  S     5.537467  1.404346 -0.776922
  S     4.379377 -2.681234  3.253006
  S     5.191155  1.524977  3.421637
