16  
    
  C     7.214670 -1.313836  2.328366
  C     7.839914  2.818834  2.315804
  C     6.153172 -1.904274  1.544718
  C     6.655256  2.276025  1.684167
  N     8.270393 -0.953831  1.595289
  N     8.839159  3.067546  1.492417
  N     6.319955 -1.790130  0.210647
  N     6.787512  2.134798  0.388505
  N     5.244644 -1.837959  3.929373
  N     6.022485  2.468540  4.119872
  S     4.733767 -2.322659  2.478556
  S     5.260484  2.068227  2.726601
  S     7.832595 -1.170340  0.004447
  S     8.297337  2.609945 -0.013340
  S     6.801542 -1.252654  3.985434
  S     7.583649  3.036943  4.024112
