16  
    
  C     9.750504  0.026418  2.867175
  C     9.776961  3.565660  2.699177
  C     8.625516 -0.603938  2.220220
  C     8.482724  3.450778  2.070057
  N    10.703330  0.325771  2.044376
  N    10.782188  3.731646  1.843000
  N     8.630493 -0.681320  0.914115
  N     8.482920  3.453735  0.743280
  N     7.977691 -0.448312  4.738259
  N     8.094735  3.158791  4.687688
  S     7.290979 -0.996826  3.305572
  S     7.308484  2.924278  3.229963
  S    10.094477 -0.000046  0.482678
  S    10.095910  3.612796  0.370194
  S     9.568626  0.121434  4.639487
  S     9.701967  3.460905  4.466223
