16  
    
  C    12.133089  1.611897  3.402003
  C    12.270551  5.357161  3.572967
  C    11.004416  1.054924  2.614647
  C    11.149128  4.723658  2.834017
  N    13.196963  1.826009  2.653341
  N    13.312483  5.585129  2.777657
  N    11.271686  0.807217  1.346035
  N    11.439116  4.376762  1.615737
  N    10.151466  1.203667  5.110923
  N    10.343242  5.090127  5.245600
  S     9.594941  0.549244  3.624468
  S     9.778824  4.511149  3.832302
  S    12.851671  1.245420  1.085980
  S    12.923074  4.856291  1.301701
  S    11.739259  1.781374  5.074252
  S    11.928088  5.623873  5.311271
