16  
    
  C     5.928268 -2.174572  1.893263
  C     5.649146  1.307618  1.760301
  C     4.616884 -2.381030  1.300000
  C     4.487560  0.757907  1.124990
  N     6.960601 -2.099078  1.017381
  N     6.684562  1.409789  0.916946
  N     4.654246 -2.580861 -0.022985
  N     4.643405  0.434527 -0.152974
  N     4.203532 -2.460395  3.863863
  N     3.862198  1.201254  3.569169
  S     3.332003 -2.602983  2.401226
  S     3.097110  0.679919  2.172292
  S     6.217296 -2.291495 -0.512679
  S     6.166664  0.875287 -0.529913
  S     5.852609 -2.139410  3.622563
  S     5.508516  1.378188  3.462844
