16  
    
  C     8.486865 -1.059072  2.341808
  C     8.205749  2.676927  2.069658
  C     7.308651 -1.435656  1.641243
  C     7.044866  2.286294  1.365236
  N     9.572647 -0.855442  1.562681
  N     9.258823  2.803887  1.289674
  N     7.458280 -1.519257  0.274677
  N     7.157059  2.208888  0.024088
  N     6.701222 -1.185456  4.200874
  N     6.505005  2.426561  3.910302
  S     6.008271 -1.766783  2.817432
  S     5.734372  2.029905  2.447636
  S     9.056268 -1.082922 -0.017095
  S     8.779940  2.592213 -0.295066
  S     8.326752 -0.936978  4.104366
  S     8.100896  3.026903  3.771476
