16  
    
  C     9.750127 -0.048633  2.887581
  C     9.777485  3.654148  2.736866
  C     8.509086 -0.556265  2.255743
  C     8.488741  3.392121  2.145555
  N    10.709072  0.388871  2.016204
  N    10.815715  3.764223  1.915806
  N     8.654113 -0.696133  0.936793
  N     8.509443  3.492261  0.809310
  N     7.945513 -0.302328  4.724849
  N     8.076611  3.196192  4.646163
  S     7.236982 -1.026074  3.313348
  S     7.182103  2.951876  3.284603
  S    10.143747 -0.090330  0.497926
  S    10.119434  3.617503  0.320383
  S     9.558667  0.089673  4.626311
  S     9.690654  3.414090  4.400555
