16  
    
  C     7.291606 -1.513498  2.229677
  C     7.454618  2.213451  2.191988
  C     6.083056 -2.104341  1.648975
  C     6.239457  1.776753  1.573471
  N     8.265340 -1.290915  1.375974
  N     8.543947  2.293024  1.435475
  N     6.224144 -2.489054  0.402541
  N     6.364510  1.487016  0.283202
  N     5.434786 -1.504510  4.064841
  N     5.719961  2.133762  4.091830
  S     4.714074 -2.156078  2.679883
  S     4.954763  1.583776  2.702607
  S     7.715652 -2.004012 -0.048434
  S     8.028967  1.696701 -0.085862
  S     7.059781 -1.179876  3.942386
  S     7.291644  2.658865  3.840061
