16  
    
  C     7.260035 -1.554169  2.127799
  C     7.577817  2.647338  2.186618
  C     6.098281 -2.004694  1.452076
  C     6.359937  2.210664  1.542845
  N     8.319180 -1.235584  1.350929
  N     8.513191  2.927927  1.290430
  N     6.256895 -2.000701  0.118243
  N     6.446399  2.007209  0.239916
  N     5.566548 -2.131528  4.025814
  N     5.905274  2.283057  4.132543
  S     4.936256 -2.618858  2.573084
  S     5.092701  1.957825  2.705280
  S     7.818534 -1.458941 -0.210396
  S     7.937229  2.533578 -0.173264
  S     7.100975 -1.543143  3.871067
  S     7.548553  2.669257  3.933910
