16  
    
  C     4.601001 -2.123423  1.540428
  C     5.056961  1.408625  1.913687
  C     3.536387 -2.852087  0.818226
  C     3.713022  1.237337  1.397293
  N     5.658990 -1.847105  0.815174
  N     6.018262  1.369528  1.019076
  N     3.813862 -3.070661 -0.438410
  N     3.656216  1.155163  0.069474
  N     2.895212 -2.848239  3.359344
  N     3.459821  1.771080  3.819458
  S     2.260261 -3.394464  1.917854
  S     2.510777  1.427318  2.516464
  S     5.284470 -2.360802 -0.721218
  S     5.245568  1.334339 -0.455667
  S     4.370181 -2.102812  3.303855
  S     5.044854  1.469383  3.673429
