16  
    
  C     5.844163 -2.340235  1.998408
  C     5.766604  1.322225  1.770129
  C     4.601781 -2.569023  1.362376
  C     4.604902  0.857059  1.096740
  N     6.852939 -2.090219  1.158088
  N     6.793548  1.625654  0.992161
  N     4.666447 -2.596591  0.033048
  N     4.758687  0.602658 -0.209628
  N     4.130557 -2.501728  3.909454
  N     3.978323  1.003019  3.631572
  S     3.289087 -2.617085  2.482208
  S     3.226972  0.530674  2.206247
  S     6.280883 -2.341635 -0.345331
  S     6.366087  1.054715 -0.535264
  S     5.727806 -2.084426  3.729656
  S     5.572747  1.357048  3.501414
