16  
    
  C     8.886276 -0.357658  2.541846
  C     8.447987  3.205344  2.506637
  C     7.636402 -0.652920  1.853696
  C     7.336751  2.641532  1.858215
  N     9.865305  0.000938  1.721677
  N     9.479523  3.505460  1.740155
  N     7.755335 -0.688851  0.547235
  N     7.430475  2.601993  0.536918
  N     7.159684 -0.744466  4.447523
  N     6.819463  2.796662  4.395823
  S     6.338794 -0.921156  3.050519
  S     6.207172  2.153461  3.033134
  S     9.312630 -0.182524  0.128146
  S     8.926016  3.301999  0.194509
  S     8.733938 -0.136137  4.320588
  S     8.348661  3.368213  4.282047
