16  
    
  C     8.755032 -0.257914  2.517871
  C     8.663698  3.087877  2.553432
  C     7.551982 -0.705191  1.855097
  C     7.394203  2.664074  1.895333
  N     9.734481  0.085266  1.699341
  N     9.752123  3.237402  1.749118
  N     7.692928 -0.862187  0.553056
  N     7.566328  2.547941  0.593920
  N     7.024764 -0.710503  4.381494
  N     6.746733  2.900935  4.329566
  S     6.247707 -0.965589  2.935483
  S     5.968622  2.438467  2.934375
  S     9.221262 -0.306592  0.161794
  S     9.183950  2.797205  0.284508
  S     8.512532 -0.094462  4.207351
  S     8.343111  3.254856  4.262610
