16  
    
  C    11.935034  1.382139  3.441529
  C    11.835402  4.838476  3.716105
  C    10.827059  0.849485  2.753294
  C    10.692278  4.169393  3.150832
  N    13.001277  1.574624  2.690251
  N    12.728558  5.272659  2.877748
  N    10.921026  0.865394  1.418760
  N    10.759551  4.080374  1.811788
  N    10.381730  0.741806  5.344428
  N    10.091645  4.474870  5.651706
  S     9.672606  0.224454  3.890451
  S     9.356177  3.890429  4.270969
  S    12.517986  1.428452  1.110018
  S    12.228457  4.859960  1.365365
  S    11.966149  1.349890  5.232397
  S    11.629669  4.982241  5.448313
