16  
    
  C    12.832541  1.557769  3.540354
  C    12.326901  4.964904  3.482713
  C    11.566376  1.283626  3.002483
  C    11.179950  4.535469  2.655480
  N    13.886275  1.549551  2.715550
  N    13.416727  5.204570  2.695322
  N    11.636889  1.114065  1.685022
  N    11.424319  4.359150  1.384529
  N    10.968932  1.892251  5.415242
  N    10.438877  4.375644  5.138179
  S    10.157884  1.377754  4.054923
  S     9.769763  4.226482  3.575550
  S    13.249057  1.296329  1.247103
  S    12.950238  4.821077  1.143205
  S    12.652914  1.884474  5.307464
  S    11.941833  5.173055  5.169122
