16  
    
  C     5.415067 -2.180009  1.522951
  C     5.136408  1.599713  1.574628
  C     4.266890 -2.631661  0.766509
  C     4.153043  0.781218  0.966121
  N     6.556012 -2.017698  0.870815
  N     6.251378  1.746741  0.855783
  N     4.515670 -2.809359 -0.518055
  N     4.428428  0.459904 -0.287318
  N     3.523230 -2.457518  3.258880
  N     3.135785  1.811434  3.132721
  S     2.869726 -2.879404  1.788058
  S     2.637844  0.854226  1.850141
  S     6.137734 -2.480688 -0.738345
  S     5.969711  1.006235 -0.560227
  S     5.098441 -1.969404  3.276767
  S     4.723407  2.345888  3.043097
