16  
    
  C    12.655803  1.471160  3.571689
  C    12.901996  5.485184  3.757199
  C    11.495672  0.937781  2.913438
  C    11.757673  4.895878  3.077678
  N    13.716752  1.672109  2.798626
  N    13.907383  5.821990  2.968745
  N    11.679888  0.617394  1.647148
  N    11.926482  4.653269  1.756289
  N    10.815094  1.478568  5.375379
  N    11.064013  5.122044  5.570134
  S    10.145874  0.865449  3.976900
  S    10.356609  4.702621  4.107020
  S    13.243495  1.174929  1.282254
  S    13.440934  5.254224  1.420186
  S    12.388918  2.029285  5.259269
  S    12.636430  5.805295  5.423635
