16  
    
  C     5.371466 -2.128465  1.511588
  C     5.065416  1.794543  1.559333
  C     4.262797 -2.794825  0.854998
  C     4.042539  0.883598  1.098464
  N     6.512573 -1.987455  0.794380
  N     6.180493  1.824334  0.833155
  N     4.509427 -3.050752 -0.431292
  N     4.434568  0.236293 -0.006532
  N     3.544275 -2.441188  3.251636
  N     3.077451  1.853350  3.223037
  S     2.854312 -2.900978  1.825360
  S     2.560503  0.880238  2.027512
  S     6.023250 -2.454711 -0.767971
  S     5.899384  0.806192 -0.430807
  S     5.054060 -1.844878  3.175151
  S     4.656399  2.366332  3.187898
