16  
    
  C     8.444420 -0.961962  2.450171
  C     8.207288  2.613245  2.194620
  C     7.162252 -1.500723  2.027503
  C     7.041215  2.231007  1.477545
  N     9.400091 -0.970311  1.530540
  N     9.319671  2.681976  1.480449
  N     7.149645 -1.902538  0.763236
  N     7.243869  1.899451  0.220933
  N     6.776863 -0.667326  4.487617
  N     6.291472  2.428319  3.871831
  S     5.886272 -1.334655  3.240053
  S     5.607813  2.094030  2.395772
  S     8.650600 -1.548194  0.105314
  S     8.835598  2.258898 -0.111426
  S     8.383076 -0.408093  4.194207
  S     7.866681  2.823361  3.859928
