16  
    
  C     9.769380 -0.134821  2.534158
  C     9.712294  3.674169  2.584816
  C     8.513262 -0.702384  1.993123
  C     8.529514  3.112147  1.894975
  N    10.663292  0.183253  1.636686
  N    10.621121  4.038212  1.714567
  N     8.449060 -0.591128  0.692196
  N     8.618316  2.977726  0.565538
  N     8.303720 -0.601428  4.606281
  N     8.323083  3.015571  4.535948
  S     7.360428 -0.941786  3.256018
  S     7.366086  2.661965  3.143334
  S     9.899705  0.072420  0.170864
  S    10.141320  3.642687  0.132392
  S     9.804236 -0.054511  4.270344
  S     9.690886  3.972710  4.295617
