16  
    
  C    10.223716  0.487436  2.956663
  C    10.792469  4.252643  2.954528
  C     9.025700 -0.002707  2.307185
  C     9.569038  4.030400  2.180955
  N    11.157625  0.936328  2.110714
  N    11.843855  4.483402  2.182994
  N     9.127681  0.054356  0.981666
  N     9.654376  4.377800  0.879279
  N     8.630819 -0.152194  4.843343
  N     8.970860  3.700658  4.677450
  S     7.839254 -0.634588  3.438207
  S     8.197467  3.775356  3.213207
  S    10.588863  0.712011  0.567856
  S    11.261219  4.750535  0.603799
  S    10.178066  0.437431  4.647126
  S    10.517104  4.271287  4.648310
