16  
    
  C     5.918686 -2.148234  1.937513
  C     5.651922  1.359631  1.740141
  C     4.656329 -2.477072  1.300357
  C     4.504771  0.779184  1.105740
  N     6.929639 -2.163623  1.098971
  N     6.703117  1.481958  0.945216
  N     4.672711 -2.596038 -0.018605
  N     4.716043  0.459193 -0.168500
  N     4.201927 -2.491418  3.817979
  N     3.891953  1.137040  3.561176
  S     3.297210 -2.604659  2.449568
  S     3.164368  0.638956  2.171013
  S     6.224784 -2.287927 -0.464966
  S     6.248694  0.935915 -0.526225
  S     5.804120 -2.133757  3.699555
  S     5.559779  1.340561  3.485635
