16  
    
  C     9.979436 -0.038833  2.673328
  C     9.937020  3.833857  2.748041
  C     8.751082 -0.493546  2.018536
  C     9.006596  2.807949  2.262006
  N    10.993020  0.168325  1.834857
  N    10.918353  4.173097  1.920876
  N     8.880341 -0.671686  0.694911
  N     9.217548  2.472326  1.002251
  N     8.357861 -0.446638  4.590409
  N     8.467159  3.403856  4.714595
  S     7.495478 -0.722734  3.215161
  S     7.813299  2.503747  3.493711
  S    10.461831 -0.220010  0.331788
  S    10.573150  3.428633  0.459266
  S     9.939595  0.116928  4.401603
  S     9.582327  4.555695  4.316195
