16  
    
  C    12.171365  1.642008  3.310527
  C    12.273084  5.298517  3.617916
  C    11.103377  1.034837  2.604476
  C    11.192495  4.724371  2.898158
  N    13.282171  1.840780  2.591657
  N    13.320841  5.642106  2.900203
  N    11.349763  0.769160  1.321821
  N    11.485452  4.500301  1.574811
  N    10.308633  1.279647  5.058680
  N    10.515336  4.827727  5.423135
  S     9.649103  0.784400  3.550083
  S     9.800389  4.367664  4.015763
  S    12.879109  1.362899  1.035178
  S    12.961321  5.111943  1.355443
  S    11.915922  1.845932  4.993420
  S    11.973238  5.659810  5.276321
