16  
    
  C    11.183728  0.966164  3.310361
  C    11.590118  4.661230  2.768105
  C    10.002519  0.439771  2.741675
  C    10.339987  4.310511  2.184581
  N    12.185962  1.192550  2.484406
  N    12.619781  4.798605  1.952534
  N    10.032710  0.373414  1.417796
  N    10.377208  4.148256  0.896571
  N     9.561071  1.053552  5.289249
  N     9.916474  4.477333  4.710099
  S     8.754926  0.531226  3.986056
  S     9.062217  3.959422  3.341025
  S    11.592801  0.787952  0.957917
  S    11.905788  4.539777  0.413563
  S    11.186270  1.083628  5.075498
  S    11.537413  4.866308  4.465438
