16  
    
  C     5.068823 -2.377092  1.580513
  C     4.899583  1.564387  2.023719
  C     3.871303 -2.982986  1.057140
  C     3.733275  1.048796  1.376217
  N     6.112804 -2.312309  0.760390
  N     5.977165  1.767580  1.276709
  N     3.989789 -3.419405 -0.210717
  N     3.990889  0.719096  0.127210
  N     3.274353 -2.463752  3.500612
  N     3.112610  1.285524  3.822165
  S     2.490221 -2.863143  2.086728
  S     2.382336  0.720491  2.400468
  S     5.517522 -2.971852 -0.695200
  S     5.529159  1.210965 -0.213475
  S     4.854052 -1.919884  3.236417
  S     4.661683  1.859902  3.740346
