16  
    
  C    10.951037  0.710979  2.851244
  C    11.081759  4.150643  3.274991
  C     9.860633 -0.134411  2.378018
  C     9.780283  3.950591  2.632017
  N    11.883834  0.912040  1.953851
  N    12.150274  4.275067  2.510352
  N     9.965315 -0.395239  1.081794
  N     9.953297  3.866933  1.331026
  N     9.467623  0.623272  4.839344
  N     9.327430  4.377659  5.105258
  S     8.628765 -0.188769  3.608403
  S     8.516581  3.807102  3.758829
  S    11.425648  0.160448  0.604914
  S    11.513698  4.210881  0.931761
  S    11.031628  1.068358  4.501891
  S    10.998745  4.414313  5.002903
