16  
    
  C     3.348283 -3.177961  1.445761
  C     3.566010  0.606093  1.409905
  C     2.135523 -3.242615  0.680715
  C     2.326952  0.338183  0.708400
  N     4.451355 -3.074532  0.634402
  N     4.617256  0.686581  0.601966
  N     2.272729 -3.074397 -0.648133
  N     2.437174  0.312718 -0.620604
  N     1.332623 -3.490273  3.111796
  N     1.804314  0.275116  3.261483
  S     0.709848 -3.540142  1.594135
  S     0.961702  0.000795  1.780652
  S     3.903426 -2.861903 -0.920872
  S     4.009311  0.541634 -0.967273
  S     2.960747 -3.279853  3.177706
  S     3.402193  0.667144  3.100240
