16  
    
  C     9.766616 -0.450861  2.567228
  C     9.671986  3.392146  2.547543
  C     8.489168 -0.934635  2.016784
  C     8.445452  3.205014  1.946066
  N    10.729803 -0.303127  1.704285
  N    10.741400  3.661601  1.796134
  N     8.476563 -0.955399  0.701625
  N     8.515150  3.177688  0.630233
  N     8.076973 -0.542315  4.516320
  N     8.000989  2.868456  4.491155
  S     7.183460 -1.009777  3.213369
  S     7.140256  2.865022  3.124753
  S    10.069761 -0.610694  0.207800
  S    10.093998  3.507667  0.265799
  S     9.713778 -0.264517  4.303734
  S     9.621749  3.201124  4.208861
