16  
    
  C    10.900515  0.586829  2.954749
  C    10.763253  4.369984  2.784958
  C     9.699851  0.136969  2.359159
  C     9.746330  3.581018  2.159052
  N    11.955097  0.444559  2.179504
  N    11.876806  4.647072  2.103193
  N     9.815996 -0.071143  1.046819
  N    10.138429  3.207272  0.945323
  N     9.243119  0.448514  4.890534
  N     8.945265  4.138212  4.560640
  S     8.423128  0.067714  3.501807
  S     8.321820  3.472961  3.191257
  S    11.400253  0.124877  0.675933
  S    11.642511  3.828126  0.615792
  S    10.791692  1.057385  4.641691
  S    10.449288  4.859676  4.446217
