16  
    
  C     3.280078 -3.038072  1.545043
  C     3.580066  0.520874  1.413336
  C     2.081448 -3.123666  0.725339
  C     2.301925  0.323485  0.766211
  N     4.417030 -2.915289  0.841022
  N     4.597791  0.701323  0.575455
  N     2.287991 -3.076392 -0.589903
  N     2.351079  0.363492 -0.559897
  N     1.388319 -3.540568  3.151553
  N     1.829166  0.156824  3.269765
  S     0.654003 -3.598588  1.604100
  S     1.035366  0.005870  1.868231
  S     3.929143 -2.847307 -0.766731
  S     3.977096  0.686129 -0.961097
  S     3.006473 -3.175848  3.228546
  S     3.381724  0.682045  3.124135
