16  
    
  C     5.784108 -2.193232  1.915847
  C     6.096211  1.657765  2.029487
  C     4.599647 -2.678823  1.233326
  C     4.746377  1.513924  1.496146
  N     6.739355 -1.849990  1.088895
  N     7.114411  1.492616  1.192722
  N     4.734271 -2.740398 -0.078179
  N     4.733856  1.409262  0.168349
  N     3.913983 -2.290402  3.770462
  N     4.383591  2.142913  3.944903
  S     3.243258 -2.917094  2.319784
  S     3.463057  1.818386  2.617305
  S     6.288890 -2.300174 -0.406899
  S     6.363270  1.269880 -0.332565
  S     5.555384 -1.946338  3.589559
  S     6.056511  2.102327  3.702451
