16  
    
  C     9.182534 -0.358558  2.490222
  C     9.371252  3.153881  2.627530
  C     7.975097 -1.047193  1.988685
  C     8.088672  2.754492  2.099526
  N    10.118125 -0.257164  1.595722
  N    10.394435  3.195889  1.806155
  N     8.050250 -1.382328  0.741711
  N     8.174524  2.434773  0.816594
  N     7.401344 -0.384937  4.364068
  N     7.630852  3.217274  4.566773
  S     6.662372 -1.164455  3.115062
  S     6.724797  2.948399  3.202371
  S     9.540625 -0.935621  0.189453
  S     9.745583  2.785563  0.320841
  S     9.026600  0.063202  4.159737
  S     9.241356  3.575084  4.293411
