16  
    
  C    11.060644  0.507391  3.191634
  C    11.121771  4.218427  3.043879
  C     9.900809 -0.063751  2.545911
  C     9.917515  3.684247  2.405170
  N    12.024967  0.805734  2.360016
  N    12.185315  4.433666  2.258532
  N    10.060035 -0.148908  1.238515
  N    10.067035  3.673816  1.099390
  N     9.320072  0.146145  5.043607
  N     9.354747  4.041885  4.888438
  S     8.538723 -0.204727  3.624599
  S     8.631232  3.397804  3.534950
  S    11.510110  0.483789  0.832424
  S    11.610516  4.040203  0.695167
  S    10.909614  0.682900  4.896988
  S    10.939959  4.483832  4.722448
