16  
    
  C     4.733611 -2.049234  1.648569
  C     4.409142  1.469023  1.422433
  C     3.382089 -2.159966  1.071261
  C     3.199458  1.026412  0.741493
  N     5.714111 -2.065198  0.790649
  N     5.426159  1.728401  0.605609
  N     3.378503 -2.323326 -0.221911
  N     3.305999  0.846259 -0.564724
  N     3.023339 -1.796555  3.594043
  N     2.750808  0.766527  3.246234
  S     2.117269 -2.167230  2.285802
  S     1.892154  0.675091  1.819207
  S     5.007088 -2.320459 -0.732928
  S     4.855872  1.328932 -0.907606
  S     4.680844 -1.784537  3.378814
  S     4.212015  1.489559  3.137885
