16  
    
  C    10.292596  0.056861  2.787868
  C    10.220133  4.044756  3.107753
  C     9.005942 -0.345064  2.132759
  C     8.937701  3.632398  2.503939
  N    11.319181  0.084383  1.991069
  N    11.200256  4.046709  2.245224
  N     9.196272 -0.635266  0.871401
  N     8.948638  3.437911  1.170438
  N     8.557048  0.075685  4.638791
  N     8.610363  4.445921  5.008005
  S     7.741261 -0.619523  3.305347
  S     7.711569  3.944821  3.669818
  S    10.800382 -0.422924  0.488698
  S    10.640779  3.655486  0.778705
  S    10.239127  0.203871  4.529106
  S    10.273313  4.408216  4.813012
