16  
    
  C     4.261235 -2.525011  1.613940
  C     4.200093  1.144806  1.660260
  C     3.086155 -3.166630  1.085197
  C     2.887863  0.899378  1.085865
  N     5.243374 -2.268845  0.738011
  N     5.154755  1.276778  0.760466
  N     3.235843 -3.511341 -0.196499
  N     2.888038  0.644276 -0.218313
  N     2.649146 -2.851610  3.632547
  N     2.405610  1.337367  3.566233
  S     1.831609 -3.368801  2.296241
  S     1.504464  0.930179  2.182367
  S     4.775653 -3.022317 -0.705510
  S     4.459383  0.821087 -0.706433
  S     4.114182 -2.130967  3.293645
  S     4.024326  1.423216  3.428445
