16  
    
  C    12.788260  1.649628  3.278940
  C    12.455597  5.198016  3.252025
  C    11.585586  1.134401  2.806296
  C    11.219954  4.743588  2.634868
  N    13.813985  1.825571  2.394580
  N    13.496449  5.438459  2.460597
  N    11.535390  1.057835  1.474315
  N    11.371142  4.661449  1.264030
  N    11.203830  1.474205  5.296695
  N    10.864480  4.787485  5.216352
  S    10.328652  0.887082  4.032885
  S     9.986631  4.454435  3.861593
  S    13.108012  1.444183  0.950840
  S    12.900148  5.151086  0.914992
  S    12.769235  1.797883  5.014836
  S    12.431811  5.439150  4.977596
