16  
    
  C    10.985571  0.714635  2.847851
  C    11.166541  4.158710  3.312535
  C     9.859938 -0.006309  2.367626
  C     9.896894  4.003602  2.690202
  N    11.963018  0.927217  1.953259
  N    12.161594  4.220038  2.452008
  N    10.009271 -0.505003  1.118182
  N     9.892680  3.946494  1.344481
  N     9.420114  0.624926  4.866627
  N     9.393735  4.342798  5.138907
  S     8.659149 -0.228242  3.609029
  S     8.517303  3.893624  3.776169
  S    11.525103  0.095547  0.575907
  S    11.504408  4.176847  0.966531
  S    11.038970  1.061595  4.568188
  S    11.028760  4.423951  4.970457
