16  
    
  C    11.982998  1.514356  3.560443
  C    11.917830  5.078693  3.787486
  C    10.900928  0.842375  2.926702
  C    10.715825  4.532882  3.198696
  N    12.881420  2.075519  2.784673
  N    12.840162  5.378848  2.845597
  N    11.083155  0.646123  1.636755
  N    10.644998  4.570200  1.884027
  N    10.498522  0.662891  5.406276
  N    10.503425  4.296007  5.831427
  S     9.708992  0.251755  4.034650
  S     9.609850  3.929903  4.466221
  S    12.434432  1.559625  1.239958
  S    12.213643  5.054155  1.378838
  S    11.898870  1.500509  5.261041
  S    11.974910  4.994303  5.475023
