16  
    
  C    12.550493  1.540231  3.720926
  C    12.366523  5.124559  3.377293
  C    11.336757  0.924651  3.046357
  C    11.073871  4.778717  2.829620
  N    13.510298  1.794957  2.861555
  N    13.403706  5.163899  2.622148
  N    11.392179  0.905274  1.724962
  N    11.204605  4.568094  1.522655
  N    10.820634  1.447613  5.571821
  N    10.667257  4.937637  5.410116
  S    10.061389  0.850720  4.247526
  S     9.783453  4.565021  4.003718
  S    12.916276  1.409888  1.288036
  S    12.801376  4.841834  1.094033
  S    12.444605  1.719593  5.440689
  S    12.271134  5.411881  5.074635
