16  
    
  C     9.016902 -0.333927  2.518598
  C     9.257398  3.465129  2.796695
  C     7.797919 -0.851420  1.947713
  C     7.991250  3.160522  2.171038
  N     9.997262 -0.157112  1.678925
  N    10.271504  3.625333  1.970579
  N     7.823807 -0.884454  0.628027
  N     8.067230  3.055006  0.846306
  N     7.403623 -0.920342  4.451706
  N     7.460369  3.385983  4.692217
  S     6.488031 -1.076302  3.046228
  S     6.655099  2.929472  3.292050
  S     9.328021 -0.431841  0.166964
  S     9.673261  3.207183  0.464591
  S     8.982964 -0.343457  4.276746
  S     9.064574  3.740640  4.463071
