16  
    
  C     7.136709 -1.213013  2.334832
  C     7.793168  2.833677  2.340367
  C     6.110090 -1.817834  1.506858
  C     6.618537  2.371718  1.624238
  N     8.204962 -0.926684  1.634746
  N     8.831599  3.096732  1.534465
  N     6.342181 -1.815848  0.223203
  N     6.757763  2.108008  0.313742
  N     5.255694 -1.935612  3.952990
  N     5.968211  2.505368  4.202584
  S     4.809921 -2.527168  2.443654
  S     5.291448  2.056652  2.690487
  S     7.889696 -1.235620  0.030176
  S     8.365278  2.689400  0.012439
  S     6.796464 -1.287120  4.050603
  S     7.590991  2.954418  4.092848
