16  
    
  C    11.415519  1.168655  3.176435
  C    11.425317  4.879358  2.948265
  C    10.232668  0.592778  2.628382
  C    10.318705  4.228559  2.303368
  N    12.332950  1.522662  2.250351
  N    12.383387  5.292288  2.099380
  N    10.219137  0.405178  1.317589
  N    10.444999  4.060089  0.995051
  N     9.865292  0.813812  5.096931
  N     9.566158  4.650896  4.765079
  S     9.093091  0.075120  3.811335
  S     8.964084  3.886528  3.395516
  S    11.672724  1.047653  0.844363
  S    11.953342  4.722231  0.612985
  S    11.407255  1.419350  4.876780
  S    11.159190  5.065740  4.698188
