16  
    
  C     4.197133 -2.613206  1.559895
  C     4.270416  1.404926  1.685228
  C     2.992868 -3.254199  1.069687
  C     2.928939  1.209084  1.086578
  N     5.174781 -2.554352  0.695329
  N     5.263896  1.253947  0.818352
  N     3.076408 -3.743904 -0.151288
  N     2.949907  0.999456 -0.216165
  N     2.440023 -2.564540  3.452920
  N     2.560937  1.639190  3.545522
  S     1.659128 -3.077502  2.106484
  S     1.597096  1.581791  2.195536
  S     4.570848 -3.251345 -0.746917
  S     4.521016  0.978126 -0.663988
  S     4.070036 -2.279226  3.265423
  S     4.235287  1.485194  3.362384
