16  
    
  C    11.286279  1.071447  3.275997
  C    11.466544  4.794273  2.837079
  C    10.059723  0.603683  2.727079
  C    10.280316  4.312108  2.243903
  N    12.269396  1.282700  2.395046
  N    12.425177  5.034689  1.948913
  N    10.044215  0.525966  1.398496
  N    10.372577  4.036945  0.916249
  N     9.752745  0.635342  5.253536
  N     9.829456  4.400155  4.737798
  S     8.861748  0.372111  3.889314
  S     8.958519  3.962033  3.357454
  S    11.604031  0.875624  0.922388
  S    11.882716  4.559722  0.506266
  S    11.232453  1.299496  5.030533
  S    11.371290  5.031712  4.480350
