16  
    
  C     9.980745 -0.089056  2.705881
  C     9.805298  3.902278  2.784358
  C     8.839826 -0.611896  2.029283
  C     8.810163  3.048297  2.216048
  N    11.038038  0.240060  1.976648
  N    10.831147  4.334277  2.024227
  N     9.020583 -0.758382  0.730215
  N     9.085659  2.792762  0.944753
  N     8.103749 -0.365602  4.484148
  N     7.904597  3.698083  4.548696
  S     7.420621 -0.958313  3.066785
  S     7.274495  3.006016  3.185319
  S    10.576131 -0.220053  0.403732
  S    10.523606  3.644287  0.569793
  S     9.687270  0.082558  4.397615
  S     9.410505  4.346422  4.413433
