16  
    
  C     4.619609 -2.259026  1.543337
  C     5.161018  1.376149  1.904488
  C     3.555347 -2.941076  0.871697
  C     3.808960  1.316036  1.407063
  N     5.557098 -1.728256  0.730714
  N     6.115134  1.475072  0.959534
  N     3.804273 -3.091636 -0.445185
  N     3.756501  1.236769  0.103524
  N     2.894678 -2.989307  3.331338
  N     3.506251  1.597187  3.992165
  S     2.285366 -3.523814  1.894421
  S     2.551409  1.461096  2.583741
  S     5.260203 -2.396616 -0.711121
  S     5.326808  1.278745 -0.520852
  S     4.389689 -2.244482  3.260919
  S     5.201359  1.639735  3.676534
