16  
    
  C    11.332595  0.933622  3.211739
  C    11.460166  4.789393  3.088428
  C    10.104967  0.497387  2.668156
  C    10.353641  4.139710  2.474845
  N    12.342830  1.127508  2.356486
  N    12.516708  4.896208  2.275396
  N    10.170565  0.168051  1.353737
  N    10.520294  3.914922  1.149897
  N     9.682469  0.817221  5.174181
  N     9.737950  4.349192  4.999607
  S     8.833053  0.303748  3.810319
  S     9.023300  3.785510  3.602588
  S    11.703461  0.687237  0.898665
  S    12.097412  4.357484  0.799290
  S    11.265135  1.255333  4.861192
  S    11.251267  4.994936  4.832953
