16  
    
  C     9.058921 -0.490545  2.433790
  C     9.615783  3.333917  2.756695
  C     7.884293 -0.934475  1.716663
  C     8.318616  2.952210  2.204771
  N    10.180614 -0.365285  1.644620
  N    10.616312  3.342168  1.850651
  N     8.181067 -1.260167  0.422134
  N     8.341168  2.702194  0.879144
  N     6.968916 -0.210878  3.914807
  N     7.785797  3.420650  4.654865
  S     6.409364 -1.091576  2.659635
  S     6.951641  3.269282  3.258931
  S     9.719003 -0.842872  0.107847
  S     9.880411  2.948155  0.417408
  S     8.612743 -0.010595  4.072507
  S     9.378901  3.722546  4.398567
