16  
    
  C    11.546827  1.221864  3.078905
  C    11.405798  4.900545  3.051100
  C    10.474341  0.323120  2.599399
  C    10.283639  4.313026  2.352406
  N    12.329254  1.683068  2.118442
  N    12.412121  5.236860  2.271716
  N    10.443768  0.259211  1.251144
  N    10.519945  4.160338  1.074479
  N     9.924354  0.812133  5.104515
  N     9.542323  4.557775  4.779435
  S     9.199020  0.098482  3.803077
  S     8.956907  3.879928  3.344601
  S    11.738566  1.141867  0.632283
  S    11.965193  4.872665  0.763649
  S    11.411900  1.456011  4.841222
  S    11.126390  5.119146  4.726260
