16  
    
  C     6.294071 -1.627271  1.713426
  C     6.423633  2.126479  1.969577
  C     5.225828 -2.350168  1.058617
  C     5.284885  1.481362  1.345211
  N     7.310574 -1.353052  0.886091
  N     7.429286  2.355766  1.145020
  N     5.329227 -2.495338 -0.276351
  N     5.481182  1.287089  0.037913
  N     4.478314 -1.944411  3.551617
  N     4.595490  1.971534  3.817241
  S     3.862369 -2.518635  2.097087
  S     3.963169  1.288796  2.416063
  S     6.939818 -1.977308 -0.608237
  S     6.971618  1.779398 -0.300154
  S     6.103727 -1.460344  3.389295
  S     6.127366  2.602246  3.660738
