16  
    
  C     7.101395 -1.531812  2.015748
  C     7.078613  2.132798  2.011437
  C     5.917327 -1.923356  1.324624
  C     5.880411  1.687905  1.315299
  N     8.203285 -1.358701  1.273854
  N     8.138357  2.278852  1.217163
  N     6.135369 -2.123663  0.026438
  N     6.037741  1.639678 -0.014172
  N     5.242980 -1.704665  3.742186
  N     5.212763  1.841717  3.822561
  S     4.541657 -2.122776  2.280931
  S     4.470573  1.541475  2.373947
  S     7.740812 -1.751667 -0.234836
  S     7.589848  2.000964 -0.300793
  S     6.836027 -1.429187  3.716103
  S     6.790115  2.223250  3.720269
