16  
    
  C    11.635098  1.270794  2.874718
  C    11.806504  5.011005  3.075086
  C    10.471976  0.671232  2.355583
  C    10.644830  4.391828  2.543073
  N    12.539437  1.500523  1.949969
  N    12.895382  5.153498  2.252234
  N    10.413912  0.448084  1.039551
  N    10.778033  4.110116  1.261508
  N    10.111569  0.773449  4.908530
  N    10.107481  4.710505  5.051783
  S     9.217690  0.280621  3.539333
  S     9.329630  4.121793  3.715514
  S    11.950492  0.907099  0.512225
  S    12.345521  4.601184  0.803658
  S    11.709643  1.196120  4.630937
  S    11.565075  5.428852  4.768590
