16  
    
  C     7.133211 -1.390408  2.252480
  C     7.161498  2.200758  2.051224
  C     5.931422 -1.801614  1.599750
  C     5.924372  1.749069  1.460054
  N     8.130924 -1.100447  1.374796
  N     8.177261  2.311208  1.224306
  N     6.069738 -2.093993  0.274944
  N     5.956503  1.552856  0.153399
  N     5.348907 -1.384500  4.122148
  N     5.477891  1.942543  3.966760
  S     4.627082 -1.975574  2.781642
  S     4.660922  1.620396  2.581005
  S     7.634085 -1.674352 -0.082176
  S     7.576878  1.850935 -0.246404
  S     7.001669 -1.193493  3.942005
  S     7.000858  2.547588  3.783212
