16  
    
  C     9.121133 -0.453558  2.485298
  C     9.584876  3.511672  2.703978
  C     7.947583 -0.862512  1.745601
  C     8.301726  3.263813  2.159018
  N    10.285006 -0.474898  1.733034
  N    10.646696  3.311372  1.910615
  N     8.182776 -1.138735  0.444464
  N     8.406846  2.885886  0.885441
  N     7.099872 -0.680307  4.188380
  N     7.817606  3.713342  4.641882
  S     6.495319 -1.091328  2.690061
  S     6.907514  3.394667  3.274201
  S     9.797922 -0.941650  0.215690
  S     9.963370  2.866076  0.426037
  S     8.713850 -0.276168  4.165978
  S     9.457258  4.011992  4.348007
