16  
    
  C    12.873185  1.635355  3.382541
  C    12.328311  5.083938  3.406810
  C    11.636574  1.241374  2.860239
  C    11.154267  4.707756  2.613901
  N    13.872295  1.767259  2.491426
  N    13.455918  5.294547  2.672615
  N    11.652109  0.934800  1.551556
  N    11.427905  4.523947  1.305542
  N    11.196057  1.536166  5.391248
  N    10.390703  4.814670  5.107529
  S    10.269149  1.201242  4.012002
  S     9.747847  4.327310  3.650940
  S    13.245740  1.172688  1.053600
  S    12.976805  4.956611  1.067547
  S    12.832271  1.944453  5.124966
  S    12.067919  5.070334  5.070356
