16  
    
  C     8.384685 -0.896750  2.455592
  C     8.167907  2.571928  2.111454
  C     7.102580 -1.369579  1.937359
  C     7.035670  2.179749  1.324469
  N     9.384382 -0.960496  1.631916
  N     9.281778  2.658253  1.434413
  N     7.150894 -1.642747  0.660513
  N     7.349863  1.965626  0.043035
  N     6.754132 -0.617226  4.363672
  N     6.344384  2.129923  3.819796
  S     5.847008 -1.300303  3.095495
  S     5.599950  2.013257  2.338012
  S     8.726640 -1.457449  0.220934
  S     8.961879  2.145121 -0.127187
  S     8.364946 -0.440778  4.108928
  S     7.904351  2.723442  3.848950
