16  
    
  C    10.096492 -0.182516  2.857280
  C    10.387103  3.852007  3.117636
  C     8.897646 -0.409980  2.163299
  C     9.074782  3.935900  2.488772
  N    11.221062  0.006235  2.158408
  N    11.447532  3.656732  2.343150
  N     9.038893 -0.350686  0.837627
  N     9.195128  3.966276  1.176984
  N     8.285359 -0.535928  4.681592
  N     8.548848  3.781837  4.942719
  S     7.516821 -0.604817  3.211752
  S     7.666259  3.895939  3.522609
  S    10.677374  0.021831  0.572257
  S    10.819508  3.659524  0.800343
  S     9.904748 -0.276476  4.511549
  S    10.153742  3.811110  4.824435
