16  
    
  C     8.947747 -0.228707  2.538539
  C     8.640752  3.441139  2.562086
  C     7.733594 -0.701213  1.899310
  C     7.380499  2.937609  1.931146
  N     9.964882 -0.077060  1.704103
  N     9.554251  3.755218  1.662354
  N     7.811246 -0.754491  0.611416
  N     7.431727  2.774920  0.616036
  N     7.146219 -0.557972  4.477146
  N     7.099244  2.768241  4.545759
  S     6.422285 -0.966434  3.010371
  S     6.251506  2.510307  3.126857
  S     9.398919 -0.382756  0.148149
  S     8.910252  3.465342  0.192273
  S     8.801962 -0.258189  4.353356
  S     8.677947  3.276685  4.319819
