16  
    
  C     6.269508 -1.673908  1.919719
  C     6.492059  2.186629  2.046040
  C     5.167296 -2.331137  1.219797
  C     5.302446  1.689235  1.389033
  N     7.332504 -1.505786  1.156246
  N     7.502253  2.401531  1.205987
  N     5.330276 -2.405211 -0.097900
  N     5.456795  1.396095  0.099061
  N     4.501236 -2.181081  3.756803
  N     4.737154  1.836589  3.898114
  S     3.818374 -2.689939  2.280564
  S     3.979521  1.439584  2.488576
  S     6.894114 -1.970109 -0.349575
  S     7.015571  1.809747 -0.262557
  S     6.024874 -1.458369  3.598464
  S     6.271532  2.421248  3.735287
