16  
    
  C    11.314728  1.002068  3.305366
  C    11.638948  4.686141  2.855093
  C    10.090069  0.636579  2.724697
  C    10.435947  4.165855  2.289425
  N    12.301688  0.995106  2.388895
  N    12.666172  4.852745  2.035072
  N     9.998680  0.450624  1.390737
  N    10.531696  4.009055  0.984839
  N     9.607144  0.777345  5.311707
  N     9.808269  4.467157  4.816304
  S     8.811669  0.429289  3.905570
  S     9.094969  3.953297  3.407193
  S    11.590170  0.657624  0.937852
  S    12.053475  4.528416  0.505395
  S    11.170296  1.220528  5.057780
  S    11.440461  4.819719  4.681002
