16  
    
  C    11.656935  1.297743  2.912977
  C    11.844261  5.064900  3.088734
  C    10.385819  0.681427  2.382437
  C    10.613990  4.458409  2.519399
  N    12.601235  1.485364  1.963310
  N    12.873657  5.187641  2.294405
  N    10.431181  0.543609  1.059102
  N    10.809814  4.025037  1.256969
  N    10.120606  0.703944  4.914543
  N    10.155010  4.728911  5.085135
  S     9.177386  0.307963  3.577232
  S     9.384624  4.143449  3.728377
  S    11.971117  0.864700  0.549272
  S    12.337842  4.524839  0.808617
  S    11.676258  1.192785  4.622114
  S    11.625858  5.477220  4.760757
