16  
    
  C     7.298797 -1.487096  2.176491
  C     7.619391  2.770451  2.235345
  C     6.193100 -2.155475  1.497423
  C     6.410292  2.301399  1.612414
  N     8.339682 -1.071210  1.404787
  N     8.633833  3.003245  1.423428
  N     6.319742 -2.081323  0.164166
  N     6.541897  2.184337  0.304789
  N     5.562612 -2.097762  3.952191
  N     5.971687  2.305905  4.135741
  S     4.847374 -2.635086  2.487612
  S     5.115292  1.971832  2.743802
  S     7.788416 -1.389142 -0.149060
  S     8.061533  2.605762 -0.142948
  S     7.058931 -1.438765  3.930562
  S     7.519316  2.754611  3.933000
