16  
    
  C     9.029509 -0.470449  2.425322
  C     9.589119  3.370461  2.719953
  C     7.915766 -1.054326  1.705088
  C     8.307405  3.105026  2.180150
  N    10.162719 -0.397388  1.745815
  N    10.615539  3.366101  1.861121
  N     8.146023 -1.227848  0.384335
  N     8.348423  2.677993  0.932949
  N     6.972249 -0.249354  3.981511
  N     7.767873  3.584540  4.635691
  S     6.429024 -1.068222  2.610940
  S     6.916972  3.329333  3.209464
  S     9.771148 -0.833369  0.180338
  S     9.896902  2.960947  0.371210
  S     8.629302 -0.101459  4.028637
  S     9.469270  3.754558  4.446795
