16  
    
  C    12.819406  1.554292  3.549156
  C    12.353844  4.975296  3.470154
  C    11.563888  1.255878  3.006078
  C    11.205472  4.540802  2.674464
  N    13.873975  1.539638  2.731847
  N    13.404151  5.192859  2.688025
  N    11.640977  1.143781  1.703146
  N    11.413905  4.340941  1.406741
  N    10.968179  1.896178  5.402763
  N    10.437296  4.378553  5.150955
  S    10.139633  1.383908  4.059787
  S     9.769785  4.220466  3.579712
  S    13.246347  1.303746  1.248502
  S    12.951845  4.819702  1.142629
  S    12.645168  1.886444  5.337241
  S    11.931038  5.167392  5.165505
