16  
    
  C    10.977408  0.634385  2.835516
  C    11.056207  4.202531  3.291694
  C     9.850339 -0.090398  2.396397
  C     9.827282  3.878299  2.622608
  N    11.930768  0.932211  1.944606
  N    12.097676  4.328398  2.498977
  N     9.915372 -0.389030  1.080892
  N     9.944092  3.841525  1.283554
  N     9.459285  0.588173  4.835360
  N     9.282925  4.353092  5.123342
  S     8.618125 -0.166977  3.615557
  S     8.505730  3.777922  3.758429
  S    11.370714  0.206362  0.591473
  S    11.531889  4.210810  0.920506
  S    10.996483  1.067820  4.480481
  S    10.957471  4.419813  5.026958
