16  
    
  C     5.753467 -2.194017  1.934281
  C     6.085616  1.664809  2.070843
  C     4.585119 -2.633275  1.241256
  C     4.758785  1.515492  1.467005
  N     6.747062 -1.841088  1.105449
  N     7.078665  1.534026  1.201244
  N     4.750270 -2.828572 -0.079393
  N     4.758407  1.364018  0.156817
  N     3.904800 -2.292355  3.760152
  N     4.356842  2.130793  3.939007
  S     3.260412 -2.949094  2.333470
  S     3.452889  1.752656  2.600170
  S     6.253184 -2.296787 -0.383668
  S     6.377479  1.328686 -0.306772
  S     5.540701 -1.933476  3.607011
  S     6.017570  2.075213  3.713238
