16  
    
  C     8.134437 -0.752716  2.500954
  C     8.260681  2.953688  2.353069
  C     6.973775 -1.345248  1.845306
  C     7.086855  2.418497  1.742735
  N     9.150032 -0.595426  1.675039
  N     9.220277  3.174769  1.477404
  N     7.154022 -1.679075  0.574589
  N     7.177285  2.214049  0.451354
  N     6.309119 -0.987951  4.229064
  N     6.381215  2.942190  4.195800
  S     5.595689 -1.487047  2.813731
  S     5.781840  2.196606  2.841094
  S     8.676448 -1.173914  0.222732
  S     8.641468  2.706736 -0.017082
  S     7.946956 -0.437290  4.202028
  S     8.035084  3.291401  4.072966
