16  
    
  C     7.472879 -1.222950  1.935660
  C     7.690772  2.831780  2.142183
  C     6.203356 -1.466152  1.329149
  C     6.505513  2.240438  1.602619
  N     8.502709 -1.010161  1.095026
  N     8.674303  2.949998  1.290443
  N     6.282403 -1.616600  0.004738
  N     6.652326  1.965766  0.328636
  N     5.704219 -1.351407  3.909336
  N     5.989002  2.735854  4.098169
  S     4.953602 -1.865036  2.514446
  S     5.171275  2.143120  2.754521
  S     7.831572 -1.254811 -0.422930
  S     8.081302  2.456033 -0.180852
  S     7.327411 -1.008382  3.660795
  S     7.587007  3.226749  3.780316
