16  
    
  C     7.177224 -1.429167  2.213756
  C     7.165684  2.230836  2.062741
  C     5.956039 -1.870337  1.598651
  C     5.939839  1.708598  1.492555
  N     8.175199 -1.110708  1.395334
  N     8.218888  2.352020  1.261518
  N     6.094988 -2.106356  0.290057
  N     5.982644  1.547280  0.173248
  N     5.373586 -1.293787  4.103127
  N     5.513882  1.970271  3.970267
  S     4.648264 -1.986829  2.793677
  S     4.667299  1.612473  2.612980
  S     7.636976 -1.691342 -0.118938
  S     7.598120  1.821229 -0.273128
  S     6.977291 -1.146084  3.960150
  S     7.026012  2.508597  3.755493
