16  
    
  C    11.427138  1.364939  2.941802
  C    11.435117  4.962822  3.156614
  C    10.412157  0.501881  2.486565
  C    10.370191  4.422951  2.376933
  N    12.357389  1.745834  2.069151
  N    12.471204  5.287912  2.358177
  N    10.491648  0.266547  1.193331
  N    10.540397  4.411937  1.058753
  N    10.158442  0.658932  5.000933
  N     9.604841  4.336041  4.857499
  S     9.316438  0.071500  3.668825
  S     8.950265  3.942220  3.377556
  S    11.875821  1.036759  0.656148
  S    12.073896  4.948955  0.780748
  S    11.517100  1.576957  4.652721
  S    11.084154  5.069201  4.824213
