16  
    
  C    12.823947  1.602309  3.710430
  C    12.916067  5.565253  3.730586
  C    11.629392  1.233616  3.069715
  C    11.612301  5.036306  3.241518
  N    13.922143  1.643239  2.895037
  N    13.900131  5.582993  2.849635
  N    11.703289  1.057800  1.757308
  N    11.667583  4.623299  1.953034
  N    11.031701  1.667518  5.502599
  N    11.257018  5.498658  5.681754
  S    10.211560  1.248842  4.110242
  S    10.410364  4.851619  4.485967
  S    13.291209  1.356359  1.370400
  S    13.204018  4.916497  1.423517
  S    12.640097  1.976402  5.418446
  S    12.787801  6.062847  5.395641
