16  
    
  C     3.313124 -3.256485  1.247034
  C     3.629086  0.588630  1.385156
  C     2.077388 -3.346755  0.503169
  C     2.393403  0.314071  0.666145
  N     4.362731 -3.003468  0.519643
  N     4.632082  0.799686  0.544578
  N     2.278281 -3.271971 -0.804876
  N     2.512056  0.118005 -0.645896
  N     1.509818 -3.440594  2.976644
  N     1.791388  0.432085  3.140187
  S     0.659999 -3.508137  1.554034
  S     1.020958  0.072528  1.714566
  S     3.879130 -3.024436 -1.009257
  S     4.125010  0.413856 -0.966632
  S     3.163370 -3.329859  2.941235
  S     3.382864  0.661458  3.090475
