16  
    
  C    10.220179  0.513333  2.959857
  C    10.796100  4.221442  2.936016
  C     9.067195 -0.045052  2.296813
  C     9.586300  4.051337  2.176675
  N    11.185803  0.884355  2.097961
  N    11.817964  4.508504  2.136531
  N     9.141746  0.066217  0.961897
  N     9.612474  4.389558  0.896396
  N     8.662409 -0.195202  4.839579
  N     8.977537  3.670454  4.678117
  S     7.856788 -0.624232  3.427989
  S     8.221169  3.802162  3.205880
  S    10.575433  0.720035  0.575537
  S    11.238308  4.752633  0.601564
  S    10.181061  0.461150  4.694810
  S    10.528441  4.270062  4.714117
