16  
    
  C     5.798619 -2.131983  1.875636
  C     6.116192  1.632240  2.028892
  C     4.588457 -2.654438  1.214847
  C     4.779546  1.631254  1.440580
  N     6.859043 -1.938289  1.107707
  N     7.037912  1.419743  1.092421
  N     4.689579 -2.680970 -0.097053
  N     4.768330  1.371675  0.119359
  N     3.986312 -2.333000  3.652655
  N     4.480521  2.112010  3.972993
  S     3.211556 -2.850864  2.318820
  S     3.517051  1.929955  2.636980
  S     6.324747 -2.292288 -0.472760
  S     6.294868  1.189348 -0.332499
  S     5.588641 -1.966804  3.609738
  S     6.107264  2.145356  3.702383
