16  
    
  C     8.381619 -0.857189  2.454675
  C     8.203983  2.511671  2.117149
  C     7.118120 -1.295810  1.934361
  C     7.034263  2.169634  1.332736
  N     9.457919 -0.928168  1.641131
  N     9.355204  2.637397  1.449619
  N     7.180369 -1.526374  0.610698
  N     7.345719  1.959284  0.057117
  N     6.667061 -0.581019  4.306723
  N     6.365483  2.092596  3.769375
  S     5.779462 -1.265792  3.059945
  S     5.598846  1.933333  2.329360
  S     8.783642 -1.427454  0.196893
  S     9.003764  2.144971 -0.133839
  S     8.354587 -0.474789  4.106811
  S     7.878337  2.659991  3.784963
