16  
    
  C     7.356543 -1.584082  2.174367
  C     7.456924  2.378141  2.150431
  C     6.187496 -2.114991  1.493214
  C     6.200737  2.058450  1.522661
  N     8.371091 -1.347695  1.356823
  N     8.446405  2.507128  1.289083
  N     6.244124 -2.157413  0.160239
  N     6.300114  1.874238  0.207609
  N     5.561333 -2.073787  4.048787
  N     5.886130  2.059557  4.121804
  S     4.813200 -2.396863  2.581913
  S     4.982081  1.827049  2.727357
  S     7.774504 -1.619828 -0.205458
  S     7.804248  2.309594 -0.252155
  S     7.157234 -1.693469  3.925478
  S     7.421255  2.703359  3.830082
