16  
    
  C     6.336066 -1.611374  1.623858
  C     6.414450  2.136583  1.943560
  C     5.252503 -2.310329  0.965126
  C     5.258993  1.511515  1.325674
  N     7.376458 -1.457657  0.842157
  N     7.429384  2.371640  1.081805
  N     5.413000 -2.581542 -0.327523
  N     5.529423  1.144053  0.064284
  N     4.418413 -1.722304  3.361839
  N     4.576209  2.008068  3.718999
  S     3.817737 -2.515730  2.028727
  S     3.896994  1.239797  2.403422
  S     6.879658 -1.854056 -0.706483
  S     6.949980  1.772622 -0.355165
  S     6.075891 -1.346437  3.328419
  S     6.118498  2.565907  3.613035
