16  
    
  C    12.880664  1.619478  3.376460
  C    12.345158  5.102678  3.406662
  C    11.607662  1.237513  2.862947
  C    11.155779  4.703376  2.639391
  N    13.896250  1.777929  2.478006
  N    13.442502  5.297066  2.660548
  N    11.669754  0.925710  1.565495
  N    11.415191  4.533363  1.297049
  N    11.199716  1.505666  5.404668
  N    10.409888  4.838670  5.083448
  S    10.282007  1.191148  4.011265
  S     9.759234  4.339453  3.645808
  S    13.234333  1.175302  1.035134
  S    12.971350  4.966274  1.056022
  S    12.828558  1.950223  5.103896
  S    12.075519  5.071196  5.085605
