16  
    
  C    12.104634  1.614399  3.382537
  C    12.282517  5.341340  3.554212
  C    11.012701  1.037314  2.640258
  C    11.131727  4.725472  2.837525
  N    13.206690  1.795684  2.651431
  N    13.308815  5.580533  2.765769
  N    11.266594  0.806316  1.372731
  N    11.428426  4.373803  1.595834
  N    10.144998  1.204563  5.111657
  N    10.325662  5.116043  5.240567
  S     9.581716  0.529313  3.627562
  S     9.779620  4.521832  3.820668
  S    12.845707  1.248077  1.096711
  S    12.919711  4.834413  1.296057
  S    11.737475  1.779207  5.079563
  S    11.926204  5.625855  5.312234
