16  
    
  C     7.498058 -1.243178  1.952317
  C     7.680594  2.835452  2.137807
  C     6.249661 -1.498248  1.334875
  C     6.503716  2.209950  1.619535
  N     8.507282 -1.022665  1.068171
  N     8.698191  2.979056  1.278831
  N     6.286899 -1.608103 -0.024565
  N     6.613838  1.970173  0.330484
  N     5.747003 -1.298901  3.919875
  N     6.025511  2.723478  4.072472
  S     4.977068 -1.843674  2.525428
  S     5.152079  2.156250  2.736046
  S     7.841553 -1.243124 -0.463674
  S     8.100777  2.457451 -0.166800
  S     7.325416 -0.989831  3.643377
  S     7.579040  3.237259  3.791519
