16  
    
  C    10.999834  0.614162  3.152692
  C    11.066015  4.315474  3.435784
  C     9.877099 -0.032231  2.496665
  C     9.889711  3.811116  2.812004
  N    11.989383  1.012457  2.369366
  N    11.996249  4.535924  2.537033
  N     9.906747 -0.025644  1.186882
  N     9.859702  3.687837  1.474469
  N     9.141534  0.127362  4.936711
  N     9.277492  4.046194  5.287553
  S     8.440415 -0.125360  3.451875
  S     8.541335  3.493638  3.867856
  S    11.401929  0.638445  0.821941
  S    11.385416  4.237890  1.055103
  S    10.737646  0.641198  4.875496
  S    10.818505  4.632547  5.134237
