16  
    
  C    12.072792  1.318154  3.481955
  C    12.247035  5.167829  3.418702
  C    10.940147  0.725944  2.712310
  C    11.047889  4.718436  2.710737
  N    13.111094  1.633306  2.721556
  N    13.349241  5.216589  2.707635
  N    11.206174  0.617709  1.439708
  N    11.316108  4.332631  1.471654
  N    10.095848  1.149508  5.210640
  N    10.354165  5.358562  5.120032
  S     9.581661  0.543320  3.722387
  S     9.608269  4.662111  3.819116
  S    12.746215  1.183646  1.194601
  S    12.879760  4.713379  1.185663
  S    11.668329  1.741162  5.135229
  S    11.970800  5.685943  5.015947
