16  
    
  C     9.157426 -0.475451  2.544389
  C     9.593903  3.576315  2.829758
  C     7.860869 -0.840956  1.921964
  C     8.374965  3.062483  2.258095
  N    10.084069 -0.214833  1.656203
  N    10.579797  3.671557  1.957266
  N     7.926192 -1.070263  0.633193
  N     8.388010  2.767330  0.965860
  N     7.374565 -0.729997  4.398671
  N     7.700006  3.738502  4.632520
  S     6.563124 -1.172701  3.013648
  S     6.959191  3.243287  3.240207
  S     9.449940 -0.601804  0.150583
  S     9.968799  3.040552  0.529963
  S     9.016856 -0.406585  4.298143
  S     9.317611  3.936909  4.509566
