16  
    
  C     7.893628 -1.056287  1.868690
  C     7.949722  2.953740  2.454045
  C     6.634199 -1.447813  1.273768
  C     6.840031  2.339769  1.713780
  N     8.928551 -0.951957  0.987407
  N     8.994785  3.258287  1.697209
  N     6.755904 -1.645321 -0.063161
  N     6.999568  2.244088  0.388625
  N     6.036924 -0.864902  3.776759
  N     6.073385  2.482246  4.120211
  S     5.339472 -1.580490  2.441301
  S     5.391989  2.230254  2.659788
  S     8.342047 -1.319159 -0.530536
  S     8.621560  2.795601  0.154723
  S     7.665574 -0.512129  3.589376
  S     7.628463  3.120738  4.151710
