16  
    
  C     6.262175 -1.657376  1.904089
  C     6.493451  2.203137  2.041166
  C     5.159292 -2.320857  1.228912
  C     5.303923  1.683292  1.382662
  N     7.345818 -1.513116  1.141628
  N     7.499051  2.389774  1.197178
  N     5.324671 -2.414012 -0.095912
  N     5.474790  1.394485  0.093627
  N     4.500909 -2.187489  3.746051
  N     4.734080  1.837657  3.904530
  S     3.817950 -2.683650  2.266626
  S     3.970254  1.433187  2.487853
  S     6.899565 -1.972385 -0.368067
  S     7.012341  1.809151 -0.259168
  S     6.032197 -1.455117  3.590433
  S     6.263986  2.427293  3.725383
