16  
    
  C     4.557027 -2.643506  1.541766
  C     5.139866  1.444895  1.698664
  C     3.285281 -2.772125  0.868216
  C     3.827530  1.329853  1.137000
  N     5.630814 -2.613101  0.751155
  N     6.142702  1.569819  0.824162
  N     3.382006 -2.904303 -0.484928
  N     3.844175  1.306007 -0.178686
  N     2.725227 -2.790962  3.437796
  N     3.452362  1.113821  3.599667
  S     1.902564 -2.808567  1.981862
  S     2.602860  0.738506  2.192174
  S     5.010414 -2.712910 -0.799178
  S     5.448128  1.445541 -0.679461
  S     4.360093 -2.476335  3.245733
  S     5.106690  1.393624  3.388911
