16  
    
  C     9.767141 -0.465594  2.581438
  C     9.666066  3.392466  2.544371
  C     8.489908 -0.937103  2.021174
  C     8.440341  3.198275  1.940997
  N    10.728150 -0.311642  1.706193
  N    10.737284  3.655520  1.792536
  N     8.481434 -0.964198  0.699697
  N     8.514437  3.178490  0.622376
  N     8.073838 -0.541805  4.516378
  N     7.996646  2.868105  4.489235
  S     7.185031 -1.006722  3.211341
  S     7.138053  2.870564  3.121798
  S    10.068478 -0.611559  0.209514
  S    10.093779  3.502284  0.268872
  S     9.708414 -0.266007  4.309257
  S     9.619379  3.197765  4.219252
