16  
    
  C    12.727183  1.765281  3.626685
  C    12.864532  5.519945  3.733953
  C    11.527984  1.245383  2.985176
  C    11.675087  4.889215  3.130345
  N    13.840234  1.745068  2.833308
  N    13.880682  5.756658  2.908395
  N    11.693331  0.890143  1.715864
  N    11.844323  4.522195  1.845783
  N    10.854609  1.643828  5.384475
  N    11.165453  5.361590  5.618208
  S    10.133408  1.059695  4.020489
  S    10.384429  4.769490  4.331937
  S    13.341940  1.075511  1.395523
  S    13.348068  5.133300  1.422391
  S    12.463948  1.934880  5.315607
  S    12.715327  5.875797  5.443092
