16  
    
  C     8.123062 -0.724348  2.471059
  C     8.281497  2.951833  2.348032
  C     6.978047 -1.363669  1.845890
  C     7.093323  2.444616  1.739070
  N     9.143201 -0.585327  1.679713
  N     9.247318  3.168082  1.464973
  N     7.157721 -1.662826  0.589200
  N     7.152912  2.201914  0.452007
  N     6.310020 -1.005385  4.229527
  N     6.414055  2.952148  4.192320
  S     5.581032 -1.491628  2.802425
  S     5.770176  2.207050  2.852694
  S     8.673765 -1.158366  0.214765
  S     8.638798  2.707838 -0.010926
  S     7.930666 -0.443209  4.202267
  S     8.037209  3.291596  4.066997
