16  
    
  C     7.171950 -1.290176  2.316306
  C     7.768050  2.838096  2.348029
  C     6.117724 -1.855942  1.491803
  C     6.610941  2.316026  1.669151
  N     8.188681 -0.800927  1.632035
  N     8.834297  3.086050  1.579050
  N     6.392123 -1.963906  0.205864
  N     6.758789  2.298049  0.353770
  N     5.370208 -2.037875  3.954022
  N     6.005271  2.467386  4.142143
  S     4.819414 -2.558486  2.432292
  S     5.250683  2.035369  2.726642
  S     7.884693 -1.275943  0.087924
  S     8.342800  2.678480 -0.018621
  S     6.826250 -1.336528  3.976471
  S     7.545174  2.937131  4.060804
