16  
    
  C     9.743556 -0.102727  2.494973
  C     9.782536  3.479870  2.532796
  C     8.492377 -0.633318  1.953149
  C     8.550791  3.152896  1.951998
  N    10.661480 -0.004665  1.564930
  N    10.730467  3.878504  1.699693
  N     8.394308 -0.723710  0.660078
  N     8.504315  3.150622  0.634475
  N     8.258879 -0.643592  4.554131
  N     8.175439  2.966134  4.514323
  S     7.321229 -0.995838  3.201426
  S     7.379313  2.716696  3.057473
  S     9.955404 -0.368643  0.091563
  S    10.021621  3.686626  0.135951
  S     9.800672 -0.150034  4.258261
  S     9.709626  3.563700  4.309536
