16  
    
  C    12.422654  1.579547  3.319586
  C    12.338737  5.430520  3.632037
  C    11.212804  1.172301  2.658978
  C    11.176955  4.792741  3.011175
  N    13.429987  1.789184  2.461989
  N    13.287875  5.668421  2.748478
  N    11.349779  0.877165  1.366882
  N    11.243679  4.620292  1.651985
  N    10.641514  1.381181  5.171368
  N    10.595052  4.962036  5.435571
  S     9.875768  0.838401  3.769787
  S     9.920215  4.326637  4.059394
  S    12.886102  1.338317  0.951665
  S    12.798035  5.202843  1.253174
  S    12.240914  1.862266  5.024660
  S    12.121166  5.538782  5.336956
