16  
    
  C    12.143947  1.691323  3.344069
  C    12.262461  5.356133  3.585663
  C    11.074601  0.987025  2.592659
  C    11.158774  4.706441  2.918375
  N    13.198546  1.828201  2.566702
  N    13.376291  5.621540  2.866302
  N    11.316224  0.800729  1.282374
  N    11.471894  4.445656  1.643996
  N    10.297925  1.244026  5.041953
  N    10.461011  4.865290  5.431346
  S     9.686849  0.759518  3.568525
  S     9.764890  4.395149  3.968963
  S    12.883119  1.330525  1.078076
  S    12.983556  5.079007  1.358635
  S    11.829895  1.816732  5.013845
  S    11.969198  5.642943  5.240139
