16  
    
  C     4.255171 -2.465806  1.641375
  C     4.166324  1.198439  1.695243
  C     3.115535 -3.180635  1.099298
  C     2.888381  0.797251  1.081902
  N     5.235671 -2.250680  0.761217
  N     5.142338  1.284970  0.779444
  N     3.264302 -3.597745 -0.175016
  N     2.918921  0.568071 -0.226495
  N     2.667593 -2.876384  3.630680
  N     2.380203  1.315085  3.516481
  S     1.826536 -3.353913  2.284444
  S     1.511418  0.891833  2.159472
  S     4.791033 -2.961643 -0.710323
  S     4.437139  0.844675 -0.705939
  S     4.112150 -2.160759  3.318051
  S     4.017494  1.427544  3.368007
