16  
    
  C    11.006661  0.677000  2.869708
  C    11.028985  4.463834  3.372931
  C     9.793862  0.008807  2.352886
  C     9.854081  3.918723  2.693327
  N    11.946097  0.769933  1.925150
  N    12.014270  4.671458  2.530903
  N     9.772018 -0.156533  1.034300
  N     9.997279  3.625289  1.406189
  N     9.390729  0.374863  4.903687
  N     9.207699  3.973590  5.132635
  S     8.566777 -0.166637  3.559444
  S     8.431513  3.707734  3.680634
  S    11.242739  0.346931  0.473986
  S    11.476613  4.171960  0.995535
  S    10.907560  1.057671  4.639477
  S    10.772979  4.544660  5.049254
