16  
    
  C    12.658021  1.650661  3.728210
  C    12.270821  4.961695  3.417371
  C    11.423346  1.316744  3.113364
  C    11.124735  4.465853  2.716363
  N    13.773301  1.580846  2.996366
  N    13.316669  5.203413  2.697166
  N    11.556740  1.198027  1.801366
  N    11.337885  4.310087  1.406286
  N    10.899249  1.479585  5.581583
  N    10.459928  4.867027  5.196085
  S    10.025064  1.317148  4.214085
  S     9.791763  4.257709  3.776662
  S    13.138822  1.345618  1.409084
  S    12.984337  4.797503  1.168252
  S    12.487341  1.803351  5.463240
  S    12.135399  5.097400  5.143869
