16  
    
  C     4.345956 -2.487685  1.723689
  C     4.096690  1.271209  1.507460
  C     3.239389 -3.221117  1.148173
  C     2.944887  0.557748  0.965013
  N     5.278632 -2.171972  0.835464
  N     5.042305  1.406991  0.601641
  N     3.299757 -3.356314 -0.161564
  N     2.986402  0.342042 -0.351298
  N     2.543756 -2.735374  3.623462
  N     2.303138  1.088766  3.410544
  S     1.892560 -3.451603  2.286474
  S     1.551515  0.467013  2.043140
  S     4.747795 -2.744846 -0.613947
  S     4.527161  0.794438 -0.859817
  S     4.091164 -2.181574  3.452081
  S     3.865868  1.624445  3.170851
