16  
    
  C     3.123803 -2.697780  1.556855
  C     3.624098  0.984350  1.445461
  C     2.129874 -3.514000  0.860738
  C     2.442660  0.427044  0.837748
  N     4.074739 -2.203466  0.771573
  N     4.614654  1.247622  0.597557
  N     2.371543 -3.515736 -0.430450
  N     2.458301  0.379687 -0.486925
  N     1.410277 -3.382707  3.418639
  N     1.970269  0.288870  3.368158
  S     0.888918 -4.096443  1.973688
  S     1.185896  0.036434  1.943680
  S     3.668414 -2.604688 -0.760798
  S     3.971276  0.964451 -0.894840
  S     2.925128 -2.668549  3.311255
  S     3.565243  0.939399  3.178179
