16  
    
  C     4.268224 -2.467644  1.752605
  C     4.043396  1.303798  1.399914
  C     3.057574 -2.994646  1.142992
  C     2.862190  0.681517  0.798805
  N     5.308462 -2.317161  0.962667
  N     5.048097  1.415606  0.559032
  N     3.212138 -3.250173 -0.141566
  N     3.035626  0.221448 -0.429179
  N     2.559027 -2.706707  3.666613
  N     2.303097  1.001401  3.260973
  S     1.888636 -3.506713  2.347481
  S     1.687099  0.232178  1.960818
  S     4.780304 -2.673600 -0.606337
  S     4.499650  0.738597 -0.881274
  S     4.086624 -2.081428  3.434428
  S     3.828851  1.702554  3.068116
