16  
    
  C    11.359621  1.042524  3.109159
  C    11.428473  4.700776  3.266458
  C    10.214106  0.332982  2.590008
  C    10.309788  4.115981  2.598630
  N    12.310311  1.246634  2.186162
  N    12.477071  4.893782  2.433140
  N    10.240957  0.106206  1.265229
  N    10.456781  3.767693  1.325506
  N     9.630926  0.908492  5.073504
  N     9.610760  4.411228  5.088433
  S     8.897391  0.309194  3.722171
  S     8.987315  3.710402  3.712762
  S    11.758750  0.599480  0.758181
  S    11.964050  4.308034  0.926153
  S    11.239749  1.235976  4.955013
  S    11.149834  5.080776  4.906264
