16  
    
  C     7.346608 -1.609820  2.148221
  C     7.597385  2.495568  2.141334
  C     6.110223 -1.978591  1.508116
  C     6.341267  1.980030  1.577783
  N     8.332477 -1.270993  1.339823
  N     8.548861  2.749461  1.246561
  N     6.219573 -2.023898  0.193334
  N     6.267389  1.941964  0.252394
  N     5.587921 -2.123630  3.921574
  N     5.898206  2.118950  4.074332
  S     4.849097 -2.546534  2.520285
  S     5.004849  1.928266  2.758918
  S     7.765710 -1.576877 -0.171481
  S     7.876808  2.428619 -0.263632
  S     7.222700 -1.610067  3.891165
  S     7.434383  2.676901  3.864473
