16  
    
  C    11.312764  1.091934  3.322848
  C    11.486396  4.748558  2.795333
  C    10.097518  0.546223  2.778433
  C    10.266062  4.267341  2.193329
  N    12.265155  1.223852  2.440613
  N    12.464267  5.010284  1.960217
  N    10.053748  0.475417  1.473749
  N    10.355688  4.104439  0.895886
  N     9.698827  0.666277  5.221839
  N     9.855263  4.368118  4.761748
  S     8.782482  0.418803  3.849445
  S     8.993762  3.986563  3.362269
  S    11.547840  0.872284  0.941749
  S    11.883682  4.527429  0.440667
  S    11.261705  1.274430  5.039425
  S    11.385238  5.020125  4.498805
