16  
    
  C     9.912232 -0.040469  2.690109
  C     9.805603  4.013096  2.833433
  C     8.822467 -0.671783  2.023590
  C     8.834757  3.176450  2.178805
  N    10.986827  0.241633  1.906251
  N    10.787053  4.378889  2.022032
  N     9.025754 -0.725462  0.672418
  N     9.195177  2.689601  0.989795
  N     8.153338 -0.332712  4.461176
  N     7.923266  3.719235  4.544359
  S     7.521458 -0.945091  3.110736
  S     7.466564  2.814371  3.196998
  S    10.566484 -0.184559  0.410323
  S    10.579616  3.509816  0.563327
  S     9.751504  0.106774  4.367787
  S     9.456362  4.425575  4.470898
