16  
    
  C    11.331695  1.010003  3.121165
  C    11.449163  4.713232  3.231354
  C    10.189765  0.355881  2.608663
  C    10.304639  4.154029  2.576659
  N    12.306009  1.242140  2.217531
  N    12.491610  4.898589  2.438825
  N    10.241617  0.117201  1.267416
  N    10.479314  3.779628  1.294639
  N     9.632476  0.902870  5.090525
  N     9.627601  4.398265  5.074942
  S     8.916449  0.315946  3.738671
  S     8.990693  3.716051  3.710444
  S    11.743076  0.608548  0.777534
  S    11.992436  4.314968  0.884653
  S    11.238759  1.235004  4.948508
  S    11.157820  5.064580  4.890794
