16  
    
  C     9.958504 -0.118078  3.014783
  C    10.192859  3.469429  2.883130
  C     8.809167 -0.589845  2.267009
  C     8.856916  3.710856  2.380375
  N    11.044313  0.140122  2.249707
  N    11.230333  3.530452  2.040182
  N     8.969236 -0.650711  0.933298
  N     8.847473  3.835906  1.067402
  N     8.054472 -0.613425  4.680064
  N     8.537918  3.428599  4.956754
  S     7.441733 -1.001251  3.200894
  S     7.605312  3.673241  3.582586
  S    10.518060 -0.159465  0.680909
  S    10.509672  3.648429  0.552661
  S     9.620653 -0.211238  4.663689
  S    10.188040  3.341900  4.606397
