16  
    
  C    12.876669  1.701475  3.436826
  C    12.304151  5.046438  3.339231
  C    11.620929  1.224812  2.834916
  C    11.152022  4.686331  2.596604
  N    13.810538  1.712999  2.524827
  N    13.443760  5.273289  2.692199
  N    11.638718  0.964922  1.539113
  N    11.434314  4.510527  1.342459
  N    11.186775  1.618529  5.344248
  N    10.381057  4.740095  5.146996
  S    10.265646  1.234043  4.014068
  S     9.727365  4.299300  3.654495
  S    13.262815  1.179013  1.106829
  S    13.005955  4.934303  1.105397
  S    12.823110  1.924516  5.170889
  S    12.039854  5.076263  5.051345
