16  
    
  C     7.210248 -1.634736  1.847981
  C     6.982028  2.132837  1.919401
  C     6.002787 -2.043970  1.152208
  C     5.749217  1.677693  1.302869
  N     8.244759 -1.549494  1.019154
  N     7.999127  2.267015  1.060445
  N     6.122898 -2.382824 -0.122272
  N     5.843962  1.598146 -0.024648
  N     5.328629 -1.817108  3.596069
  N     5.316333  1.587485  3.806030
  S     4.603458 -2.212560  2.189826
  S     4.456049  1.422160  2.407589
  S     7.699965 -1.910111 -0.496725
  S     7.377916  2.035566 -0.398898
  S     6.889601 -1.263851  3.491713
  S     6.865792  2.100481  3.656325
