16  
    
  C    11.398899  0.970357  3.077313
  C    11.347047  4.655464  3.391798
  C    10.184434  0.454197  2.523176
  C    10.300541  3.916388  2.774404
  N    12.387493  1.215208  2.200519
  N    12.340577  4.898370  2.516296
  N    10.366712  0.026181  1.284995
  N    10.356073  3.687240  1.482478
  N     9.607931  0.863389  4.968940
  N     9.559042  4.482767  5.128281
  S     8.859371  0.237859  3.619669
  S     8.908331  3.725772  3.795872
  S    11.810732  0.576481  0.728601
  S    11.846114  4.259437  1.043264
  S    11.233331  1.246679  4.782394
  S    11.084788  5.145611  5.006961
