16  
    
  C     8.604437 -1.039429  2.375250
  C     8.339454  3.017590  2.113950
  C     7.515825 -1.666445  1.747685
  C     7.160122  2.452479  1.549408
  N     9.576495 -0.708446  1.508001
  N     9.330958  3.224187  1.231673
  N     7.577917 -1.801596  0.407191
  N     7.231003  2.180166  0.230789
  N     6.946828 -1.351164  4.195191
  N     6.652942  2.766711  4.061299
  S     6.231951 -1.913954  2.788620
  S     5.864939  2.167222  2.667080
  S     9.012937 -1.145158  0.027811
  S     8.723428  2.766705 -0.226711
  S     8.514943 -0.912634  4.110578
  S     8.231048  3.290202  3.900326
