16  
    
  C    12.697036  1.624356  3.756275
  C    12.279388  4.924185  3.447275
  C    11.479114  1.327198  3.082883
  C    11.102696  4.458220  2.681469
  N    13.742553  1.539147  2.950635
  N    13.318735  5.231056  2.683525
  N    11.550542  1.198727  1.762936
  N    11.370616  4.298546  1.389157
  N    10.881352  1.609646  5.579224
  N    10.437553  4.800303  5.226988
  S    10.082895  1.339465  4.170008
  S     9.773498  4.224193  3.745267
  S    13.144080  1.364832  1.442947
  S    12.998607  4.795086  1.177229
  S    12.500050  1.810612  5.411867
  S    12.113416  5.102617  5.148316
