16  
    
  C     5.429079 -2.200990  1.510935
  C     5.113087  1.590715  1.573375
  C     4.262755 -2.637317  0.749302
  C     4.137387  0.778857  0.978841
  N     6.536031 -1.995210  0.861599
  N     6.222950  1.766373  0.856894
  N     4.512994 -2.819955 -0.524548
  N     4.417511  0.424883 -0.265946
  N     3.512690 -2.463966  3.269563
  N     3.144432  1.830263  3.155284
  S     2.865585 -2.876953  1.786838
  S     2.636873  0.856855  1.846903
  S     6.135913 -2.484366 -0.741739
  S     5.970669  0.988167 -0.545487
  S     5.101740 -1.951062  3.275064
  S     4.726742  2.361679  3.054009
