16  
    
  C     8.299364 -0.900568  2.499130
  C     8.116599  3.047720  2.316855
  C     7.078046 -1.374511  1.926343
  C     7.005090  2.361299  1.664409
  N     9.294050 -0.957237  1.681666
  N     9.184692  3.214602  1.552097
  N     7.118782 -1.726194  0.673094
  N     7.173386  2.030645  0.393745
  N     6.615341 -0.811111  4.391799
  N     6.418900  2.491264  4.191881
  S     5.799927 -1.487343  3.044988
  S     5.674739  2.097444  2.730160
  S     8.687287 -1.476053  0.231631
  S     8.785854  2.570927  0.091552
  S     8.211775 -0.334728  4.145687
  S     7.844034  3.284359  4.079658
