16  
    
  C    10.959102  0.733151  2.849002
  C    11.112849  4.136488  3.297716
  C     9.859183 -0.102640  2.373136
  C     9.825623  3.994552  2.648451
  N    11.885605  0.910604  1.965275
  N    12.165892  4.245863  2.490970
  N     9.985883 -0.433640  1.093637
  N     9.929940  3.892625  1.343827
  N     9.451350  0.633662  4.852399
  N     9.363836  4.374619  5.108245
  S     8.639736 -0.207065  3.605625
  S     8.514088  3.837683  3.764594
  S    11.472300  0.129409  0.592834
  S    11.505893  4.201963  0.948899
  S    11.046894  1.067798  4.528964
  S    11.015816  4.414643  4.981510
