16  
    
  C    10.521133  0.730879  3.027328
  C    10.577875  4.638135  2.791576
  C     9.324493  0.097848  2.475156
  C     9.451957  3.954388  2.216468
  N    11.549261  0.820761  2.165008
  N    11.595497  4.682895  1.932278
  N     9.325114 -0.110788  1.141262
  N     9.548023  3.480619  0.982162
  N     8.783952  0.574954  4.954747
  N     8.834043  4.473445  4.718926
  S     8.031331 -0.145648  3.624165
  S     8.165013  3.688627  3.395228
  S    10.907449  0.322587  0.689384
  S    11.093297  3.882869  0.520941
  S    10.360116  1.128564  4.706386
  S    10.422359  4.943611  4.549801
