16  
    
  C    11.982769  1.279148  3.370267
  C    11.894571  4.706194  3.530568
  C    10.785093  0.763735  2.641853
  C    10.646738  4.348676  2.846169
  N    12.996353  1.355516  2.535235
  N    12.969580  4.986331  2.820271
  N    10.958487  0.442999  1.364081
  N    10.842662  4.248860  1.550866
  N    10.056884  1.237964  5.019913
  N     9.893879  4.789363  5.270478
  S     9.457127  0.436220  3.689303
  S     9.205399  4.317241  3.806640
  S    12.540070  0.873407  1.012415
  S    12.480460  4.682282  1.247314
  S    11.678256  1.572673  5.085823
  S    11.548611  5.076249  5.196501
