16  
    
  C     5.467783 -2.259466  1.854975
  C     5.276699  1.588291  1.644979
  C     4.266591 -2.670786  1.096896
  C     4.202435  0.995468  0.833719
  N     6.496801 -1.927679  1.090648
  N     6.233413  2.122814  0.894659
  N     4.412054 -2.679604 -0.206470
  N     4.484683  0.881146 -0.461644
  N     3.617406 -2.708784  3.645885
  N     3.373166  0.955140  3.243437
  S     2.918112 -3.032468  2.124028
  S     2.843384  0.617160  1.739615
  S     6.019070 -2.307188 -0.474927
  S     5.963853  1.665581 -0.687721
  S     5.216825 -2.184499  3.621744
  S     4.903243  1.654514  3.373223
