16  
    
  C    12.542467  1.499263  3.329474
  C    12.733148  5.483307  3.521747
  C    11.394776  0.907572  2.761605
  C    11.631646  4.980505  2.718984
  N    13.501135  1.934150  2.507306
  N    13.866987  5.751769  2.794703
  N    11.439551  1.003125  1.406693
  N    11.979823  4.817497  1.453752
  N    10.847485  1.077174  5.227416
  N    10.962513  4.860919  5.186394
  S    10.055309  0.644916  3.864296
  S    10.269052  4.606126  3.701107
  S    12.858922  1.664177  0.973691
  S    13.568227  5.345128  1.269144
  S    12.367615  1.617806  5.034250
  S    12.493675  5.567962  5.214510
