16  
    
  C     5.348718 -2.218454  1.531562
  C     4.946020  1.719134  1.749783
  C     4.232489 -2.906133  0.904738
  C     3.880563  0.917403  1.148969
  N     6.326947 -2.026162  0.717922
  N     6.041553  1.834760  0.999552
  N     4.375119 -3.117076 -0.382391
  N     4.268638  0.306052  0.016774
  N     3.459049 -2.281244  3.325192
  N     3.046117  1.773693  3.390455
  S     2.848661 -3.079461  1.952275
  S     2.523102  0.830493  2.183890
  S     5.923652 -2.634439 -0.799423
  S     5.804684  0.782504 -0.224031
  S     5.044792 -1.747975  3.226925
  S     4.642858  2.341032  3.367139
