16  
    
  C     5.636886 -2.031738  1.999033
  C     5.947614  1.781732  2.062736
  C     4.534037 -2.770577  1.394464
  C     4.760715  1.323013  1.371567
  N     6.668565 -1.843643  1.200844
  N     6.967879  2.047372  1.259885
  N     4.699351 -2.971257  0.107100
  N     4.864634  1.101279  0.078347
  N     4.005970 -2.499871  3.856027
  N     4.166674  1.359733  3.862734
  S     3.243679 -3.002895  2.506002
  S     3.388920  1.131762  2.440827
  S     6.245552 -2.411625 -0.278549
  S     6.447600  1.595850 -0.296065
  S     5.436610 -1.801519  3.716878
  S     5.783358  1.785807  3.768767
