16  
    
  C     7.828341 -0.909049  1.812633
  C     7.897107  2.930962  2.412758
  C     6.597730 -1.415944  1.280196
  C     6.753676  2.450750  1.675191
  N     8.880869 -0.904203  0.976100
  N     8.979126  3.146263  1.657069
  N     6.679403 -1.694762 -0.025751
  N     7.090095  2.190555  0.397331
  N     6.178134 -0.993516  3.699642
  N     5.943857  2.627112  4.137537
  S     5.306623 -1.497302  2.347614
  S     5.296529  2.160735  2.642139
  S     8.202727 -1.389436 -0.467120
  S     8.539687  2.748500  0.061580
  S     7.722066 -0.574401  3.465805
  S     7.485785  3.175485  4.075300
