16  
    
  C     5.790931 -2.257403  2.039797
  C     5.820423  1.361004  1.820513
  C     4.558971 -2.652022  1.418161
  C     4.676451  0.834711  1.163640
  N     6.876711 -2.087024  1.264142
  N     6.892106  1.575086  1.068431
  N     4.692992 -2.704631  0.089806
  N     4.832480  0.829813 -0.155474
  N     4.039447 -2.382424  3.916065
  N     4.032338  0.873397  3.649270
  S     3.217873 -2.692200  2.528842
  S     3.337173  0.430953  2.213996
  S     6.270682 -2.371159 -0.262750
  S     6.385377  1.252917 -0.499490
  S     5.671070 -2.024699  3.746764
  S     5.598553  1.452327  3.552633
