16  
    
  C     7.159591 -1.592058  1.855215
  C     6.990898  2.134395  1.931205
  C     5.978398 -2.104159  1.197278
  C     5.779981  1.711919  1.278466
  N     8.241576 -1.547047  1.057075
  N     8.019436  2.282082  1.110230
  N     6.163504 -2.319360 -0.128807
  N     5.886854  1.601496 -0.038512
  N     5.326315 -1.806385  3.655814
  N     5.294316  1.619433  3.835018
  S     4.571828 -2.186771  2.210791
  S     4.458579  1.448742  2.370406
  S     7.743756 -1.881983 -0.472694
  S     7.402932  2.013446 -0.403830
  S     6.873367 -1.259912  3.559498
  S     6.887348  2.106097  3.708464
