16  
    
  C     5.783314 -2.195075  2.029999
  C     5.842077  1.350244  1.862110
  C     4.564942 -2.658609  1.428417
  C     4.696500  0.870029  1.163008
  N     6.847441 -2.113696  1.259529
  N     6.912944  1.566568  1.116586
  N     4.708337 -2.746130  0.122585
  N     4.801773  0.841561 -0.149824
  N     4.034588 -2.336132  3.881933
  N     4.067466  0.865369  3.658761
  S     3.202075 -2.717394  2.542481
  S     3.363699  0.414140  2.202574
  S     6.268834 -2.369656 -0.252129
  S     6.385024  1.307433 -0.490103
  S     5.651816 -2.011874  3.772168
  S     5.602588  1.478816  3.571140
