16  
    
  C     4.246444 -2.299137  1.778274
  C     3.991833  1.187082  1.192333
  C     3.067824 -2.889873  1.243505
  C     2.942749  0.342997  0.704152
  N     5.260512 -2.151819  0.865841
  N     4.984835  1.481949  0.350759
  N     3.179834 -3.220666 -0.062752
  N     3.162687  0.000666 -0.538037
  N     2.618980 -2.792922  3.760164
  N     2.319776  0.922054  3.123001
  S     1.798923 -3.241817  2.392574
  S     1.728941  0.042406  1.870471
  S     4.677462 -2.704452 -0.557528
  S     4.575167  0.735804 -1.075997
  S     4.041458 -1.967350  3.525207
  S     3.717415  1.677907  2.822696
