16  
    
  C    11.622344  1.115885  2.988178
  C    11.866514  5.173556  3.086461
  C    10.341236  0.730035  2.371529
  C    10.732561  4.402690  2.586696
  N    12.627161  1.145940  2.151473
  N    12.852896  5.255333  2.169681
  N    10.402828  0.554068  1.069654
  N    10.779305  3.968791  1.355515
  N    10.082663  0.610982  5.011553
  N    10.276458  4.861563  5.054333
  S     9.172270  0.416354  3.608304
  S     9.475001  4.193753  3.765249
  S    12.006797  0.912636  0.645315
  S    12.345816  4.391621  0.869817
  S    11.579217  1.297632  4.727704
  S    11.765310  5.564426  4.789939
