16  
    
  C    10.344071  0.003532  2.817424
  C    10.296851  3.861340  3.094460
  C     9.057843 -0.353955  2.186994
  C     8.964036  3.724238  2.517587
  N    11.362820  0.022314  1.969743
  N    11.346627  3.990549  2.270959
  N     9.134738 -0.480587  0.879967
  N     9.124237  3.488964  1.224656
  N     8.487691 -0.232846  4.707916
  N     8.601614  4.313482  4.973460
  S     7.736188 -0.576526  3.299754
  S     7.628242  3.973462  3.684685
  S    10.699584 -0.273224  0.487267
  S    10.676878  3.733111  0.767977
  S    10.098516  0.004045  4.538518
  S    10.239028  4.244772  4.736300
