16  
    
  C     5.773889 -2.133655  2.111054
  C     5.895564  1.325175  1.925779
  C     4.572334 -2.611130  1.446123
  C     4.679268  0.932125  1.179720
  N     6.807224 -2.108066  1.256948
  N     6.938957  1.571567  1.142981
  N     4.702285 -2.845653  0.135196
  N     4.793958  0.876619 -0.144077
  N     4.015178 -2.237539  3.884586
  N     4.100912  0.852592  3.675406
  S     3.188727 -2.778753  2.542871
  S     3.420312  0.403421  2.196155
  S     6.260201 -2.379574 -0.254845
  S     6.380412  1.407562 -0.451393
  S     5.616433 -1.981565  3.806515
  S     5.612071  1.528448  3.612262
