16  
    
  C     7.265247 -1.514561  2.106460
  C     7.571064  2.573708  2.173894
  C     6.113458 -2.037301  1.437417
  C     6.343754  2.162195  1.567982
  N     8.332581 -1.263031  1.370343
  N     8.500036  2.917461  1.287412
  N     6.225139 -1.973238  0.113650
  N     6.466226  2.014988  0.249784
  N     5.605441 -2.120388  4.027993
  N     5.909297  2.257505  4.151246
  S     4.933376 -2.606810  2.561167
  S     5.076053  1.953302  2.700315
  S     7.799877 -1.491704 -0.193853
  S     7.904269  2.499010 -0.209826
  S     7.116732 -1.568546  3.863030
  S     7.529039  2.665386  3.918554
