16  
    
  C    10.249034  0.395590  2.567481
  C    10.503895  4.215168  2.993174
  C     9.135254 -0.293517  1.984407
  C     9.257296  3.748797  2.413696
  N    11.335395  0.469917  1.811995
  N    11.511764  4.300675  2.120879
  N     9.295667 -0.611010  0.705733
  N     9.379297  3.349444  1.155926
  N     8.372348  0.508674  4.279433
  N     8.807035  4.345434  4.892220
  S     7.728600 -0.139729  2.890757
  S     7.915723  3.919302  3.582199
  S    10.896508 -0.187007  0.328836
  S    10.893363  3.731105  0.658553
  S     9.951600  0.955961  4.173741
  S    10.458294  4.598606  4.656296
