16  
    
  C    10.264967  0.591724  2.991128
  C    10.628929  4.558482  2.875860
  C     9.109018  0.007980  2.353739
  C     9.390038  4.139752  2.260039
  N    11.179103  1.006713  2.154590
  N    11.612621  4.801368  2.044197
  N     9.321585 -0.195878  1.062565
  N     9.427478  4.134731  0.923069
  N     8.715907  0.065582  4.942295
  N     9.095521  3.938813  4.816331
  S     7.970643 -0.474570  3.544704
  S     8.164008  3.939954  3.445862
  S    10.735382  0.522034  0.647927
  S    11.037388  4.457436  0.506024
  S    10.271663  0.622650  4.735386
  S    10.706809  4.358354  4.616451
