16  
    
  C    10.944039  0.623324  3.084379
  C    10.971348  4.359602  3.401546
  C     9.750891  0.171604  2.420196
  C     9.777864  3.832993  2.788285
  N    11.877531  0.980113  2.223259
  N    12.012174  4.595427  2.630253
  N     9.906271 -0.005996  1.115642
  N     9.937593  3.651375  1.489273
  N     9.209899  0.161374  4.955558
  N     9.203141  4.062505  5.237829
  S     8.462135 -0.155490  3.489859
  S     8.487812  3.503062  3.844509
  S    11.396183  0.538530  0.701637
  S    11.400303  4.232887  1.068541
  S    10.783366  0.698074  4.855029
  S    10.748178  4.695542  5.120988
