16  
    
  C     5.420304 -2.106104  1.910314
  C     5.309765  1.612738  1.672192
  C     4.268267 -2.614174  1.242284
  C     4.239590  0.936585  0.945481
  N     6.499949 -1.981929  1.099779
  N     6.316970  2.129949  0.983957
  N     4.426803 -2.716885 -0.089795
  N     4.429107  0.971753 -0.362246
  N     3.671082 -2.642502  3.673302
  N     3.457517  0.895983  3.368759
  S     2.951657 -3.021512  2.249704
  S     2.872314  0.386224  1.871822
  S     5.975370 -2.236015 -0.437429
  S     5.846490  1.820491 -0.637277
  S     5.192170 -2.113125  3.616577
  S     4.962635  1.576664  3.373808
