16  
    
  C    12.950008  1.920320  3.694396
  C    12.938105  5.488981  3.594904
  C    11.658510  1.487382  3.088940
  C    11.691633  5.075009  3.077857
  N    13.944133  2.015310  2.792177
  N    13.881505  5.586669  2.735885
  N    11.745904  1.260255  1.787548
  N    11.753791  4.686048  1.804993
  N    11.342988  1.513888  5.623984
  N    11.331963  5.492102  5.553692
  S    10.433108  1.342171  4.290884
  S    10.421181  5.079933  4.263626
  S    13.299738  1.508387  1.352514
  S    13.289781  5.032263  1.281881
  S    12.940584  1.852361  5.383436
  S    12.878265  5.784519  5.369376
