16  
    
  C    12.322764  1.584142  3.278221
  C    12.317200  5.385480  3.657184
  C    11.237072  0.998365  2.622706
  C    11.240958  4.736490  2.957303
  N    13.327480  1.820280  2.472470
  N    13.338599  5.630317  2.839994
  N    11.346617  0.851865  1.308983
  N    11.309820  4.619202  1.668637
  N    10.459608  1.427088  5.028827
  N    10.536268  4.815702  5.477116
  S     9.753269  0.876193  3.656701
  S     9.924449  4.284652  4.002955
  S    12.898439  1.379609  0.972141
  S    12.866872  5.193152  1.311052
  S    12.015486  1.851049  4.995487
  S    12.022680  5.648387  5.359724
