16  
    
  C     9.743969 -0.098365  2.491694
  C     9.773866  3.473072  2.535346
  C     8.482582 -0.634300  1.950103
  C     8.544695  3.153018  1.948030
  N    10.660487 -0.012290  1.568986
  N    10.727677  3.873631  1.700243
  N     8.391321 -0.730392  0.656795
  N     8.502259  3.153554  0.632225
  N     8.254104 -0.641712  4.552553
  N     8.168427  2.963525  4.512081
  S     7.324910 -0.997224  3.202873
  S     7.378179  2.718932  3.053255
  S     9.959972 -0.377538  0.093150
  S    10.022096  3.685367  0.132807
  S     9.799106 -0.155061  4.256946
  S     9.716874  3.555311  4.320951
