16  
    
  C    10.898816  0.692704  3.020986
  C    10.928855  4.436275  3.427558
  C     9.683790  0.250554  2.376976
  C     9.819189  3.797145  2.758434
  N    11.911140  0.937968  2.190175
  N    11.954064  4.653989  2.583983
  N     9.827083 -0.023915  1.075095
  N     9.917615  3.663930  1.435368
  N     9.263387  0.198949  4.948176
  N     9.199963  4.057232  5.258353
  S     8.442545 -0.198652  3.542444
  S     8.437816  3.526030  3.865105
  S    11.416894  0.500287  0.638871
  S    11.478159  4.220722  1.085823
  S    10.818594  0.735587  4.801000
  S    10.692754  4.679521  5.077284
