16  
    
  C     5.859962 -2.125860  1.878105
  C     6.102692  1.727870  1.906624
  C     4.657761 -2.484367  1.183858
  C     4.781965  1.708638  1.414477
  N     6.936383 -2.124937  1.063761
  N     7.044730  1.437540  0.997356
  N     4.660402 -2.520320 -0.173812
  N     4.726625  1.331479  0.144257
  N     4.055277 -2.361107  3.655907
  N     4.552206  2.024178  3.925721
  S     3.304588 -2.704330  2.242158
  S     3.536712  2.085542  2.620590
  S     6.339765 -2.395525 -0.498178
  S     6.220349  1.086436 -0.357754
  S     5.676275 -2.025698  3.564816
  S     6.188677  2.064699  3.631665
