16  
    
  C     5.952174 -2.235011  1.781060
  C     6.092547  1.597007  1.896373
  C     4.712076 -2.490454  1.113019
  C     4.770774  1.680161  1.348197
  N     7.020334 -2.293779  0.991640
  N     7.030717  1.427274  0.988058
  N     4.813291 -2.680169 -0.206721
  N     4.640367  1.402343  0.053572
  N     4.202366 -2.192749  3.611312
  N     4.532230  2.194334  3.845378
  S     3.374530 -2.518316  2.251724
  S     3.532077  2.050872  2.534066
  S     6.387077 -2.458616 -0.527019
  S     6.251327  1.291305 -0.495127
  S     5.789865 -2.097252  3.527231
  S     6.147878  1.916004  3.593915
