16  
    
  C     5.719029 -2.026388  1.930214
  C     6.017096  1.674240  2.054208
  C     4.548407 -2.693661  1.285020
  C     4.726037  1.510028  1.427742
  N     6.769334 -1.891537  1.159680
  N     7.042156  1.659654  1.208514
  N     4.713501 -2.942136  0.021350
  N     4.827349  1.254336  0.114593
  N     3.936530 -2.344419  3.683653
  N     4.303068  2.028867  3.915136
  S     3.246630 -3.003362  2.369974
  S     3.446839  1.610187  2.561886
  S     6.238264 -2.294478 -0.393507
  S     6.399747  1.436756 -0.271135
  S     5.514100 -1.902747  3.674425
  S     5.947733  2.019278  3.783484
