16  
    
  C     5.445859 -2.244945  1.872874
  C     5.288087  1.605291  1.663942
  C     4.265036 -2.605199  1.164233
  C     4.308709  0.943680  0.901529
  N     6.510138 -1.905872  1.109286
  N     6.243792  2.138214  0.907785
  N     4.409541 -2.683776 -0.184617
  N     4.491054  0.950954 -0.410909
  N     3.595024 -2.702171  3.685495
  N     3.390808  0.912811  3.307932
  S     2.941429 -3.038176  2.176524
  S     2.840382  0.536863  1.772406
  S     5.993946 -2.292981 -0.466987
  S     5.897873  1.724655 -0.642418
  S     5.212164 -2.161094  3.632651
  S     4.939986  1.616802  3.354253
