16  
    
  C    11.989882  1.489738  3.601205
  C    11.899709  4.998663  3.735011
  C    10.888345  0.784707  2.889896
  C    10.646381  4.502283  3.214244
  N    12.888669  1.962009  2.756750
  N    12.848156  5.389384  2.865295
  N    11.068143  0.680810  1.553132
  N    10.721149  4.493386  1.848994
  N    10.484768  0.598535  5.421098
  N    10.451408  4.286928  5.786383
  S     9.720610  0.258580  3.998784
  S     9.551646  3.876588  4.444749
  S    12.408759  1.574232  1.218128
  S    12.174491  4.996205  1.375092
  S    11.941464  1.451649  5.375738
  S    11.906382  5.012310  5.472223
