16  
    
  C     5.942556 -2.189379  1.858184
  C     5.661044  1.266962  1.763888
  C     4.602722 -2.371493  1.288473
  C     4.441740  0.752412  1.133011
  N     6.935508 -2.068514  0.982017
  N     6.698355  1.399035  0.917704
  N     4.655216 -2.559289 -0.019549
  N     4.596333  0.433403 -0.141061
  N     4.204115 -2.445867  3.858638
  N     3.852717  1.218016  3.577157
  S     3.351858 -2.600088  2.395203
  S     3.076489  0.691273  2.176793
  S     6.218249 -2.298991 -0.521474
  S     6.143855  0.853994 -0.542783
  S     5.864598 -2.137594  3.594701
  S     5.482484  1.400648  3.457391
