16  
    
  C     7.832642 -0.700115  2.159907
  C     8.344028  2.802709  2.414686
  C     6.774110 -1.497424  1.520271
  C     6.998965  2.622496  1.878099
  N     8.856558 -0.412606  1.404843
  N     9.312853  2.908628  1.510586
  N     6.959507 -1.652002  0.241384
  N     7.011786  2.540634  0.564582
  N     6.094644 -1.251034  3.918699
  N     6.643984  3.055729  4.337004
  S     5.385777 -1.721561  2.534411
  S     5.722363  2.478466  3.121648
  S     8.408786 -0.918227 -0.089069
  S     8.561326  2.832123  0.007278
  S     7.640927 -0.577338  3.821765
  S     8.307220  2.979522  4.142437
