16  
    
  C     7.254514 -1.417979  2.249105
  C     7.689526  2.797008  2.339355
  C     6.227670 -2.110675  1.475897
  C     6.520704  2.335770  1.624088
  N     8.222143 -0.870628  1.512666
  N     8.737774  2.914949  1.557081
  N     6.467399 -2.195738  0.176621
  N     6.611632  2.289350  0.317796
  N     5.445471 -2.096724  3.969641
  N     6.042493  2.282525  4.127415
  S     4.847250 -2.540001  2.455356
  S     5.220360  2.017620  2.713018
  S     7.841975 -1.292731 -0.061047
  S     8.198138  2.713077 -0.053260
  S     6.895307 -1.403551  3.997057
  S     7.507758  2.969043  4.058684
