16  
    
  C     9.974512 -0.053750  2.686602
  C     9.791059  4.150242  2.737600
  C     8.816075 -0.563412  1.974413
  C     8.867820  3.161405  2.195920
  N    10.959886  0.246887  1.890617
  N    10.821756  4.352824  1.923743
  N     9.020845 -0.772957  0.704272
  N     9.225767  2.697934  1.002275
  N     8.218797 -0.302975  4.508381
  N     7.970853  3.685596  4.541349
  S     7.529090 -0.953990  3.093335
  S     7.637393  2.675415  3.225501
  S    10.532466 -0.172548  0.336075
  S    10.605449  3.409706  0.604065
  S     9.807742  0.151721  4.417776
  S     9.457877  4.478094  4.517419
