16  
    
  C     5.745283 -2.122575  1.959306
  C     6.001378  1.759880  2.070222
  C     4.556443 -2.701729  1.346284
  C     4.777333  1.349163  1.446907
  N     6.717170 -1.778924  1.114531
  N     7.026550  1.911206  1.238145
  N     4.758857 -2.918502  0.073888
  N     4.843534  1.226720  0.121826
  N     3.887246 -2.449279  3.876743
  N     4.210614  1.740191  3.928666
  S     3.226473 -3.038720  2.404110
  S     3.376940  1.409541  2.507935
  S     6.226088 -2.384104 -0.349185
  S     6.445867  1.515854 -0.305114
  S     5.485111 -1.839507  3.696673
  S     5.860258  1.909523  3.799109
