16  
    
  C     8.973993 -0.340786  2.592614
  C     8.578806  3.428420  2.564768
  C     7.726686 -0.632918  1.876724
  C     7.398746  2.877990  1.962730
  N     9.939893 -0.044448  1.730296
  N     9.477479  3.772423  1.674513
  N     7.806139 -0.760537  0.555384
  N     7.400458  2.856217  0.640699
  N     7.179922 -0.635112  4.432506
  N     7.034968  2.701551  4.471479
  S     6.389664 -0.932679  2.979350
  S     6.212939  2.357129  3.092932
  S     9.350665 -0.341264  0.185168
  S     8.866895  3.395439  0.141894
  S     8.798680 -0.192467  4.351373
  S     8.563742  3.273404  4.286668
