16  
    
  C     4.615300 -2.080669  1.536146
  C     4.658760  1.602127  1.712673
  C     3.322546 -2.355351  0.952698
  C     3.480424  1.131145  1.001131
  N     5.574902 -2.030197  0.644701
  N     5.669764  1.807422  0.895459
  N     3.329923 -2.627638 -0.326860
  N     3.614334  1.019142 -0.316337
  N     2.997750 -2.334630  3.498548
  N     2.860785  1.463373  3.435644
  S     2.063934 -2.228288  2.135678
  S     2.049371  1.083263  2.077255
  S     4.901599 -2.345644 -0.822189
  S     5.144280  1.490558 -0.644720
  S     4.596860 -1.985439  3.283263
  S     4.528336  1.708205  3.449403
