16  
    
  C     5.417642 -2.163824  1.524217
  C     5.040189  1.851204  1.605449
  C     4.281978 -2.777557  0.838839
  C     4.028336  0.922138  1.160239
  N     6.469827 -1.992865  0.784081
  N     6.162325  1.837673  0.863965
  N     4.487829 -3.140844 -0.416839
  N     4.356886  0.262284  0.069787
  N     3.499539 -2.402520  3.273641
  N     3.055468  1.899967  3.338501
  S     2.849643 -2.956006  1.862356
  S     2.549150  0.853426  2.069567
  S     5.963393 -2.481524 -0.771566
  S     5.887051  0.763345 -0.386601
  S     5.057209 -1.801763  3.175235
  S     4.619604  2.321964  3.208455
