16  
    
  C     4.599349 -2.345732  1.582765
  C     5.123547  1.588434  1.860743
  C     3.567623 -3.038247  0.871319
  C     3.803606  1.398941  1.300869
  N     5.626937 -1.980697  0.786941
  N     6.132118  1.495984  1.001835
  N     3.700983 -3.083647 -0.469545
  N     3.818075  1.207117 -0.016203
  N     2.885628 -3.062674  3.358293
  N     3.658256  1.520930  3.845826
  S     2.258264 -3.482402  1.873623
  S     2.636808  1.419491  2.607975
  S     5.145384 -2.307482 -0.821897
  S     5.397352  1.278178 -0.430729
  S     4.390538 -2.303851  3.308843
  S     5.271510  1.749956  3.586959
