16  
    
  C    10.247605  0.393140  2.588245
  C    10.535620  4.209298  2.977084
  C     9.112890 -0.302199  2.007406
  C     9.243549  3.786222  2.417171
  N    11.326330  0.499275  1.808895
  N    11.532890  4.303668  2.103052
  N     9.316349 -0.604538  0.716279
  N     9.389481  3.348543  1.170738
  N     8.364926  0.506689  4.289171
  N     8.832506  4.301024  4.893954
  S     7.707567 -0.126421  2.917246
  S     7.906531  3.915454  3.600598
  S    10.890824 -0.142272  0.314400
  S    10.934159  3.745663  0.631044
  S     9.944500  0.945108  4.158963
  S    10.469990  4.593111  4.609068
