16  
    
  C    11.882807  1.270836  3.308749
  C    11.880955  4.815417  3.499043
  C    10.764615  0.705252  2.653065
  C    10.721990  4.411634  2.795240
  N    12.999514  1.240419  2.601292
  N    12.904849  4.985784  2.731303
  N    10.922801  0.472581  1.354856
  N    10.912317  4.247394  1.467746
  N     9.994562  1.231673  5.083372
  N     9.936523  4.841232  5.207484
  S     9.427980  0.433903  3.698447
  S     9.257435  4.392539  3.785479
  S    12.512053  0.802028  1.065591
  S    12.468705  4.619990  1.166665
  S    11.666254  1.609062  5.079155
  S    11.562881  5.108279  5.213122
