16  
    
  C    10.266274  0.602403  2.984688
  C    10.644966  4.553614  2.874219
  C     9.128040  0.004096  2.357042
  C     9.411829  4.127273  2.271905
  N    11.185769  1.013546  2.150852
  N    11.614566  4.784135  2.024677
  N     9.323754 -0.197330  1.066656
  N     9.420888  4.122371  0.928397
  N     8.716674  0.065633  4.948965
  N     9.089907  3.953832  4.818437
  S     7.972813 -0.462240  3.548262
  S     8.162112  3.939242  3.445342
  S    10.735016  0.511570  0.651874
  S    11.026271  4.455909  0.504578
  S    10.269552  0.628535  4.735012
  S    10.697280  4.376496  4.616441
