16  
    
  C     6.181727 -2.006756  1.662637
  C     6.292072  1.841978  1.861779
  C     4.903000 -2.416574  1.041267
  C     5.068292  1.734355  1.158648
  N     7.175244 -1.728952  0.839649
  N     7.347293  1.927563  1.045650
  N     5.038636 -2.647181 -0.233273
  N     5.208677  1.715332 -0.182987
  N     4.357792 -1.798852  3.467480
  N     4.449343  1.866602  3.685412
  S     3.564757 -2.506975  2.159809
  S     3.651812  1.883713  2.223056
  S     6.658932 -2.307986 -0.666698
  S     6.790886  1.786377 -0.470214
  S     5.971674 -1.506652  3.352542
  S     6.112642  1.886226  3.581938
