16  
    
  C    10.135870  0.565036  2.616782
  C    10.627203  4.233482  2.873722
  C     9.042182 -0.121792  2.027385
  C     9.377143  3.881940  2.279617
  N    11.204424  0.640775  1.836846
  N    11.608336  4.282061  1.979259
  N     9.180985 -0.397798  0.730917
  N     9.381195  3.603279  0.996662
  N     8.326940  0.555546  4.381123
  N     8.971671  4.157653  4.780059
  S     7.701347 -0.283305  3.090588
  S     8.170383  3.735348  3.413227
  S    10.772926  0.059871  0.320268
  S    10.967178  3.774429  0.509616
  S     9.971027  0.871411  4.329564
  S    10.563916  4.676718  4.615194
