16  
    
  C    10.982464  0.594506  3.309629
  C    11.136153  4.362758  3.329212
  C     9.807040  0.228319  2.568706
  C     9.928555  3.864720  2.699346
  N    12.017230  0.973735  2.542563
  N    12.100542  4.525969  2.434028
  N    10.041349  0.192024  1.261204
  N     9.923053  3.730524  1.375300
  N     9.111791  0.133546  4.991359
  N     9.576284  3.854840  5.243997
  S     8.502075 -0.343510  3.524876
  S     8.690643  3.503185  3.893669
  S    11.591393  0.597257  0.990299
  S    11.425846  4.176728  0.905676
  S    10.697870  0.587054  4.987450
  S    11.171561  4.258143  5.019247
