16  
    
  C    10.002771 -0.185925  2.976648
  C    10.364704  3.431924  3.081638
  C     8.807733 -0.499189  2.207836
  C     9.061979  3.693557  2.494164
  N    11.108398  0.140787  2.225662
  N    11.382105  3.506466  2.226580
  N     9.059413 -0.503842  0.876888
  N     9.049213  3.845982  1.178036
  N     8.071752 -0.618019  4.631996
  N     8.442156  3.562440  4.972946
  S     7.419826 -0.858121  3.149656
  S     7.705745  3.961861  3.528258
  S    10.596698 -0.003330  0.683014
  S    10.642913  3.803531  0.708647
  S     9.677881 -0.240696  4.657459
  S    10.115585  3.300885  4.775639
