16  
    
  C     4.246229 -2.435832  1.772923
  C     3.967777  1.337077  1.362104
  C     3.074514 -2.976518  1.168651
  C     2.893190  0.610806  0.787115
  N     5.296149 -2.314864  0.940909
  N     4.998295  1.410470  0.528352
  N     3.166900 -3.164144 -0.167839
  N     3.021848  0.227141 -0.476398
  N     2.591295 -2.739016  3.669657
  N     2.321035  0.989547  3.222160
  S     1.881335 -3.485849  2.352480
  S     1.694043  0.153024  1.955614
  S     4.758974 -2.690655 -0.548182
  S     4.549836  0.720982 -0.931727
  S     4.079637 -2.038912  3.428113
  S     3.823323  1.721434  3.032518
