16  
    
  C     8.972230 -0.398629  2.501438
  C     9.358224  3.582574  2.836301
  C     7.729247 -0.754816  1.910327
  C     8.130154  3.122736  2.133076
  N     9.986037 -0.119982  1.675850
  N    10.421785  3.523905  2.032618
  N     7.835747 -0.934593  0.583927
  N     8.256190  2.823841  0.829546
  N     7.413787 -0.858150  4.502241
  N     7.613805  3.458993  4.699352
  S     6.549166 -1.141589  3.097695
  S     6.809989  3.098151  3.269592
  S     9.432039 -0.525528  0.160414
  S     9.896035  3.197424  0.507324
  S     9.011207 -0.392578  4.242024
  S     9.218156  3.911271  4.567088
