16  
    
  C    11.339131  0.637009  2.992413
  C    11.060110  4.418309  3.601551
  C    10.290103  0.062958  2.192332
  C     9.779483  4.004073  3.040039
  N    12.522054  0.867509  2.332907
  N    12.092491  4.479115  2.753325
  N    10.784703 -0.412912  1.018544
  N     9.840712  3.898268  1.734748
  N     9.307087  0.358041  4.597656
  N     9.372364  4.682006  5.456034
  S     8.826820 -0.247290  3.132234
  S     8.489403  4.167648  4.149362
  S    12.293763  0.161607  0.858699
  S    11.384925  4.115331  1.262875
  S    10.896568  0.744619  4.625589
  S    11.005580  5.011109  5.212057
