16  
    
  C    12.535791  1.590232  3.490668
  C    12.348362  5.357478  3.492683
  C    11.323878  1.082510  2.852355
  C    11.131116  4.735941  2.927509
  N    13.455879  1.790619  2.543973
  N    13.380991  5.522362  2.606137
  N    11.347045  0.891948  1.512109
  N    11.260666  4.497793  1.623502
  N    10.891273  1.184758  5.408634
  N    10.649326  4.932658  5.409510
  S    10.045813  0.816403  4.059235
  S     9.813253  4.603436  4.035532
  S    12.913894  1.336686  1.075845
  S    12.716917  5.030489  1.142982
  S    12.376790  1.825899  5.208540
  S    12.217002  5.486347  5.210466
