16  
    
  C     8.992923 -0.369497  2.565469
  C     9.229689  3.495395  2.828982
  C     7.770781 -0.802760  1.905664
  C     8.011880  3.137640  2.138540
  N     9.979799 -0.135026  1.670653
  N    10.276239  3.585423  2.016542
  N     7.811507 -0.904925  0.557797
  N     8.167208  3.002146  0.825958
  N     7.445854 -0.903802  4.418059
  N     7.525151  3.413173  4.679556
  S     6.481363 -1.106528  3.066771
  S     6.768534  2.997307  3.296846
  S     9.359982 -0.464597  0.186795
  S     9.761382  3.197103  0.492190
  S     9.022769 -0.352492  4.281939
  S     9.106191  3.801133  4.495741
