16  
    
  C     7.253632 -1.432915  2.262426
  C     7.263223  2.220674  2.114089
  C     6.031342 -1.883287  1.654732
  C     6.100553  1.610822  1.511072
  N     8.296839 -1.303478  1.409033
  N     8.285960  2.346077  1.300080
  N     6.133471 -2.235280  0.371200
  N     6.171445  1.289767  0.227624
  N     5.449106 -1.285522  4.020630
  N     5.608790  2.077571  3.991458
  S     4.742178 -2.099421  2.733847
  S     4.797885  1.622653  2.643736
  S     7.641427 -1.813942 -0.067207
  S     7.727500  1.802187 -0.254941
  S     7.027258 -0.910170  3.884786
  S     7.185535  2.458610  3.823370
