16  
    
  C     7.251954 -1.363770  2.244933
  C     7.230683  2.204127  2.043150
  C     6.067400 -1.943899  1.677196
  C     5.989698  1.743268  1.485125
  N     8.236153 -1.331168  1.361319
  N     8.243401  2.346928  1.153712
  N     6.117150 -2.192176  0.378468
  N     6.152591  1.366011  0.204287
  N     5.337400 -1.203879  4.009074
  N     5.519552  2.052657  4.054297
  S     4.680243 -2.061654  2.742660
  S     4.679774  1.589812  2.661458
  S     7.633393 -1.710556 -0.118263
  S     7.689204  1.822094 -0.250342
  S     7.040974 -0.985871  3.957270
  S     7.153901  2.449532  3.787348
