16  
    
  C     6.142155 -1.540888  2.403226
  C     6.593779  2.170971  2.212020
  C     4.990776 -2.123643  1.760568
  C     5.396706  1.593998  1.651425
  N     7.175491 -1.301353  1.608856
  N     7.607506  2.424462  1.392182
  N     5.149007 -2.237006  0.469744
  N     5.450438  1.470662  0.321977
  N     4.381997 -2.128705  4.257594
  N     4.990596  1.630206  4.191726
  S     3.703293 -2.673227  2.850819
  S     4.124978  1.343425  2.781866
  S     6.590388 -1.635476  0.081307
  S     6.964243  2.091279 -0.166016
  S     5.957839 -1.587200  4.179093
  S     6.533491  2.250958  3.915268
