16  
    
  C    11.471571  0.794037  3.020464
  C    11.127834  4.725645  3.483668
  C    10.298765  0.284194  2.319282
  C     9.957189  4.048760  2.941799
  N    12.552310  0.859148  2.251621
  N    12.087479  4.958238  2.646235
  N    10.498089  0.081790  1.040439
  N    10.144892  3.596365  1.690963
  N     9.450936  0.680341  4.747066
  N     9.465043  4.507714  5.378596
  S     8.892552 -0.104092  3.388920
  S     8.681386  3.901826  4.045100
  S    12.085214  0.414018  0.712407
  S    11.664703  4.091809  1.266757
  S    11.041046  1.210102  4.705542
  S    10.996826  5.150515  5.159640
