16  
    
  C     5.432282 -2.207095  1.510752
  C     5.108787  1.588802  1.573977
  C     4.261837 -2.639060  0.746606
  C     4.129451  0.779571  0.982433
  N     6.528929 -1.988911  0.856383
  N     6.213861  1.773277  0.858087
  N     4.512801 -2.824154 -0.527093
  N     4.414578  0.412068 -0.259649
  N     3.508875 -2.466193  3.272857
  N     3.146948  1.835879  3.162115
  S     2.864359 -2.876197  1.786554
  S     2.636456  0.857526  1.846489
  S     6.135367 -2.485044 -0.742751
  S     5.970687  0.981983 -0.541015
  S     5.102862 -1.945175  3.273486
  S     4.727510  2.366580  3.058088
