16  
    
  C     6.130748 -2.119369  1.750444
  C     6.175206  1.816284  1.832637
  C     4.854757 -2.378279  1.087809
  C     4.904979  1.871783  1.159092
  N     7.124229 -2.075762  0.909517
  N     7.227705  1.755052  1.016860
  N     4.919225 -2.583396 -0.213178
  N     4.923049  1.713780 -0.155772
  N     4.326626 -2.115077  3.541406
  N     4.402837  1.772314  3.689913
  S     3.492506 -2.512485  2.201870
  S     3.576257  1.988101  2.269881
  S     6.561077 -2.535185 -0.596804
  S     6.567411  1.555437 -0.519148
  S     5.922708 -1.749590  3.430803
  S     6.046709  1.860706  3.575370
