16  
    
  C     9.994484 -0.188375  2.879593
  C    10.051181  3.791309  2.684261
  C     8.772602 -0.536592  2.189701
  C     8.806822  3.194878  2.197778
  N    11.025011 -0.034660  2.038257
  N    10.988469  4.009588  1.761043
  N     8.845497 -0.670288  0.854408
  N     8.867732  2.848325  0.914828
  N     8.190076 -0.431840  4.664641
  N     8.562374  3.559943  4.798156
  S     7.400910 -0.794523  3.230863
  S     7.701981  2.857495  3.510393
  S    10.452171 -0.291361  0.462387
  S    10.399256  3.421920  0.375422
  S     9.880846 -0.180538  4.649327
  S    10.161428  4.001898  4.429894
