16  
    
  C     3.417243 -3.078250  1.015594
  C     3.837509  0.705773  1.408060
  C     2.200313 -3.497193  0.435267
  C     2.614797  0.293385  0.767086
  N     4.481403 -3.054604  0.192918
  N     4.903413  0.829345  0.592869
  N     2.338726 -3.746140 -0.871747
  N     2.741452  0.086994 -0.536514
  N     1.739070 -3.072254  2.902623
  N     2.059632  0.383231  3.309047
  S     0.971012 -3.784589  1.581477
  S     1.277711  0.021491  1.850893
  S     3.852507 -3.339069 -1.277516
  S     4.325089  0.482078 -0.913531
  S     3.367061 -2.707190  2.689579
  S     3.563583  0.965071  3.126101
