16  
    
  C    11.465722  0.820270  3.014913
  C    11.106768  4.754241  3.526375
  C    10.345276  0.181372  2.367347
  C     9.950327  4.116372  2.959412
  N    12.629986  0.813487  2.290075
  N    12.079880  4.897780  2.595673
  N    10.502799 -0.022077  1.051449
  N    10.059573  3.650586  1.720693
  N     9.442171  0.592903  4.677697
  N     9.457524  4.487194  5.448092
  S     8.924915 -0.109110  3.279510
  S     8.621736  3.935668  4.072533
  S    12.106428  0.390967  0.750511
  S    11.615320  4.055041  1.314911
  S    10.979069  1.122227  4.677531
  S    10.983217  5.153408  5.190216
