16  
    
  C     4.623710 -2.227975  1.543854
  C     5.176642  1.357445  1.907404
  C     3.557570 -2.927217  0.864939
  C     3.814176  1.318319  1.412065
  N     5.548159 -1.732529  0.738210
  N     6.119318  1.466614  0.953579
  N     3.812399 -3.089822 -0.426128
  N     3.758913  1.224840  0.101099
  N     2.887030 -2.979179  3.337755
  N     3.479955  1.619392  4.000269
  S     2.278945 -3.524683  1.896524
  S     2.548691  1.460266  2.580624
  S     5.273922 -2.397938 -0.710928
  S     5.305142  1.285414 -0.516126
  S     4.394533 -2.233599  3.252000
  S     5.182717  1.619433  3.675044
