16  
    
  C     7.095976 -1.502669  2.034437
  C     7.078387  2.131345  2.019210
  C     5.918815 -1.919194  1.340555
  C     5.876794  1.694155  1.312132
  N     8.206676 -1.362317  1.287458
  N     8.144197  2.273352  1.243740
  N     6.138623 -2.114561  0.029845
  N     6.038565  1.628592 -0.008128
  N     5.234196 -1.697362  3.746500
  N     5.201629  1.849103  3.823734
  S     4.537587 -2.122853  2.284739
  S     4.471528  1.544735  2.369477
  S     7.731933 -1.743245 -0.230714
  S     7.598404  2.005029 -0.298265
  S     6.837141 -1.441447  3.727589
  S     6.794359  2.235863  3.716841
