16  
    
  C     8.381633 -0.931454  2.400790
  C     8.217897  2.402001  2.050842
  C     7.205228 -1.268720  1.650025
  C     7.105369  1.953761  1.275038
  N     9.511905 -0.925442  1.704703
  N     9.328619  2.690803  1.376444
  N     7.394719 -1.316661  0.334242
  N     7.386758  1.748146  0.013587
  N     6.493838 -1.068688  4.155249
  N     6.279926  2.250137  3.647289
  S     5.799667 -1.042915  2.706567
  S     5.668622  1.730078  2.250260
  S     9.042275 -1.084555  0.109367
  S     8.949480  2.374402 -0.204126
  S     8.147580 -0.748958  4.142259
  S     7.901152  2.510186  3.745377
