16  
    
  C    10.903267  0.625147  2.955032
  C    10.784797  4.458932  2.791295
  C     9.667511  0.156664  2.399856
  C     9.681235  3.754061  2.211065
  N    11.914733  0.580835  2.085486
  N    11.885650  4.585345  2.023264
  N     9.747410 -0.091467  1.111296
  N     9.977041  3.267344  1.017716
  N     9.049197  0.647207  4.834349
  N     8.760847  4.346875  4.470308
  S     8.279953  0.217714  3.438163
  S     8.407932  3.290151  3.226448
  S    11.281028  0.091611  0.625795
  S    11.495864  3.734192  0.653793
  S    10.613505  1.196712  4.594000
  S    10.293843  5.008879  4.419915
