16  
    
  C     8.285384 -0.868513  2.461347
  C     8.138829  3.022239  2.334926
  C     7.069655 -1.364413  1.884096
  C     7.016839  2.414949  1.708062
  N     9.318992 -0.875111  1.660420
  N     9.183706  3.247927  1.562292
  N     7.163370 -1.662723  0.608012
  N     7.291507  2.108709  0.463965
  N     6.438110 -0.813234  4.367874
  N     6.388391  2.577539  4.199056
  S     5.676113 -1.471994  3.078792
  S     5.661007  2.089181  2.801150
  S     8.758511 -1.382435  0.178209
  S     8.750638  2.661597  0.066543
  S     8.051569 -0.379673  4.142877
  S     7.924390  3.289556  4.000074
