16  
    
  C     8.713863 -0.486738  2.425748
  C     8.613166  3.111966  2.578553
  C     7.486715 -0.840594  1.725950
  C     7.377095  2.685091  1.926827
  N     9.799895 -0.423788  1.701951
  N     9.643685  3.308650  1.762451
  N     7.721036 -1.148881  0.470521
  N     7.449051  2.606606  0.593356
  N     6.881629 -0.689224  4.236970
  N     6.815813  2.882121  4.473766
  S     6.067755 -0.956311  2.730447
  S     6.043801  2.509390  3.039802
  S     9.338600 -0.883106  0.188256
  S     9.052180  2.955851  0.291712
  S     8.483959 -0.202913  4.076950
  S     8.439543  3.207670  4.299738
