16  
    
  C     6.029204 -2.242470  1.757732
  C     6.120863  1.699632  1.846400
  C     4.761351 -2.426449  1.104652
  C     4.804445  1.781038  1.213589
  N     7.090194 -2.251484  0.952644
  N     7.096593  1.449436  0.974310
  N     4.862286 -2.811627 -0.161819
  N     4.803490  1.670857 -0.121618
  N     4.263096 -2.115854  3.617048
  N     4.433162  2.050888  3.781457
  S     3.471998 -2.474735  2.224899
  S     3.505189  1.941592  2.378725
  S     6.492102 -2.497188 -0.580431
  S     6.412284  1.500404 -0.540166
  S     5.904490 -1.990245  3.467995
  S     6.084496  1.884315  3.553954
