16  
    
  C     4.094624 -2.884863  1.598377
  C     4.179325  1.259294  1.559392
  C     2.867186 -3.254063  0.915164
  C     2.862001  1.039477  0.981802
  N     5.168219 -2.884438  0.846050
  N     5.207785  1.287130  0.719458
  N     2.968968 -3.433962 -0.368085
  N     2.921392  0.930286 -0.334800
  N     2.157862 -2.631002  3.357006
  N     2.471700  1.307278  3.510802
  S     1.516235 -3.379941  2.017154
  S     1.617860  1.024093  2.100183
  S     4.653507 -3.280061 -0.730541
  S     4.457960  1.047185 -0.791769
  S     3.813468 -2.307480  3.225034
  S     4.115985  1.663946  3.240884
