16  
    
  C     5.525611 -2.127270  1.911300
  C     5.270794  1.585371  1.730923
  C     4.393641 -2.725788  1.255504
  C     4.115272  1.029914  1.101997
  N     6.542867 -1.822414  1.110132
  N     6.201921  2.082457  0.908366
  N     4.462175 -2.846909 -0.087145
  N     4.198932  1.032458 -0.203988
  N     3.734299 -2.448194  3.749327
  N     3.555028  0.843094  3.498275
  S     3.007525 -2.838673  2.353384
  S     2.990205  0.201801  2.112799
  S     5.986877 -2.211175 -0.443761
  S     5.638248  1.700874 -0.607481
  S     5.282442 -1.883245  3.600836
  S     5.060220  1.547774  3.449555
