16  
    
  C     9.109418 -0.363756  2.456374
  C     9.354926  3.189814  2.710603
  C     7.919877 -0.924289  1.927007
  C     8.100109  2.747138  2.094288
  N    10.094987 -0.183821  1.535646
  N    10.363603  3.153021  1.826456
  N     7.993652 -1.412095  0.649761
  N     8.194670  2.503729  0.783453
  N     7.368833 -0.351105  4.320994
  N     7.678171  3.218462  4.555580
  S     6.672936 -1.164759  3.052446
  S     6.775330  2.912062  3.191582
  S     9.518348 -0.958233  0.168670
  S     9.766409  2.750445  0.304598
  S     8.933897  0.104971  4.143688
  S     9.301495  3.634156  4.429834
