16  
    
  C     4.296346 -2.341640  1.804246
  C     4.032383  1.183219  1.227210
  C     3.065996 -2.887656  1.226161
  C     2.918760  0.409835  0.682610
  N     5.246362 -2.157839  0.904723
  N     4.976348  1.514667  0.368704
  N     3.128211 -3.160621 -0.063489
  N     3.147900  0.055125 -0.574918
  N     2.635014 -2.819564  3.753919
  N     2.290591  0.906706  3.164575
  S     1.820221 -3.282877  2.374658
  S     1.722066  0.047166  1.930370
  S     4.688748 -2.730306 -0.565890
  S     4.585236  0.717838 -1.056326
  S     4.030206 -1.962493  3.501747
  S     3.728464  1.688033  2.827922
