16  
    
  C     3.346565 -3.170954  1.448425
  C     3.567726  0.598246  1.405363
  C     2.131908 -3.230873  0.687628
  C     2.326064  0.345010  0.711442
  N     4.450492 -3.073708  0.636982
  N     4.618710  0.685471  0.597949
  N     2.280666 -3.076499 -0.644693
  N     2.430960  0.312604 -0.617677
  N     1.330813 -3.493050  3.108039
  N     1.806111  0.268407  3.262212
  S     0.707928 -3.543039  1.596371
  S     0.965209  0.000251  1.787115
  S     3.902834 -2.858789 -0.912437
  S     4.007948  0.549404 -0.964163
  S     2.961050 -3.275142  3.183952
  S     3.397794  0.667730  3.100061
