16  
    
  C    10.881051  0.692719  2.917572
  C    10.879025  4.461635  3.401200
  C     9.680336  0.189772  2.381575
  C     9.757158  3.885738  2.667203
  N    11.901354  0.873161  2.081533
  N    11.888216  4.788284  2.602534
  N     9.792323  0.055928  1.046739
  N     9.999604  3.613256  1.376894
  N     9.357172  0.285724  4.923432
  N     9.203999  3.940941  5.216404
  S     8.496992 -0.225110  3.567261
  S     8.410948  3.617623  3.798297
  S    11.325347  0.394100  0.636498
  S    11.526893  4.176500  1.059684
  S    10.875023  0.869806  4.581473
  S    10.701543  4.646489  5.068902
