16  
    
  C     5.736254 -2.107537  1.957119
  C     5.999088  1.761517  2.072251
  C     4.568396 -2.697678  1.347769
  C     4.782160  1.356553  1.448477
  N     6.717642 -1.797583  1.109660
  N     7.030623  1.888263  1.251032
  N     4.764014 -2.919022  0.072779
  N     4.825825  1.227413  0.116043
  N     3.891294 -2.437731  3.865190
  N     4.214784  1.770789  3.925214
  S     3.222305 -3.040313  2.397178
  S     3.382119  1.429436  2.513102
  S     6.225926 -2.375256 -0.355261
  S     6.445872  1.510144 -0.307500
  S     5.489274 -1.845235  3.696338
  S     5.871302  1.919209  3.800501
