16  
    
  C     4.349269 -2.186068  1.854787
  C     3.984168  1.194248  1.089593
  C     3.233859 -2.908749  1.277996
  C     2.875720  0.455044  0.530193
  N     5.391029 -1.967915  1.062725
  N     5.064959  1.400756  0.344607
  N     3.428242 -3.203647  0.008371
  N     3.101530  0.158375 -0.735491
  N     2.548592 -2.319217  3.687338
  N     2.212594  0.930703  3.051874
  S     1.892125 -3.079538  2.344998
  S     1.593334  0.237112  1.696075
  S     4.911100 -2.577433 -0.472577
  S     4.625617  0.722424 -1.111936
  S     4.175887 -1.939850  3.585698
  S     3.802370  1.503298  2.820250
