16  
    
  C     8.384122 -0.888079  2.454301
  C     8.168888  2.564410  2.113012
  C     7.098204 -1.370421  1.938434
  C     7.032752  2.179851  1.323128
  N     9.394338 -0.958340  1.633956
  N     9.283518  2.659606  1.438849
  N     7.153132 -1.629539  0.656182
  N     7.355158  1.968519  0.045742
  N     6.750464 -0.613659  4.359028
  N     6.350885  2.125574  3.812420
  S     5.840703 -1.298255  3.090908
  S     5.599243  2.007275  2.338536
  S     8.730196 -1.454945  0.221949
  S     8.966056  2.142212 -0.130883
  S     8.364608 -0.443623  4.106930
  S     7.901798  2.718264  3.844014
