16  
    
  C     7.272795 -1.390181  2.235871
  C     7.241435  2.211381  2.057281
  C     6.053294 -1.917273  1.661927
  C     5.993642  1.722895  1.483273
  N     8.247965 -1.338823  1.368097
  N     8.257550  2.346600  1.177269
  N     6.130172 -2.210099  0.395345
  N     6.143716  1.328161  0.207737
  N     5.349764 -1.214848  3.999182
  N     5.545836  2.066988  4.047519
  S     4.694735 -2.074192  2.734173
  S     4.700289  1.592805  2.656496
  S     7.624910 -1.725049 -0.099305
  S     7.705907  1.822983 -0.253999
  S     7.045848 -0.959743  3.947334
  S     7.166007  2.446748  3.802124
