16  
    
  C    11.546122  1.227138  3.011254
  C    11.397156  4.877493  3.082157
  C    10.473176  0.457296  2.528894
  C    10.317075  4.321534  2.330264
  N    12.364321  1.742659  2.064910
  N    12.443283  5.281673  2.351683
  N    10.563597  0.161021  1.219768
  N    10.475396  4.269113  1.011887
  N    10.009246  0.742431  5.075321
  N     9.566595  4.462724  4.838279
  S     9.198739  0.079428  3.791491
  S     8.968076  3.911820  3.366152
  S    11.786335  1.142834  0.619636
  S    12.029834  4.908307  0.768269
  S    11.461482  1.513113  4.761024
  S    11.079924  5.116368  4.798637
