16  
    
  C    11.001884  0.607463  3.155990
  C    11.066983  4.315333  3.430918
  C     9.873180 -0.033022  2.502774
  C     9.890532  3.802764  2.813208
  N    11.991087  1.011747  2.377199
  N    11.998255  4.536651  2.530560
  N     9.911218 -0.029409  1.191574
  N     9.856989  3.694252  1.474907
  N     9.141580  0.128099  4.936064
  N     9.281703  4.044074  5.289973
  S     8.438713 -0.126543  3.451472
  S     8.544091  3.494433  3.871917
  S    11.405875  0.645317  0.824978
  S    11.387940  4.237170  1.053634
  S    10.735513  0.638993  4.877005
  S    10.822432  4.626225  5.133453
