16  
    
  C     9.156412 -0.413864  2.512795
  C     9.347675  3.135171  2.610269
  C     8.013905 -1.100728  2.078387
  C     8.088929  2.779401  2.060029
  N    10.200251 -0.316426  1.634620
  N    10.396661  3.247683  1.751657
  N     8.123275 -1.379305  0.753102
  N     8.181034  2.414939  0.775152
  N     7.472520 -0.412099  4.447203
  N     7.591450  3.248425  4.577237
  S     6.658507 -1.144699  3.156670
  S     6.718977  2.970697  3.198255
  S     9.578285 -0.912738  0.211642
  S     9.721343  2.798349  0.345328
  S     9.084393  0.020402  4.186041
  S     9.189815  3.533120  4.215661
