16  
    
  C     7.306115 -1.508458  2.172157
  C     7.606694  2.786315  2.221754
  C     6.188166 -2.115233  1.482678
  C     6.391127  2.281488  1.602248
  N     8.336433 -1.090361  1.394644
  N     8.632580  2.993153  1.420962
  N     6.309867 -2.078442  0.152023
  N     6.501948  2.150981  0.308782
  N     5.559247 -2.104337  3.958450
  N     5.977077  2.314496  4.115125
  S     4.849136 -2.643091  2.506884
  S     5.115178  1.970230  2.738583
  S     7.795545 -1.393910 -0.164283
  S     8.054137  2.602887 -0.148875
  S     7.066388 -1.446628  3.928508
  S     7.522614  2.735257  3.935312
