16  
    
  C    12.599110  1.673956  3.376297
  C    12.808435  5.343594  3.348992
  C    11.294652  1.312015  2.770533
  C    11.644171  4.834002  2.714423
  N    13.596615  2.007335  2.547915
  N    13.838363  5.553649  2.488414
  N    11.404307  1.325100  1.441298
  N    11.636484  4.793529  1.396953
  N    10.871864  0.956885  5.284875
  N    11.068716  5.062606  5.203320
  S    10.072563  0.742543  3.800448
  S    10.334260  4.470507  3.846657
  S    12.991420  1.697468  1.044090
  S    13.125391  5.304154  0.953441
  S    12.394537  1.597877  5.096317
  S    12.656021  5.592861  5.113851
