16  
    
  C     8.447737 -1.032143  2.490085
  C     8.273881  2.311769  2.095613
  C     7.186635 -1.178771  1.788930
  C     7.191483  1.798219  1.331513
  N     9.519729 -0.844326  1.679129
  N     9.387794  2.628739  1.400164
  N     7.372709 -1.342581  0.470708
  N     7.443370  1.800961  0.026890
  N     6.523212 -0.874959  4.154326
  N     6.198227  2.260893  3.712394
  S     5.730439 -0.965675  2.668266
  S     5.676910  1.662439  2.229162
  S     8.953378 -1.126639  0.148476
  S     8.948854  2.334916 -0.194641
  S     8.199247 -0.677942  4.122763
  S     7.868639  2.495038  3.749845
