16  
    
  C     3.338129 -3.109179  1.459531
  C     3.572915  0.530969  1.362816
  C     2.114115 -3.137059  0.701785
  C     2.292261  0.374910  0.749042
  N     4.426818 -3.033576  0.712707
  N     4.628954  0.687582  0.556846
  N     2.322198 -3.091317 -0.602124
  N     2.372955  0.318501 -0.572880
  N     1.345291 -3.517103  3.103867
  N     1.805279  0.205765  3.247584
  S     0.678974 -3.571712  1.604721
  S     1.011162  0.003058  1.842688
  S     3.900873 -2.843534 -0.833649
  S     4.003725  0.619254 -0.944266
  S     2.976859 -3.229623  3.224570
  S     3.370747  0.674814  3.108379
