16  
    
  C     9.722998  0.124827  2.725848
  C     9.720081  3.708186  2.636134
  C     8.499922 -0.308940  2.129884
  C     8.585244  3.046359  1.978563
  N    10.662095  0.547737  1.875879
  N    10.676427  4.007970  1.786040
  N     8.528297 -0.473692  0.822033
  N     8.656134  2.963155  0.631200
  N     8.190310 -0.665537  4.698863
  N     8.173832  3.282376  4.562221
  S     7.451211 -1.036752  3.262114
  S     7.373255  2.790497  3.185507
  S    10.023277  0.163287  0.366169
  S    10.164148  3.628242  0.258935
  S     9.736735 -0.048531  4.505470
  S     9.725452  3.847975  4.410056
