16  
    
  C     5.810316 -2.161378  1.872657
  C     6.076499  1.720082  1.955178
  C     4.590390 -2.432811  1.187164
  C     4.757620  1.683060  1.426368
  N     6.891732 -2.062879  1.048110
  N     7.051930  1.372237  1.113086
  N     4.769324 -2.695339 -0.136802
  N     4.651538  1.338406  0.158421
  N     4.002330 -2.350891  3.706069
  N     4.499397  2.052067  3.978975
  S     3.252044 -2.800738  2.267523
  S     3.581130  2.004756  2.615267
  S     6.294366 -2.298523 -0.466243
  S     6.276932  1.135087 -0.359732
  S     5.623958 -1.986595  3.596318
  S     6.160069  2.136848  3.680082
