16  
    
  C     4.791410 -2.034218  1.853060
  C     4.187143  1.074651  1.336374
  C     3.595160 -2.476635  1.238489
  C     2.987020  0.859082  0.627535
  N     5.792656 -1.803963  0.947845
  N     5.222817  1.350116  0.568705
  N     3.697971 -2.688382 -0.093350
  N     3.118008  0.808101 -0.694031
  N     2.919504 -2.000672  3.663908
  N     2.381651  1.162036  3.102300
  S     2.184114 -2.467237  2.242749
  S     1.621810  0.671080  1.684692
  S     5.227752 -2.326849 -0.506968
  S     4.727915  1.149670 -0.962282
  S     4.558882 -1.798683  3.586025
  S     4.047929  1.247476  2.981255
