16  
    
  C     8.396734 -0.948794  2.478876
  C     8.127863  2.637344  2.307680
  C     7.126423 -1.529606  2.022419
  C     6.965255  2.154695  1.557411
  N     9.294245 -0.865051  1.550671
  N     9.182717  2.830511  1.574909
  N     7.120007 -2.025303  0.811279
  N     7.195267  1.984560  0.270401
  N     6.872684 -0.692416  4.451586
  N     6.230738  2.844355  3.961397
  S     5.939457 -1.382293  3.230445
  S     5.591245  2.051411  2.590309
  S     8.613239 -1.603781  0.238691
  S     8.800488  2.419174 -0.031591
  S     8.440518 -0.446797  4.111800
  S     7.893274  3.043092  3.980897
