16  
    
  C    11.108729  0.732697  2.842234
  C    11.173922  4.201000  3.292724
  C     9.889657  0.046058  2.336250
  C     9.860493  3.970604  2.700174
  N    12.058355  0.907063  1.944006
  N    12.195494  4.222491  2.428533
  N    10.078542 -0.533167  1.157463
  N     9.899092  4.024383  1.392713
  N     9.403661  0.585724  4.871142
  N     9.401012  4.266512  5.203174
  S     8.689006 -0.241646  3.614044
  S     8.553742  3.985355  3.793483
  S    11.562185  0.060860  0.582584
  S    11.500959  4.130232  0.946223
  S    10.984937  1.042504  4.598561
  S    11.043307  4.454555  5.008389
