16  
    
  C    11.540838  1.215574  3.087080
  C    11.399573  4.901925  3.039687
  C    10.476850  0.328011  2.601727
  C    10.281269  4.306688  2.353515
  N    12.325454  1.679393  2.126412
  N    12.418169  5.238495  2.271888
  N    10.433506  0.265647  1.251178
  N    10.521590  4.156930  1.082202
  N     9.919251  0.815818  5.107114
  N     9.541572  4.562872  4.772804
  S     9.199997  0.098877  3.800895
  S     8.956567  3.878874  3.344715
  S    11.733856  1.138495  0.637237
  S    11.961072  4.868352  0.758969
  S    11.410889  1.453585  4.843698
  S    11.129345  5.118424  4.724084
