16  
    
  C     9.267327 -0.603273  2.633334
  C     9.229751  3.258893  2.597354
  C     8.057164 -1.044158  2.058289
  C     8.033766  2.780614  1.959108
  N    10.300814 -0.390228  1.764303
  N    10.248432  3.301801  1.748088
  N     8.168292 -1.418714  0.744530
  N     8.120649  2.523835  0.651625
  N     7.591393 -0.554295  4.557702
  N     7.547294  3.351562  4.438585
  S     6.781913 -1.044939  3.237279
  S     6.707738  2.954774  3.062177
  S     9.725446 -0.886719  0.293260
  S     9.751607  2.779281  0.218615
  S     9.169904 -0.091772  4.297301
  S     9.213507  3.526144  4.356776
