16  
    
  C     7.106428 -1.562391  2.176238
  C     7.069571  2.150791  2.079652
  C     5.888923 -1.807998  1.417791
  C     5.921118  1.698745  1.344884
  N     8.135256 -1.283810  1.377463
  N     8.148735  2.284018  1.293279
  N     6.055425 -1.920976  0.120147
  N     6.123961  1.605858  0.009191
  N     5.173853 -1.639133  3.909669
  N     5.203293  1.938731  3.778975
  S     4.502347 -2.121119  2.445589
  S     4.468621  1.606021  2.333508
  S     7.687723 -1.602104 -0.166395
  S     7.685984  1.965382 -0.207365
  S     6.782269 -1.529674  3.930772
  S     6.763459  2.422956  3.812687
