16  
    
  C    12.700100  1.556055  3.420039
  C    12.649664  5.342187  3.221564
  C    11.437815  1.186869  2.772952
  C    11.446614  4.794493  2.734295
  N    13.643770  1.947692  2.536376
  N    13.550603  5.625846  2.299437
  N    11.532574  1.188733  1.439013
  N    11.453303  4.635873  1.375253
  N    10.969944  1.139938  5.329555
  N    11.137134  4.970005  5.304161
  S    10.158442  0.897348  3.896688
  S    10.292168  4.442909  3.936067
  S    13.001517  1.730890  1.017183
  S    12.952015  5.214046  0.856313
  S    12.561385  1.646528  5.070868
  S    12.695949  5.528274  4.994952
