16  
    
  C    12.454344  1.686878  3.282561
  C    12.239791  5.357980  3.544760
  C    11.211624  1.125148  2.740202
  C    11.151529  4.719390  2.880452
  N    13.478422  1.744641  2.459764
  N    13.257123  5.691493  2.748644
  N    11.352381  0.913680  1.452001
  N    11.276365  4.624113  1.592918
  N    10.771139  1.283462  5.182593
  N    10.583948  4.986017  5.488324
  S     9.892943  0.824777  3.842994
  S     9.898922  4.410306  4.085122
  S    12.899947  1.329231  0.990323
  S    12.785594  5.175389  1.246152
  S    12.304083  1.857402  5.042657
  S    12.191080  5.526137  5.318817
