16  
    
  C     8.181792 -0.854257  2.506007
  C     8.190423  2.982173  2.375750
  C     6.999254 -1.314347  1.826319
  C     7.072298  2.336322  1.754420
  N     9.199835 -0.638711  1.689156
  N     9.184616  3.221635  1.520483
  N     7.146811 -1.694893  0.560160
  N     7.172418  2.208199  0.431682
  N     6.337470 -0.895416  4.306356
  N     6.347164  2.877780  4.197201
  S     5.645922 -1.468790  2.887113
  S     5.768721  2.149093  2.807180
  S     8.703584 -1.240876  0.218695
  S     8.686875  2.705752 -0.023185
  S     7.957585 -0.430353  4.180925
  S     8.015414  3.292855  4.085968
