16  
    
  C     4.730030 -1.959226  1.706475
  C     4.365724  1.382848  1.409271
  C     3.452076 -2.283074  1.108782
  C     3.162176  0.972717  0.701884
  N     5.730984 -2.001334  0.842762
  N     5.353408  1.567891  0.535272
  N     3.526038 -2.553298 -0.195743
  N     3.288173  0.785532 -0.593693
  N     3.037444 -1.840849  3.631295
  N     2.552287  0.742361  3.220367
  S     2.141080 -2.203151  2.279939
  S     1.761267  0.729472  1.745926
  S     5.075621 -2.258813 -0.623773
  S     4.817674  1.283806 -1.028349
  S     4.696169 -1.809964  3.432174
  S     4.159945  1.400312  3.183630
