16  
    
  C     7.843240 -0.799430  2.235275
  C     8.339995  2.786062  2.377204
  C     6.746096 -1.406460  1.559162
  C     7.023240  2.580598  1.852468
  N     8.861312 -0.412344  1.461811
  N     9.325012  2.913795  1.466655
  N     6.981384 -1.590781  0.247971
  N     6.936904  2.506906  0.510311
  N     6.117167 -1.173104  3.984548
  N     6.682240  3.093214  4.426800
  S     5.401247 -1.786480  2.544583
  S     5.755851  2.559909  3.138608
  S     8.434816 -0.854151 -0.064697
  S     8.575395  2.776077 -0.000726
  S     7.648904 -0.555191  3.912679
  S     8.367898  3.009247  4.119078
