16  
    
  C     8.711809 -0.508794  2.421536
  C     8.543224  3.187113  2.610221
  C     7.515838 -0.893544  1.687234
  C     7.340505  2.725998  1.911113
  N     9.783327 -0.486010  1.680356
  N     9.544049  3.367959  1.779759
  N     7.722879 -1.248700  0.439691
  N     7.480575  2.502376  0.610054
  N     6.871525 -0.789479  4.114529
  N     6.846047  2.822549  4.444013
  S     6.088045 -0.944322  2.665753
  S     6.084154  2.503752  3.028297
  S     9.332720 -0.984134  0.176690
  S     9.024721  2.990020  0.230644
  S     8.504294 -0.256076  4.138502
  S     8.443932  3.216678  4.393906
