16  
    
  C     8.738773 -0.088444  2.526537
  C     8.518243  3.159167  2.532777
  C     7.569372 -0.649164  1.894416
  C     7.364236  2.629452  1.820697
  N     9.731195  0.194621  1.688593
  N     9.580032  3.363927  1.754947
  N     7.694740 -0.739087  0.554292
  N     7.601062  2.332711  0.530187
  N     7.146282 -0.762252  4.367412
  N     6.718313  2.893875  4.343837
  S     6.265224 -0.969220  2.973692
  S     6.098480  2.334943  2.923892
  S     9.218621 -0.194508  0.154484
  S     9.143897  2.906068  0.267676
  S     8.657414 -0.133180  4.292867
  S     8.308983  3.292838  4.285921
