16  
    
  C     8.779972 -0.767286  2.355909
  C     8.482804  3.193355  2.590633
  C     7.558828 -1.167949  1.659617
  C     7.308528  2.634203  1.926734
  N     9.890066 -0.733560  1.675339
  N     9.444600  3.530355  1.792586
  N     7.770917 -1.344001  0.388338
  N     7.465985  2.476769  0.635219
  N     6.877591 -0.733049  4.092501
  N     6.845516  2.823195  4.449510
  S     6.091426 -1.124963  2.654823
  S     6.093786  2.313912  3.063699
  S     9.387446 -1.083746  0.106054
  S     8.977893  3.061404  0.216246
  S     8.513343 -0.525096  4.090853
  S     8.385882  3.366428  4.289305
