16  
    
  C     7.280362 -1.111962  2.082666
  C     7.715095  2.815292  2.195614
  C     6.069687 -1.472156  1.392662
  C     6.527678  2.263599  1.626886
  N     8.339534 -0.813555  1.267886
  N     8.694351  2.944867  1.305764
  N     6.263737 -1.715607  0.072370
  N     6.607595  2.142305  0.304931
  N     5.526856 -1.735325  3.925233
  N     5.975253  2.738931  4.090472
  S     4.810663 -1.946667  2.472467
  S     5.262239  2.027681  2.786654
  S     7.835690 -1.335296 -0.225426
  S     8.100249  2.425165 -0.167189
  S     7.130921 -1.182695  3.818030
  S     7.619240  3.198046  3.895365
