16  
    
  C     9.004908 -0.231057  2.317163
  C     9.483961  3.289645  2.706117
  C     7.825629 -0.893439  1.761904
  C     8.239425  2.977199  2.155677
  N    10.067248 -0.219971  1.550108
  N    10.515202  3.185921  1.895109
  N     8.010597 -1.320443  0.552877
  N     8.234529  2.684098  0.862796
  N     7.223259 -0.377149  4.227371
  N     7.705854  3.282461  4.649011
  S     6.492286 -1.115654  2.937611
  S     6.903826  2.882552  3.280282
  S     9.615305 -0.934095  0.112567
  S     9.833145  2.731362  0.401016
  S     8.801349  0.167904  4.007228
  S     9.284021  3.633070  4.366898
