16  
    
  C     9.056818 -0.438562  2.533676
  C     9.010282  3.465015  2.732188
  C     7.794465 -0.804835  1.912310
  C     7.808661  3.090511  2.109784
  N    10.014683 -0.105861  1.657542
  N     9.995778  3.544181  1.862366
  N     7.827441 -0.887433  0.601642
  N     7.834396  2.952809  0.798359
  N     7.304029 -0.785583  4.479144
  N     7.319708  3.213308  4.621162
  S     6.501494 -1.026494  3.077515
  S     6.509811  2.821152  3.233604
  S     9.328907 -0.370876  0.144757
  S     9.346197  3.361415  0.305663
  S     8.860792 -0.323828  4.328183
  S     8.933830  3.562951  4.506350
