16  
    
  C    10.426794  0.100331  2.695627
  C    10.269335  4.193832  3.125691
  C     9.212321 -0.548717  2.164399
  C     8.998478  3.845984  2.507970
  N    11.488945  0.036208  1.857430
  N    11.280607  4.060715  2.285866
  N     9.364944 -0.920073  0.890015
  N     9.050245  3.500853  1.221259
  N     8.483946  0.285632  4.452952
  N     8.692282  4.178678  5.052464
  S     7.772701 -0.416709  3.149163
  S     7.727736  3.940562  3.726493
  S    10.883534 -0.536876  0.417212
  S    10.645047  3.515751  0.865881
  S    10.126208  0.712236  4.325388
  S    10.226213  4.734339  4.756522
