16  
    
  C    12.091947  1.411668  3.587682
  C    11.855263  4.963289  3.749449
  C    10.972859  0.753127  2.934859
  C    10.684868  4.353579  3.200094
  N    12.980172  1.904235  2.728345
  N    12.779166  5.283749  2.862117
  N    10.975461  0.831215  1.597667
  N    10.651976  4.265702  1.855749
  N    10.434889  0.604087  5.440104
  N    10.330284  4.338949  5.709300
  S     9.675857  0.217394  3.997334
  S     9.523473  3.875687  4.309853
  S    12.438204  1.550542  1.171004
  S    12.141893  4.972488  1.390646
  S    11.933243  1.369108  5.307084
  S    11.847837  5.031734  5.527291
