16  
    
  C    12.083642  1.185907  3.445926
  C    12.254980  5.162819  3.177055
  C    10.885743  0.747427  2.722056
  C    10.949182  4.727563  2.695156
  N    13.187159  1.090185  2.698013
  N    13.290573  5.109559  2.317596
  N    10.998710  0.549911  1.416156
  N    11.074676  4.345952  1.435000
  N    10.186565  1.439251  5.130892
  N    10.524786  5.296993  5.149207
  S     9.547549  0.758263  3.763964
  S     9.628276  4.899250  3.785219
  S    12.611854  0.801601  1.132968
  S    12.650455  4.489029  0.919313
  S    11.813264  1.690818  5.074679
  S    12.161147  5.526439  4.836344
