16  
    
  C     4.176555 -2.608449  1.565960
  C     4.271651  1.402528  1.695945
  C     2.998234 -3.257228  1.080732
  C     2.942580  1.211876  1.096770
  N     5.177970 -2.561922  0.710007
  N     5.268076  1.226007  0.836693
  N     3.069797 -3.768895 -0.152876
  N     2.962829  0.994350 -0.209173
  N     2.456664 -2.558027  3.454030
  N     2.563196  1.638948  3.564907
  S     1.659699 -3.079591  2.109236
  S     1.600001  1.585150  2.192033
  S     4.570211 -3.233539 -0.743700
  S     4.509565  0.974489 -0.664879
  S     4.090250 -2.271439  3.251001
  S     4.233622  1.483164  3.366392
