16  
    
  C     3.206914 -2.898520  1.550740
  C     3.574266  0.567561  1.413282
  C     2.072274 -3.214769  0.739753
  C     2.323120  0.238320  0.767929
  N     4.335583 -2.622326  0.909956
  N     4.596330  0.817005  0.588069
  N     2.319910 -3.061141 -0.540234
  N     2.391697  0.437135 -0.543975
  N     1.374971 -3.563671  3.214153
  N     1.898423  0.119371  3.330285
  S     0.677805 -3.645801  1.703433
  S     1.015314 -0.011188  1.858857
  S     3.970502 -2.849085 -0.657448
  S     3.919527  0.770947 -0.959869
  S     2.997453 -3.095467  3.242705
  S     3.483117  0.692450  3.191560
