16  
    
  C     7.166831 -1.243209  2.346221
  C     7.801844  2.846858  2.329314
  C     6.095451 -1.785941  1.511849
  C     6.617578  2.362775  1.633762
  N     8.224514 -0.926896  1.622762
  N     8.842928  3.089700  1.549794
  N     6.346600 -1.817131  0.212747
  N     6.750163  2.089477  0.340546
  N     5.253648 -1.907031  3.977606
  N     5.984777  2.507393  4.203824
  S     4.789454 -2.521253  2.446536
  S     5.292355  2.059019  2.679736
  S     7.889535 -1.224151  0.013025
  S     8.358064  2.687117  0.010988
  S     6.783857 -1.282200  4.057902
  S     7.590293  2.959721  4.080823
