16  
    
  C     6.219503 -1.793095  2.320781
  C     6.607668  2.123953  2.204825
  C     5.005681 -2.157641  1.653740
  C     5.412391  1.533539  1.586702
  N     7.178692 -1.292108  1.523822
  N     7.527742  2.490602  1.313917
  N     5.137294 -2.162514  0.309714
  N     5.468853  1.525191  0.252191
  N     4.496881 -2.030020  4.115605
  N     4.937825  1.708500  4.110194
  S     3.742369 -2.539775  2.726233
  S     4.176442  1.213441  2.747135
  S     6.678629 -1.593574  0.009354
  S     6.914454  2.110935 -0.190426
  S     6.082438 -1.694965  4.043920
  S     6.510648  2.271817  3.977733
