16  
    
  C     3.512405 -3.100967  1.032085
  C     3.883688  0.749675  1.461859
  C     2.242070 -3.548850  0.427673
  C     2.650601  0.367873  0.773472
  N     4.535572 -3.032218  0.228698
  N     4.912452  0.874421  0.646344
  N     2.326865 -3.774387 -0.873342
  N     2.805919  0.121569 -0.526485
  N     1.766107 -2.977128  2.910414
  N     2.083487  0.411144  3.286290
  S     1.036069 -3.829683  1.700124
  S     1.310574 -0.030561  1.917198
  S     3.946036 -3.342948 -1.291617
  S     4.346883  0.502269 -0.947426
  S     3.330877 -2.596665  2.645974
  S     3.647263  1.030427  3.172571
