16  
    
  C     4.506002 -2.144961  1.886296
  C     3.998524  1.168055  1.157503
  C     3.341397 -2.675007  1.233718
  C     2.822535  0.699459  0.503642
  N     5.545576 -2.037752  1.077436
  N     5.061228  1.267763  0.395042
  N     3.536738 -3.038034 -0.017325
  N     3.038238  0.370696 -0.758251
  N     2.630007 -2.391871  3.712959
  N     2.329633  0.923509  2.993893
  S     1.984635 -3.016609  2.323072
  S     1.516200  0.331015  1.620241
  S     5.060646 -2.543542 -0.404232
  S     4.653065  0.758896 -1.099393
  S     4.186453 -1.823604  3.598639
  S     3.856746  1.463126  2.874722
