16  
    
  C     8.939301 -0.321705  2.576905
  C     8.619542  3.396223  2.559853
  C     7.708994 -0.678036  1.895288
  C     7.366432  2.841579  1.961244
  N     9.938897 -0.060427  1.764216
  N     9.513346  3.799649  1.645867
  N     7.795203 -0.740154  0.602579
  N     7.374487  2.862355  0.644617
  N     7.197816 -0.665214  4.387406
  N     7.006163  2.689105  4.455450
  S     6.398839 -0.914830  2.985450
  S     6.154779  2.281848  3.094735
  S     9.340722 -0.311049  0.208340
  S     8.877694  3.376052  0.148789
  S     8.783963 -0.179210  4.298893
  S     8.528863  3.293002  4.266751
