16  
    
  C     6.063002 -2.117804  1.708636
  C     6.169780  1.766489  1.839824
  C     4.816167 -2.510974  1.110224
  C     4.854370  1.848826  1.204785
  N     7.151039 -2.135669  0.894796
  N     7.193885  1.668138  1.003490
  N     4.948754 -2.580164 -0.219547
  N     4.879164  1.741258 -0.119575
  N     4.290656 -2.130579  3.612443
  N     4.410311  1.855462  3.715015
  S     3.446017 -2.503567  2.204022
  S     3.521876  1.969375  2.299432
  S     6.525302 -2.551530 -0.572465
  S     6.512206  1.511572 -0.546698
  S     5.946224 -1.836971  3.457505
  S     6.059783  1.868165  3.556618
