16  
    
  C     4.551054 -2.121187  1.915163
  C     4.090054  1.199856  1.212033
  C     3.393978 -2.687807  1.248933
  C     2.880396  0.700346  0.546382
  N     5.640337 -1.985539  1.176959
  N     5.175066  1.222717  0.418796
  N     3.561671 -2.819395 -0.055085
  N     2.977571  0.588531 -0.801050
  N     2.749991 -2.444340  3.717508
  N     2.249769  0.919341  2.988792
  S     2.048350 -2.929427  2.284902
  S     1.543707  0.438248  1.601740
  S     5.183873 -2.539213 -0.363669
  S     4.618806  0.795653 -1.088309
  S     4.250240 -1.742195  3.571206
  S     3.861671  1.417663  2.903060
