16  
    
  C    11.316048  0.867074  3.277769
  C    11.603769  4.713208  3.021579
  C    10.039378  0.579613  2.679992
  C    10.446107  4.193355  2.349779
  N    12.299992  1.027736  2.403768
  N    12.594343  4.912861  2.167357
  N    10.068655  0.430159  1.376836
  N    10.540884  3.957105  1.076870
  N     9.659844  0.687375  5.292231
  N     9.836581  4.380631  4.801362
  S     8.808629  0.383440  3.893112
  S     9.074996  3.909335  3.400471
  S    11.655021  0.651598  0.878318
  S    12.045728  4.455806  0.650573
  S    11.204157  1.298620  5.028030
  S    11.411320  4.880658  4.700657
