16  
    
  C    12.614893  1.516475  3.640696
  C    12.381615  5.206038  3.423553
  C    11.344770  1.066156  3.006093
  C    11.138531  4.773277  2.841246
  N    13.496660  1.794130  2.697015
  N    13.342516  5.324645  2.554752
  N    11.389295  0.854703  1.703277
  N    11.147910  4.557765  1.531314
  N    10.818454  1.450969  5.530286
  N    10.689852  4.900483  5.364131
  S    10.076165  0.755056  4.145754
  S     9.839325  4.633220  4.002557
  S    12.867802  1.405191  1.266352
  S    12.758293  4.869510  1.092001
  S    12.446659  1.736016  5.287420
  S    12.232473  5.477772  5.211589
