16  
    
  C    12.073969  1.615151  3.475020
  C    12.153891  4.983411  3.807394
  C    10.990350  0.831168  2.838781
  C    10.888370  4.587701  3.210581
  N    13.080631  1.853851  2.615199
  N    13.016087  5.460710  2.913250
  N    11.089260  0.738976  1.515474
  N    10.845876  4.634336  1.901418
  N    10.281718  1.070150  5.317143
  N    10.590417  4.623810  5.829965
  S     9.734401  0.363159  3.896404
  S     9.662139  4.307825  4.505405
  S    12.526252  1.407552  1.125313
  S    12.286799  5.204483  1.414609
  S    11.816281  1.719304  5.155245
  S    12.157294  5.007701  5.518108
