16  
    
  C     9.731019  0.133473  2.767855
  C     9.728844  3.612342  2.635193
  C     8.498662 -0.353536  2.122633
  C     8.542272  3.021053  1.990055
  N    10.645217  0.515621  1.917481
  N    10.716003  3.975337  1.847285
  N     8.559581 -0.483053  0.811734
  N     8.637437  3.017368  0.668497
  N     8.228859 -0.705076  4.712803
  N     8.171350  3.270370  4.598660
  S     7.410544 -1.033850  3.279243
  S     7.392323  2.833742  3.210558
  S    10.053527  0.169889  0.390800
  S    10.169034  3.656490  0.257906
  S     9.717297 -0.009480  4.521475
  S     9.701304  3.797459  4.381247
