16  
    
  C     4.965036 -2.392033  1.591515
  C     4.869705  1.701941  2.026243
  C     3.769452 -2.955035  1.046489
  C     3.761761  1.047216  1.365530
  N     6.021458 -2.405124  0.766895
  N     5.954243  1.840435  1.249284
  N     3.912630 -3.415848 -0.233613
  N     3.941215  0.791457  0.076817
  N     3.222781 -2.425762  3.439105
  N     3.103829  1.232858  3.846883
  S     2.393549 -2.832947  2.077585
  S     2.405962  0.717629  2.477640
  S     5.438286 -2.955937 -0.664251
  S     5.525044  1.281504 -0.276270
  S     4.819016 -1.998186  3.281154
  S     4.700212  1.653492  3.716635
