16  
    
  C     8.472829 -0.923744  2.387194
  C     8.273487  2.678100  2.010376
  C     7.296018 -1.270932  1.705811
  C     7.074593  2.321419  1.327507
  N     9.569384 -0.884280  1.616512
  N     9.377427  2.797157  1.231986
  N     7.420933 -1.291218  0.374270
  N     7.213164  2.110759  0.009403
  N     6.641354 -1.160418  4.111627
  N     6.407770  2.308170  3.785332
  S     5.891433 -1.574585  2.635188
  S     5.676300  1.914030  2.365451
  S     9.009343 -1.154519  0.077238
  S     8.813416  2.426408 -0.268654
  S     8.251390 -0.925394  4.072184
  S     7.940260  2.772190  3.725258
