16  
    
  C     4.544190 -2.585846  1.490998
  C     5.250815  1.470939  1.759959
  C     3.257935 -2.754373  0.797334
  C     3.956338  1.155616  1.201616
  N     5.578948 -2.367413  0.684830
  N     6.194457  1.643304  0.842159
  N     3.369705 -2.763611 -0.534701
  N     3.940964  0.982915 -0.095878
  N     2.781737 -2.788457  3.363068
  N     3.605200  1.485765  3.774387
  S     1.993211 -3.249403  1.924087
  S     2.739212  1.227061  2.353055
  S     4.961058 -2.388369 -0.847884
  S     5.493545  1.433272 -0.640473
  S     4.429795 -2.638541  3.265728
  S     5.244328  1.735162  3.453545
