16  
    
  C     8.203421 -0.818527  2.480429
  C     8.215788  2.996673  2.346634
  C     7.021711 -1.409651  1.905335
  C     7.035500  2.373877  1.722346
  N     9.300723 -0.773516  1.657293
  N     9.220215  3.276752  1.516233
  N     7.174982 -1.632936  0.579614
  N     7.169383  2.121497  0.406003
  N     6.393142 -0.816041  4.382267
  N     6.429879  2.744179  4.167875
  S     5.674198 -1.451834  3.013065
  S     5.673990  2.093489  2.813606
  S     8.758976 -1.321363  0.170794
  S     8.742108  2.703828  0.046502
  S     7.952210 -0.429003  4.137541
  S     7.952395  3.291321  4.062763
