16  
    
  C    12.078614  1.419094  3.584015
  C    11.862878  4.966225  3.747004
  C    10.980417  0.748301  2.933978
  C    10.687788  4.367238  3.197177
  N    12.974646  1.904354  2.726793
  N    12.779556  5.287455  2.868055
  N    10.975459  0.826001  1.598117
  N    10.647040  4.271616  1.854232
  N    10.435665  0.600329  5.443443
  N    10.337417  4.335145  5.710194
  S     9.676606  0.219718  3.995457
  S     9.523761  3.874239  4.317335
  S    12.438180  1.553434  1.172064
  S    12.144134  4.974571  1.390167
  S    11.936382  1.373530  5.316146
  S    11.851943  5.031712  5.525110
