16  
    
  C     5.852823 -2.238775  1.634638
  C     5.275087  1.380607  1.692481
  C     4.560989 -2.550394  1.151501
  C     4.044787  0.929308  1.143457
  N     6.737530 -2.001496  0.671491
  N     6.280633  1.494636  0.817874
  N     4.537384 -2.689188 -0.176503
  N     4.025304  0.680992 -0.160739
  N     4.241663 -2.323626  3.715296
  N     3.569843  1.205858  3.662095
  S     3.331466 -2.596584  2.304854
  S     2.806538  0.621710  2.341484
  S     6.050682 -2.373471 -0.739022
  S     5.645494  0.943814 -0.660703
  S     5.845656 -1.824431  3.373122
  S     5.200389  1.594539  3.471302
