16  
    
  C     6.254168 -1.530240  1.531819
  C     6.406480  2.141115  1.887141
  C     5.098509 -2.184036  0.922232
  C     5.221290  1.585844  1.237391
  N     7.349518 -1.423513  0.785493
  N     7.410378  2.376639  1.024836
  N     5.269837 -2.362615 -0.374290
  N     5.466293  1.236994 -0.041158
  N     4.445878 -1.817248  3.382041
  N     4.639264  1.787105  3.723431
  S     3.798193 -2.535636  1.989873
  S     3.858123  1.377708  2.332592
  S     6.897368 -1.988259 -0.731714
  S     6.953745  1.720853 -0.396977
  S     5.986355 -1.153978  3.225258
  S     6.151393  2.418361  3.571354
