16  
    
  C     5.870605 -2.142838  1.859750
  C     6.107093  1.709313  1.895003
  C     4.657869 -2.488045  1.169352
  C     4.767375  1.717596  1.416813
  N     6.948800 -2.119905  1.058459
  N     7.047078  1.454953  0.982357
  N     4.674961 -2.497440 -0.177689
  N     4.725693  1.336689  0.149258
  N     4.077523 -2.356141  3.636507
  N     4.549650  2.030296  3.919328
  S     3.297661 -2.694623  2.248496
  S     3.534122  2.090629  2.619509
  S     6.340925 -2.410518 -0.499341
  S     6.222522  1.082841 -0.364381
  S     5.681265 -2.029226  3.571592
  S     6.190874  2.053998  3.628977
