16  
    
  C     9.787006 -0.129026  2.892522
  C     9.774828  3.538726  2.725127
  C     8.611336 -0.717095  2.219954
  C     8.436758  3.314407  2.119680
  N    10.837310  0.080737  2.079047
  N    10.754984  3.949589  1.890579
  N     8.704591 -0.825402  0.896285
  N     8.529693  3.264205  0.784206
  N     7.925045 -0.502211  4.645061
  N     7.878812  3.279950  4.632074
  S     7.164160 -0.785025  3.179000
  S     7.028437  3.310453  3.146427
  S    10.263954 -0.382423  0.536341
  S    10.066567  3.804264  0.356986
  S     9.452075  0.084888  4.588295
  S     9.535389  3.620239  4.472579
