16  
    
  C    10.284488  0.595494  2.981597
  C    10.625865  4.549690  2.890997
  C     9.153803 -0.044407  2.353646
  C     9.373389  4.310558  2.214517
  N    11.247455  0.977414  2.163656
  N    11.625709  4.853020  2.100196
  N     9.202980 -0.140108  1.026788
  N     9.497926  4.181361  0.866709
  N     8.695057  0.032044  4.894554
  N     9.115100  3.820711  4.810470
  S     7.916156 -0.569458  3.527395
  S     8.145156  3.918368  3.450532
  S    10.712320  0.589825  0.637661
  S    11.099465  4.505544  0.564636
  S    10.262779  0.585054  4.725846
  S    10.722947  4.245650  4.592696
