16  
    
  C     9.978126 -0.086026  2.761971
  C     9.761101  3.831514  2.853213
  C     8.814694 -0.592171  2.031499
  C     8.700960  3.141172  2.118838
  N    10.987045  0.120298  1.958970
  N    10.762968  4.189243  2.071864
  N     9.049166 -0.788883  0.773970
  N     8.978311  2.949628  0.823372
  N     8.002423 -0.395426  4.455502
  N     7.843676  3.637692  4.571741
  S     7.384258 -0.939971  3.021436
  S     7.230652  3.150149  3.112636
  S    10.555428 -0.257362  0.403766
  S    10.390725  3.688702  0.518025
  S     9.633791  0.072801  4.511106
  S     9.394058  4.293504  4.448405
