16  
    
  C    11.604812  1.314934  2.836184
  C    11.571336  4.986100  3.111481
  C    10.493860  0.580741  2.368386
  C    10.428732  4.497113  2.402946
  N    12.565708  1.458678  1.932762
  N    12.568943  5.394135  2.366367
  N    10.423342  0.407759  1.038475
  N    10.611219  4.411027  1.085217
  N    10.194091  0.688503  4.898132
  N     9.717373  4.497098  4.927282
  S     9.404498  0.051380  3.602975
  S     9.089322  4.019480  3.431919
  S    11.898886  1.004794  0.482628
  S    12.198247  4.954593  0.817486
  S    11.537848  1.596573  4.575890
  S    11.297237  4.981911  4.887388
