16  
    
  C     3.219676 -2.775378  1.608382
  C     3.631021  0.688620  1.457691
  C     2.110658 -3.206705  0.791140
  C     2.377855  0.393242  0.816544
  N     4.304534 -2.397425  0.946470
  N     4.570864  1.012039  0.580365
  N     2.367671 -3.331220 -0.484759
  N     2.372388  0.355646 -0.503594
  N     1.387831 -3.521759  3.308234
  N     1.964236  0.144557  3.297663
  S     0.722656 -3.734574  1.795897
  S     1.084645 -0.023832  1.917455
  S     3.950466 -2.729415 -0.687258
  S     3.923488  0.850004 -0.941762
  S     2.927667 -3.006218  3.332954
  S     3.519289  0.656673  3.164250
