16  
    
  C     9.707043 -0.629487  2.718716
  C     9.646062  3.240855  2.583355
  C     8.450719 -0.985845  2.122077
  C     8.393704  3.092280  1.946048
  N    10.737192 -0.546770  1.915767
  N    10.704613  3.368299  1.759175
  N     8.540271 -1.034417  0.819393
  N     8.445145  3.056190  0.628065
  N     7.931845 -0.545527  4.574164
  N     7.721183  2.939450  4.428594
  S     7.057565 -0.960813  3.206658
  S     6.948472  3.027866  2.973632
  S    10.111903 -0.769383  0.387002
  S     9.992426  3.298351  0.264666
  S     9.569366 -0.406978  4.445897
  S     9.332068  3.276965  4.287709
