16  
    
  C    11.360031  0.948685  3.207563
  C    11.444941  4.761789  3.129492
  C    10.132334  0.452181  2.585774
  C    10.269337  4.145325  2.504626
  N    12.284637  1.195275  2.325189
  N    12.541766  4.898592  2.364780
  N    10.219458  0.130546  1.321632
  N    10.525493  3.860739  1.254240
  N     9.646609  0.870884  5.150837
  N     9.691127  4.369730  5.035852
  S     8.909220  0.313820  3.779554
  S     9.009552  3.748378  3.673167
  S    11.709429  0.647694  0.841132
  S    12.067046  4.337935  0.808694
  S    11.245398  1.237047  4.884743
  S    11.190211  5.024521  4.866508
