16  
    
  C     3.341948 -3.065382  1.108236
  C     3.679822  0.600030  1.371968
  C     2.147014 -3.375004  0.429564
  C     2.499117  0.172122  0.686854
  N     4.401328 -2.909435  0.269020
  N     4.717111  0.779634  0.553490
  N     2.275093 -3.555624 -0.913502
  N     2.637692 -0.049911 -0.617717
  N     1.557026 -3.406128  3.012453
  N     1.855563  0.391929  3.182415
  S     0.798527 -3.541434  1.557801
  S     1.035600  0.130026  1.727127
  S     3.847675 -3.242606 -1.253765
  S     4.250819  0.458663 -0.961695
  S     3.202214 -3.181334  2.829343
  S     3.478474  0.779212  3.096254
