16  
    
  C     7.342342 -1.601477  2.153100
  C     7.600686  2.500202  2.144846
  C     6.114089 -1.982272  1.505459
  C     6.345308  1.981214  1.579102
  N     8.334054 -1.270812  1.341146
  N     8.548946  2.761868  1.252497
  N     6.214785 -2.017901  0.183662
  N     6.268931  1.947060  0.256414
  N     5.588357 -2.125033  3.920757
  N     5.898771  2.125151  4.074446
  S     4.852792 -2.550901  2.522472
  S     5.007291  1.930826  2.757680
  S     7.765840 -1.574486 -0.169950
  S     7.879647  2.431410 -0.265888
  S     7.220928 -1.607619  3.887536
  S     7.437627  2.675325  3.865621
