16  
    
  C     7.735745 -0.903294  1.761224
  C     7.763838  2.950704  2.318384
  C     6.468972 -1.337749  1.189215
  C     6.631386  2.352821  1.576400
  N     8.690386 -0.764540  0.836695
  N     8.842150  3.119827  1.593596
  N     6.611596 -1.779185 -0.086122
  N     6.787678  2.225334  0.271732
  N     6.105719 -1.110919  3.785753
  N     5.909324  2.700475  4.062113
  S     5.219892 -1.442409  2.412254
  S     5.274027  2.115252  2.609664
  S     8.182232 -1.438841 -0.592710
  S     8.481356  2.635198  0.085739
  S     7.736023 -0.678624  3.503447
  S     7.481428  3.250609  4.005868
