16  
    
  C     4.583256 -2.112952  1.931208
  C     4.127263  1.147808  1.229465
  C     3.446684 -2.657919  1.233475
  C     2.945932  0.755022  0.532067
  N     5.656804 -1.973985  1.200951
  N     5.194327  1.216183  0.445802
  N     3.589785 -2.753545 -0.067482
  N     3.013065  0.669292 -0.794506
  N     2.805935 -2.443088  3.705823
  N     2.237977  0.969562  3.048194
  S     2.065415 -2.881360  2.273491
  S     1.567591  0.485486  1.597629
  S     5.239244 -2.513155 -0.348745
  S     4.592595  0.828163 -1.097060
  S     4.297082 -1.713757  3.563764
  S     3.843573  1.384645  2.919458
