16  
    
  C     6.042069 -2.268403  1.805788
  C     6.073527  1.560990  1.864913
  C     4.798418 -2.638335  1.147171
  C     4.746287  1.678571  1.268060
  N     7.077652 -2.231723  0.940556
  N     7.038254  1.414045  0.959622
  N     4.849490 -2.725918 -0.200922
  N     4.742445  1.623671 -0.064608
  N     4.232338 -2.099843  3.642450
  N     4.472579  2.181631  3.786514
  S     3.384445 -2.454977  2.210356
  S     3.541806  1.963315  2.447552
  S     6.431962 -2.517250 -0.575764
  S     6.334414  1.440238 -0.524761
  S     5.895707 -2.069473  3.508429
  S     6.093248  1.902758  3.564286
