16  
    
  C     9.062925 -0.280409  2.378278
  C     9.395674  3.172655  2.689809
  C     7.872277 -0.936528  1.839800
  C     8.163702  2.821799  2.068551
  N    10.053079 -0.198339  1.525737
  N    10.374223  3.162202  1.825064
  N     8.023196 -1.360285  0.626210
  N     8.189142  2.559029  0.750846
  N     7.310938 -0.348396  4.317747
  N     7.677138  3.240625  4.602115
  S     6.648163 -1.144523  3.012395
  S     6.841031  2.887837  3.198732
  S     9.525852 -0.966418  0.142890
  S     9.776667  2.729239  0.352834
  S     8.875992  0.132848  4.114434
  S     9.314574  3.659797  4.480973
