16  
    
  C     6.179117 -1.478131  1.526072
  C     6.389385  2.209063  1.878031
  C     5.031145 -2.043442  0.845038
  C     5.209996  1.635195  1.235585
  N     7.276455 -1.480218  0.770714
  N     7.458523  2.233398  1.091513
  N     5.309453 -2.477818 -0.408738
  N     5.327187  1.343930 -0.055110
  N     4.487824 -1.898693  3.417569
  N     4.627410  1.741197  3.733467
  S     3.783780 -2.501860  2.020149
  S     3.837080  1.427158  2.267319
  S     6.842763 -2.025510 -0.710332
  S     6.951597  1.743385 -0.478394
  S     5.976736 -1.145947  3.195656
  S     6.203677  2.356062  3.593519
