16  
    
  C     8.836958 -0.164176  2.549307
  C     8.580479  3.138198  2.561357
  C     7.662459 -0.682517  1.897940
  C     7.434066  2.599055  1.924252
  N     9.842639  0.070511  1.680687
  N     9.543325  3.532406  1.710890
  N     7.678605 -0.637216  0.558585
  N     7.511709  2.543133  0.587728
  N     7.153205 -0.736438  4.431668
  N     6.721173  2.879366  4.358521
  S     6.360657 -0.939544  2.994983
  S     6.086143  2.127834  2.986802
  S     9.234023 -0.187954  0.145817
  S     8.986014  3.136854  0.192327
  S     8.693929 -0.163643  4.316062
  S     8.321214  3.362257  4.267851
