16  
    
  C     8.399467 -0.999619  2.515937
  C     8.196383  2.654545  2.136933
  C     7.111788 -1.368108  1.978608
  C     7.030767  2.192091  1.382532
  N     9.346155 -0.973251  1.559884
  N     9.325427  2.642720  1.409627
  N     7.140843 -1.837657  0.710198
  N     7.227223  1.897302  0.085508
  N     6.735275 -0.670479  4.422073
  N     6.271568  2.255737  3.908855
  S     5.915921 -1.317397  3.186318
  S     5.617736  2.078226  2.336659
  S     8.687093 -1.506086  0.147602
  S     8.898506  2.213902 -0.085747
  S     8.378865 -0.407553  4.159711
  S     7.905010  2.784978  3.876430
