16  
    
  C    10.049794 -0.049561  2.651246
  C     9.882145  3.938681  2.736839
  C     8.831326 -0.475482  2.032875
  C     9.006287  2.923760  2.232343
  N    11.003834  0.261361  1.827521
  N    10.876582  4.214525  1.916150
  N     8.891593 -0.685579  0.757315
  N     9.230126  2.539522  0.962982
  N     8.337898 -0.452793  4.591371
  N     8.356892  3.446468  4.734611
  S     7.556304 -0.747066  3.161420
  S     7.809454  2.468526  3.471881
  S    10.439612 -0.228635  0.308061
  S    10.637292  3.401837  0.552671
  S     9.864872  0.154928  4.373439
  S     9.518536  4.576782  4.294336
