16  
    
  C     4.714351 -2.050431  1.655269
  C     4.410523  1.515562  1.442852
  C     3.383957 -2.162799  1.074123
  C     3.236914  0.999910  0.740942
  N     5.699086 -2.086899  0.771956
  N     5.429217  1.760453  0.631589
  N     3.353468 -2.252782 -0.247807
  N     3.331302  0.896414 -0.574051
  N     3.021399 -1.781202  3.589222
  N     2.789369  0.810461  3.257824
  S     2.109604 -2.166269  2.274087
  S     1.920262  0.656181  1.850341
  S     4.980974 -2.340144 -0.758900
  S     4.863318  1.336733 -0.874824
  S     4.680762 -1.781721  3.368661
  S     4.235021  1.512427  3.120729
