16  
    
  C     8.891374 -0.273083  2.560831
  C     8.588556  3.320503  2.485489
  C     7.703361 -0.743768  1.949833
  C     7.363848  2.813155  1.968104
  N     9.944941 -0.084794  1.774832
  N     9.544220  3.778963  1.636430
  N     7.776579 -0.712218  0.612620
  N     7.371369  2.830889  0.634340
  N     7.211863 -0.702207  4.391547
  N     6.957570  2.691373  4.459939
  S     6.393625 -0.897902  2.998775
  S     6.104114  2.194639  3.086107
  S     9.334477 -0.264750  0.238705
  S     8.894292  3.361792  0.170855
  S     8.761315 -0.167453  4.223534
  S     8.488848  3.327929  4.252502
