16  
    
  C     7.095263 -1.214608  2.314754
  C     7.765541  2.832428  2.336032
  C     6.102887 -1.883396  1.525965
  C     6.621611  2.326641  1.632879
  N     8.206954 -0.862175  1.643607
  N     8.787013  3.097072  1.551538
  N     6.351614 -1.865799  0.201305
  N     6.835667  2.249543  0.315018
  N     5.304594 -2.010205  3.900819
  N     5.960835  2.486599  4.132553
  S     4.849548 -2.534409  2.438767
  S     5.278159  2.051646  2.737280
  S     7.879040 -1.267607  0.094445
  S     8.352042  2.673509 -0.010306
  S     6.820931 -1.310867  4.006000
  S     7.573231  2.940020  4.098753
