16  
    
  C    12.812188  1.684811  3.348359
  C    12.498761  5.227520  3.258938
  C    11.524814  1.204365  2.739899
  C    11.254546  4.796331  2.626394
  N    13.744532  1.855367  2.462907
  N    13.476263  5.515849  2.426147
  N    11.537837  1.050886  1.426412
  N    11.333241  4.684984  1.333590
  N    11.131262  1.519659  5.298414
  N    10.957622  4.769243  5.281541
  S    10.348784  0.864551  4.005684
  S    10.080809  4.451245  3.852253
  S    13.064231  1.493163  0.952603
  S    12.888906  5.129335  0.896679
  S    12.749748  1.718628  5.035564
  S    12.483797  5.483009  4.966273
