16  
    
  C     6.246120 -1.729600  2.098905
  C     6.524356  2.175180  2.078601
  C     5.152386 -2.356269  1.376628
  C     5.367000  1.630319  1.461719
  N     7.276384 -1.459200  1.321887
  N     7.551141  2.302625  1.219141
  N     5.331558 -2.524573  0.088665
  N     5.489899  1.457440  0.128561
  N     4.378369 -2.075149  3.855028
  N     4.775136  1.906050  3.981434
  S     3.820946 -2.790962  2.461826
  S     3.975043  1.491624  2.532118
  S     6.905964 -1.844525 -0.246769
  S     6.979516  1.900749 -0.251290
  S     5.959369 -1.530186  3.783097
  S     6.394627  2.344800  3.826567
