16  
    
  C     9.818185 -0.226928  2.539080
  C     9.755777  3.662609  2.496238
  C     8.557300 -0.638797  2.032449
  C     8.556310  3.065564  1.959725
  N    10.692383  0.173144  1.591509
  N    10.733557  3.986375  1.674942
  N     8.416291 -0.640670  0.693342
  N     8.623503  3.064231  0.632146
  N     8.273382 -0.657416  4.548314
  N     8.280098  2.987947  4.490913
  S     7.308253 -0.947674  3.242991
  S     7.316656  2.649214  3.166393
  S     9.896654 -0.053296  0.123654
  S    10.100526  3.683176  0.150275
  S     9.820853 -0.050547  4.252474
  S     9.695416  3.871439  4.232105
