16  
    
  C     9.130558 -0.548146  2.520178
  C     9.519240  3.589227  2.803049
  C     7.928367 -1.080646  1.897830
  C     8.282435  3.133806  2.141382
  N    10.130639 -0.332627  1.692123
  N    10.527601  3.576726  1.976888
  N     7.985954 -1.089979  0.574877
  N     8.466950  2.665252  0.902237
  N     7.327394 -0.633584  4.389128
  N     7.751516  3.946521  4.599737
  S     6.603938 -1.157090  2.962111
  S     6.992385  3.270716  3.268327
  S     9.516419 -0.650157  0.194267
  S    10.025486  2.992964  0.499214
  S     8.988401 -0.407655  4.286852
  S     9.445610  3.961439  4.533394
