16  
    
  C     7.979940 -0.739245  2.393045
  C     8.341502  3.012852  2.319482
  C     6.825031 -1.209030  1.688166
  C     7.055470  2.634518  1.871754
  N     9.012341 -0.416270  1.606105
  N     9.316062  2.979548  1.385345
  N     7.014946 -1.402590  0.390893
  N     7.056774  2.315129  0.573222
  N     6.066924 -1.084447  4.095922
  N     6.772492  2.788626  4.401462
  S     5.518594 -1.799819  2.676085
  S     5.761973  2.698697  3.029092
  S     8.523454 -0.845333  0.083602
  S     8.530062  2.556569 -0.022954
  S     7.661714 -0.529522  4.048240
  S     8.378909  3.208916  4.047343
