16  
    
  C    11.673342  1.130831  2.861606
  C    11.797846  4.909776  3.169546
  C    10.416581  0.579253  2.324151
  C    10.641348  4.304540  2.518416
  N    12.546937  1.479893  1.917161
  N    12.788854  5.149021  2.331578
  N    10.511812  0.303123  1.002972
  N    10.764580  4.222350  1.187644
  N    10.099417  0.857250  4.867058
  N    10.010358  4.691142  4.997227
  S     9.302162  0.257610  3.549227
  S     9.291035  4.086427  3.608295
  S    11.890224  1.023830  0.453382
  S    12.270597  4.706991  0.792164
  S    11.692647  1.250121  4.612736
  S    11.528149  5.359764  4.815552
