16  
    
  C    10.957226  0.601136  3.303864
  C    11.095300  4.372143  3.309773
  C     9.833254  0.167088  2.552864
  C     9.895759  3.863122  2.703552
  N    11.998544  0.966744  2.555590
  N    12.086087  4.519366  2.426200
  N    10.012619  0.173242  1.232480
  N     9.909774  3.716468  1.388461
  N     9.107982  0.160032  5.002958
  N     9.564461  3.876918  5.257189
  S     8.490028 -0.327163  3.529893
  S     8.671052  3.500050  3.913153
  S    11.604783  0.626531  0.975248
  S    11.441033  4.194406  0.930807
  S    10.694313  0.581068  4.979582
  S    11.162702  4.274670  5.031729
