16  
    
  C     6.152969 -1.801257  1.605669
  C     6.339671  1.863399  1.879495
  C     5.008602 -2.482812  1.029919
  C     5.072251  1.739538  1.162301
  N     7.168720 -1.654242  0.787047
  N     7.425919  1.932610  1.122210
  N     5.150963 -2.693501 -0.257651
  N     5.169923  1.713315 -0.161367
  N     4.313826 -1.726462  3.476376
  N     4.495663  1.991906  3.668225
  S     3.657136 -2.452443  2.125068
  S     3.744782  1.746076  2.188504
  S     6.654060 -2.181888 -0.667246
  S     6.853300  1.866432 -0.498511
  S     5.994219 -1.447332  3.292120
  S     6.156004  1.951196  3.620814
