16  
    
  C     4.544080 -2.098517  1.536639
  C     5.125025  1.412073  1.925830
  C     3.536311 -2.888179  0.872404
  C     3.805412  1.250969  1.392050
  N     5.649617 -1.794526  0.828633
  N     6.081914  1.372795  0.977770
  N     3.820264 -3.098639 -0.429878
  N     3.692666  1.166391  0.086042
  N     2.901073 -2.888119  3.365031
  N     3.450928  1.740121  3.852350
  S     2.255045 -3.464023  1.901446
  S     2.545099  1.442563  2.556420
  S     5.303100 -2.378535 -0.740421
  S     5.230308  1.331187 -0.460310
  S     4.392691 -2.152470  3.276255
  S     5.063438  1.505112  3.671222
