16  
    
  C     9.996737 -0.184087  2.975839
  C    10.363045  3.427948  3.084895
  C     8.804192 -0.513856  2.202735
  C     9.059624  3.702066  2.490565
  N    11.103643  0.136713  2.228727
  N    11.375380  3.505567  2.223925
  N     9.058286 -0.505326  0.873876
  N     9.036921  3.842557  1.173111
  N     8.074498 -0.620412  4.633184
  N     8.449924  3.562032  4.972707
  S     7.413930 -0.862312  3.151059
  S     7.703918  3.957376  3.529708
  S    10.599656 -0.002896  0.683648
  S    10.642178  3.803506  0.707360
  S     9.679553 -0.235819  4.662487
  S    10.115673  3.295440  4.771055
