16  
    
  C     3.320471 -3.312124  1.302374
  C     3.572135  0.605942  1.364307
  C     2.084247 -3.371470  0.563975
  C     2.333455  0.301557  0.697135
  N     4.432854 -2.999270  0.581805
  N     4.606222  0.770476  0.543014
  N     2.265003 -3.126407 -0.750660
  N     2.445877  0.213393 -0.616431
  N     1.422718 -3.450331  3.062807
  N     1.753468  0.385946  3.132838
  S     0.689238 -3.508526  1.556792
  S     0.983688  0.043038  1.710247
  S     3.882520 -2.971690 -1.001838
  S     4.107470  0.431656 -0.967261
  S     3.077975 -3.335535  3.027704
  S     3.431840  0.661322  3.124983
