16  
    
  C     7.260396 -1.439528  2.260900
  C     7.265159  2.231273  2.093290
  C     6.015189 -1.875045  1.664639
  C     6.055717  1.649406  1.490564
  N     8.300107 -1.316361  1.387870
  N     8.269822  2.346644  1.278408
  N     6.144010 -2.236993  0.381838
  N     6.141747  1.286129  0.218564
  N     5.415653 -1.253663  4.003353
  N     5.601144  2.082150  4.009518
  S     4.730555 -2.094445  2.725175
  S     4.762197  1.610101  2.646839
  S     7.622761 -1.777623 -0.071863
  S     7.724397  1.811952 -0.263738
  S     7.037078 -0.920174  3.910401
  S     7.179114  2.449245  3.820454
