16  
    
  C    12.085709  1.383509  3.474851
  C    12.243115  5.095712  3.330578
  C    10.889271  0.751563  2.771850
  C    11.028540  4.616600  2.697205
  N    13.175813  1.610048  2.737412
  N    13.281859  5.060394  2.578000
  N    11.214738  0.462704  1.547547
  N    11.151080  4.418274  1.386760
  N    10.157384  1.079369  5.171495
  N    10.367780  5.399439  5.103646
  S     9.445796  0.601997  3.762852
  S     9.672689  4.746390  3.718859
  S    12.721102  1.046711  1.171587
  S    12.815460  4.596243  1.052633
  S    11.691636  1.689583  5.159759
  S    12.015051  5.750111  4.966155
