16  
    
  C     7.271582 -1.719795  2.291550
  C     7.473000  2.249772  2.208911
  C     6.037926 -2.035483  1.577905
  C     6.301070  1.698305  1.610881
  N     8.313439 -1.569780  1.505120
  N     8.494763  2.363908  1.380780
  N     6.173776 -2.305092  0.301264
  N     6.456100  1.355766  0.322951
  N     5.398926 -1.617713  4.022183
  N     5.738968  2.111883  4.101693
  S     4.704865 -2.268687  2.695179
  S     4.979372  1.719850  2.728203
  S     7.771842 -1.948874 -0.003744
  S     7.937171  1.842431 -0.144842
  S     7.078035 -1.426243  3.922074
  S     7.314580  2.662145  3.901171
