16  
    
  C    12.706394  1.606344  3.764711
  C    12.270139  4.918010  3.460583
  C    11.472153  1.333429  3.077467
  C    11.116649  4.460485  2.673666
  N    13.740501  1.535335  2.933875
  N    13.334175  5.239173  2.683809
  N    11.546625  1.196115  1.752201
  N    11.380966  4.297175  1.384389
  N    10.873337  1.640685  5.579089
  N    10.435114  4.779865  5.226559
  S    10.099585  1.343770  4.155275
  S     9.767239  4.217355  3.741214
  S    13.147745  1.368134  1.448699
  S    12.995095  4.792722  1.174541
  S    12.507472  1.814864  5.404105
  S    12.103803  5.104051  5.149040
