16  
    
  C    10.164062  0.623651  2.703601
  C    10.739645  4.295042  2.774326
  C     8.946340  0.087952  2.114560
  C     9.461359  3.834051  2.241664
  N    11.197080  0.734126  1.865532
  N    11.786631  4.270608  1.956393
  N     9.036787 -0.153927  0.820297
  N     9.541105  3.710736  0.921492
  N     8.370441  0.333957  4.585842
  N     8.959931  4.156865  4.743115
  S     7.730058 -0.444968  3.234464
  S     8.167987  3.646393  3.394185
  S    10.641529  0.155556  0.372543
  S    11.074920  3.959318  0.421406
  S     9.969062  0.808315  4.410578
  S    10.543935  4.631775  4.460062
