16  
    
  C     7.046758 -1.811714  1.637855
  C     6.753463  2.179987  1.915208
  C     5.815004 -2.241873  1.073297
  C     5.596374  1.507284  1.371821
  N     8.018941 -1.591761  0.740992
  N     7.678537  2.506459  1.024025
  N     5.788539 -2.339662 -0.263891
  N     5.620803  1.459888  0.051885
  N     5.338415 -1.869951  3.515232
  N     5.091857  1.694775  3.868942
  S     4.509326 -2.411359  2.187583
  S     4.369889  1.076421  2.516002
  S     7.351029 -1.932662 -0.735354
  S     7.109502  2.075338 -0.420203
  S     6.963123 -1.637600  3.333270
  S     6.668564  2.270782  3.667682
