16  
    
  C     4.729274 -1.967149  1.755354
  C     4.316739  1.337957  1.377742
  C     3.477621 -2.379946  1.159310
  C     3.137920  0.861303  0.679446
  N     5.754432 -1.903365  0.915384
  N     5.358168  1.517023  0.550228
  N     3.557746 -2.610749 -0.143462
  N     3.253163  0.815315 -0.673521
  N     3.017962 -1.863447  3.625956
  N     2.518858  0.850890  3.202993
  S     2.161810 -2.254401  2.254054
  S     1.708945  0.741464  1.730006
  S     5.126696 -2.267949 -0.606480
  S     4.776991  1.241160 -1.025873
  S     4.697140 -1.818613  3.476501
  S     4.104978  1.336293  3.154264
