16  
    
  C    11.324454  1.113784  3.214381
  C    11.386670  4.903562  2.806793
  C    10.070614  0.736768  2.632727
  C    10.233495  4.223989  2.248240
  N    12.275010  1.350077  2.347291
  N    12.446042  5.120734  2.040476
  N    10.101368  0.556669  1.292777
  N    10.395430  3.991914  0.941892
  N     9.772841  0.629447  5.336070
  N     9.751043  4.498268  4.736858
  S     8.917586  0.242812  3.966953
  S     8.966262  3.939949  3.367218
  S    11.693175  0.909578  0.858213
  S    11.889155  4.602917  0.531394
  S    11.249244  1.342305  4.965126
  S    11.309129  5.041221  4.555778
