16  
    
  C    11.287965  1.069023  3.277539
  C    11.463500  4.801771  2.837160
  C    10.054203  0.613480  2.717588
  C    10.272913  4.308628  2.243656
  N    12.270783  1.289714  2.386292
  N    12.426389  5.038007  1.946855
  N    10.044988  0.529101  1.387659
  N    10.374440  4.031837  0.922584
  N     9.756391  0.632968  5.259824
  N     9.825755  4.404942  4.735566
  S     8.868852  0.365658  3.895458
  S     8.957019  3.959980  3.357048
  S    11.610799  0.876690  0.920068
  S    11.883265  4.563754  0.512865
  S    11.229924  1.302156  5.027916
  S    11.368802  5.032700  4.482004
