16  
    
  C     9.950021 -0.256283  2.958404
  C    10.160801  3.539709  2.996408
  C     8.776159 -0.576345  2.185076
  C     8.878107  3.706022  2.328403
  N    10.981624  0.146143  2.265329
  N    11.167925  3.502080  2.143646
  N     9.014505 -0.609489  0.895749
  N     8.936612  3.890192  1.000060
  N     8.041313 -0.618389  4.681588
  N     8.541879  3.506213  4.958828
  S     7.416456 -0.985776  3.200812
  S     7.622204  3.759485  3.601840
  S    10.575816 -0.092444  0.703634
  S    10.560625  3.695240  0.604580
  S     9.655646 -0.179083  4.690101
  S    10.220773  3.246263  4.668832
