16  
    
  C     8.112928 -0.728927  2.429360
  C     8.243910  3.008938  2.316194
  C     6.945851 -1.284048  1.759689
  C     7.041754  2.466360  1.783665
  N     9.124736 -0.427810  1.641873
  N     9.254067  3.090010  1.477329
  N     7.162167 -1.610769  0.508535
  N     7.134156  2.263591  0.489085
  N     6.203894 -1.141896  4.303816
  N     6.544197  2.886260  4.257235
  S     5.537806 -1.526092  2.849313
  S     5.717755  2.347548  2.920501
  S     8.692461 -1.042295  0.132250
  S     8.648679  2.637986 -0.030556
  S     7.736681 -0.497193  4.129085
  S     8.187781  3.318612  3.995593
