16  
    
  C     4.719482 -2.029387  1.659297
  C     4.390077  1.414209  1.392116
  C     3.401349 -2.172971  1.092611
  C     3.158124  1.044788  0.755951
  N     5.736920 -2.048721  0.792594
  N     5.411557  1.680071  0.569744
  N     3.425354 -2.415755 -0.218289
  N     3.289027  0.798851 -0.552308
  N     3.028769 -1.814519  3.604592
  N     2.672929  0.725305  3.231373
  S     2.125489 -2.172472  2.292647
  S     1.855428  0.697018  1.785672
  S     5.032756 -2.292983 -0.691926
  S     4.852367  1.320348 -0.955845
  S     4.684299 -1.791432  3.393942
  S     4.197331  1.464510  3.163815
