16  
    
  C    12.445398  1.678775  3.388668
  C    12.281984  5.311081  3.552118
  C    11.291442  1.114464  2.752453
  C    11.092317  4.740952  2.922356
  N    13.482282  1.777924  2.539450
  N    13.249005  5.674667  2.732898
  N    11.322631  0.918143  1.429975
  N    11.286264  4.556043  1.558906
  N    10.806725  1.184674  5.303298
  N    10.619831  4.993335  5.495743
  S     9.977752  0.841411  3.906976
  S     9.844203  4.478763  4.087226
  S    12.893783  1.304686  1.009450
  S    12.791243  5.154771  1.207998
  S    12.339723  1.853668  5.043196
  S    12.217487  5.510328  5.256469
