16  
    
  C     9.070814 -0.331408  2.490634
  C     9.564814  3.535829  2.850905
  C     7.854736 -0.840152  1.935013
  C     8.308444  3.115117  2.293378
  N    10.110962 -0.188815  1.623543
  N    10.580909  3.645982  1.974506
  N     7.905085 -0.990752  0.605871
  N     8.454275  2.811131  1.028283
  N     7.387364 -0.782376  4.467982
  N     7.650222  3.588197  4.652244
  S     6.564404 -1.165641  3.089538
  S     6.848965  3.201573  3.245734
  S     9.432192 -0.577650  0.155524
  S     9.938003  3.089822  0.482248
  S     8.975435 -0.424578  4.252955
  S     9.292075  3.946560  4.510656
