16  
    
  C     7.174873 -1.323871  2.292684
  C     7.815961  2.818193  2.340912
  C     6.123809 -1.924660  1.532736
  C     6.595091  2.383614  1.677422
  N     8.195377 -0.796225  1.580942
  N     8.858450  3.042008  1.566069
  N     6.448852 -2.031899  0.228463
  N     6.669777  2.268090  0.355475
  N     5.350889 -2.090452  3.966561
  N     5.978495  2.408282  4.183488
  S     4.787787 -2.564403  2.446702
  S     5.236723  2.018690  2.705732
  S     7.913331 -1.264271  0.019186
  S     8.313902  2.701822  0.010254
  S     6.856443 -1.350494  3.987620
  S     7.543996  2.955814  4.027137
