16  
    
  C     9.806502 -0.198025  2.886272
  C     9.672479  3.661548  2.758579
  C     8.614688 -0.663987  2.172008
  C     8.447837  3.398299  2.068402
  N    10.816344  0.033092  2.089008
  N    10.700687  3.911472  1.961987
  N     8.735655 -0.849942  0.877373
  N     8.508712  3.313727  0.763919
  N     7.902706 -0.485489  4.657025
  N     7.872649  3.338488  4.595587
  S     7.224193 -0.783982  3.160562
  S     7.035724  3.287251  3.128817
  S    10.290560 -0.389817  0.549150
  S    10.087314  3.780114  0.348526
  S     9.431365  0.078152  4.566843
  S     9.543622  3.667721  4.478053
