16  
    
  C     5.738531 -2.096526  2.120352
  C     5.931661  1.476084  1.968194
  C     4.592440 -2.700073  1.480351
  C     4.761095  0.976362  1.260700
  N     6.718033 -1.884527  1.233196
  N     6.965646  1.800853  1.208586
  N     4.674620 -2.853453  0.140395
  N     4.835576  1.100043 -0.058160
  N     3.886658 -2.201471  3.902860
  N     4.150734  0.918778  3.772730
  S     3.244674 -2.906025  2.570558
  S     3.427670  0.532077  2.306788
  S     6.224662 -2.485716 -0.217954
  S     6.425505  1.576483 -0.403190
  S     5.505383 -1.893950  3.807554
  S     5.631385  1.590967  3.658769
