16  
    
  C     4.807637 -2.463803  1.581978
  C     4.994921  1.481395  1.977682
  C     3.547160 -2.872842  0.959361
  C     3.793110  0.998707  1.316113
  N     5.880352 -2.523009  0.799958
  N     5.995098  1.786901  1.143579
  N     3.678338 -3.060562 -0.334974
  N     3.865819  0.974774 -0.002412
  N     2.996728 -2.329695  3.444648
  N     3.277851  0.983477  3.710469
  S     2.200570 -2.846920  2.098603
  S     2.455730  0.731412  2.320872
  S     5.293588 -2.959785 -0.677507
  S     5.393928  1.501801 -0.405814
  S     4.625543 -2.192152  3.301064
  S     4.901397  1.483251  3.706823
