16  
    
  C    10.031569 -0.114091  2.713355
  C    10.125264  3.831351  2.713786
  C     8.732551 -0.459360  2.098346
  C     9.078736  2.920233  2.327139
  N    11.052704  0.061605  1.904920
  N    10.956445  4.197019  1.722580
  N     8.859796 -0.620405  0.806945
  N     9.118715  2.575280  1.051767
  N     8.284043 -0.324736  4.649605
  N     8.442045  3.421191  4.784881
  S     7.456383 -0.746913  3.263125
  S     7.811934  2.593822  3.459686
  S    10.451081 -0.243165  0.361126
  S    10.410491  3.368596  0.407177
  S     9.928601 -0.031084  4.422646
  S     9.782973  4.348320  4.364862
