16  
    
  C     9.984689 -0.073857  2.696333
  C     9.815810  3.916650  2.794861
  C     8.849418 -0.627751  2.014573
  C     8.808571  3.058777  2.214612
  N    11.028631  0.242566  1.979199
  N    10.828522  4.348391  2.029535
  N     9.012780 -0.750632  0.725573
  N     9.094688  2.771254  0.954633
  N     8.108287 -0.362443  4.479292
  N     7.906532  3.702285  4.545653
  S     7.432706 -0.956882  3.077191
  S     7.292174  2.983288  3.189437
  S    10.575710 -0.216130  0.409176
  S    10.536269  3.631458  0.567523
  S     9.694026  0.083004  4.386183
  S     9.416504  4.354954  4.415218
