16  
    
  C     8.730717 -0.422651  2.530895
  C     8.600589  3.036206  2.566895
  C     7.544094 -0.779731  1.818526
  C     7.406175  2.723090  1.879000
  N     9.759386 -0.229530  1.693762
  N     9.677120  3.025337  1.786652
  N     7.664304 -0.975267  0.486427
  N     7.465080  2.607995  0.529041
  N     6.882525 -0.541142  4.319157
  N     6.760398  2.988831  4.390141
  S     6.170784 -1.010576  2.812106
  S     6.084845  2.484044  2.953918
  S     9.251700 -0.550159  0.134211
  S     9.104927  2.902805  0.247121
  S     8.490938 -0.060891  4.235235
  S     8.391968  3.241979  4.382615
