16  
    
  C     8.726415 -0.462288  2.423982
  C     8.631835  3.092440  2.592037
  C     7.502178 -0.853859  1.721026
  C     7.367651  2.684833  1.935724
  N     9.802260 -0.415742  1.709624
  N     9.653909  3.295917  1.777923
  N     7.715359 -1.124314  0.460781
  N     7.459824  2.627139  0.616327
  N     6.878497 -0.666372  4.255587
  N     6.810100  2.896262  4.482258
  S     6.071683 -0.956967  2.755459
  S     6.031690  2.505974  3.036943
  S     9.335969 -0.861448  0.185010
  S     9.059628  2.947809  0.278971
  S     8.468762 -0.195370  4.073919
  S     8.439651  3.207791  4.276880
