16  
    
  C     5.569431 -2.113852  1.874101
  C     5.258956  1.616760  1.747050
  C     4.366119 -2.626584  1.248568
  C     4.110817  0.993083  1.115072
  N     6.592727 -1.826766  1.059632
  N     6.174541  2.041972  0.861972
  N     4.534685 -2.910188 -0.039612
  N     4.210784  0.929558 -0.208854
  N     3.747493 -2.435225  3.808959
  N     3.587019  0.865988  3.579351
  S     3.038129 -2.795265  2.331841
  S     2.932843  0.249878  2.146122
  S     5.982992 -2.223005 -0.469975
  S     5.582360  1.652938 -0.621876
  S     5.338743 -1.844259  3.579396
  S     5.084061  1.527806  3.474169
