16  
    
  C     5.461286 -2.182807  1.898267
  C     5.295016  1.628501  1.677605
  C     4.285301 -2.594898  1.165001
  C     4.293340  0.903006  0.923020
  N     6.473993 -1.943554  1.111067
  N     6.291871  2.147364  0.931792
  N     4.420548 -2.690719 -0.132213
  N     4.481408  0.974929 -0.387163
  N     3.612529 -2.686716  3.678633
  N     3.419839  0.906710  3.348711
  S     2.949298 -3.035045  2.212332
  S     2.842766  0.484259  1.796157
  S     5.984296 -2.273385 -0.458931
  S     5.869834  1.757717 -0.633345
  S     5.199171 -2.149330  3.622891
  S     4.949110  1.597760  3.349374
