16  
    
  C    11.339265  0.458286  3.014307
  C    11.111637  4.434411  3.473567
  C    10.219645 -0.165703  2.320489
  C     9.796767  4.243157  2.860449
  N    12.465447  0.568184  2.337244
  N    12.080717  4.461238  2.555249
  N    10.456160 -0.419315  1.048059
  N     9.815901  3.974221  1.531984
  N     9.314177  0.380276  4.762839
  N     9.431304  4.386494  5.424664
  S     8.785830 -0.346988  3.373808
  S     8.515715  4.325975  4.036525
  S    12.079139  0.142047  0.767156
  S    11.446137  4.012982  1.142097
  S    10.880139  0.908450  4.608191
  S    11.067061  4.674555  5.189718
