16  
    
  C    11.691527  1.099166  2.840993
  C    11.745475  4.830437  3.151546
  C    10.543075  0.494865  2.301579
  C    10.589663  4.325903  2.488836
  N    12.562212  1.456273  1.922286
  N    12.798669  5.183879  2.366620
  N    10.515878  0.286610  0.996590
  N    10.722163  4.218805  1.188258
  N    10.115829  0.878944  4.853989
  N     9.948624  4.674758  4.966853
  S     9.284966  0.237194  3.589147
  S     9.292305  4.072727  3.543583
  S    11.874328  1.072901  0.434782
  S    12.234348  4.762994  0.806465
  S    11.666691  1.293024  4.579498
  S    11.524176  5.324382  4.849786
