16  
    
  C    11.337008  0.925106  3.300498
  C    11.545985  4.717778  2.769269
  C    10.040838  0.580782  2.790943
  C    10.355756  4.258407  2.148272
  N    12.279962  1.207121  2.402621
  N    12.500396  4.854007  1.867913
  N    10.067121  0.303000  1.504712
  N    10.317260  4.161360  0.813420
  N     9.579522  0.849822  5.311439
  N     9.883646  4.377586  4.760856
  S     8.694136  0.495718  3.888346
  S     9.061859  4.005900  3.388111
  S    11.539198  0.875125  0.968098
  S    11.915320  4.524865  0.367213
  S    11.236456  1.186602  5.073611
  S    11.412189  4.952896  4.534481
