16  
    
  C    12.744958  1.697763  3.634543
  C    12.898990  5.588579  3.768658
  C    11.570276  1.361365  2.982789
  C    11.708760  4.949143  3.210392
  N    13.836833  1.737974  2.872757
  N    13.818621  5.666146  2.818813
  N    11.738801  0.958192  1.726605
  N    11.756875  4.618114  1.962607
  N    10.862183  1.693049  5.473668
  N    11.147394  5.471193  5.734207
  S    10.214413  1.156826  4.027106
  S    10.424227  4.768517  4.327689
  S    13.314855  1.136820  1.374777
  S    13.264842  5.008839  1.427920
  S    12.526451  1.941089  5.414996
  S    12.768057  5.957564  5.444895
