16  
    
  C    11.934890  1.310174  3.359723
  C    11.886562  4.707589  3.565377
  C    10.760900  0.731732  2.646218
  C    10.662636  4.372207  2.829181
  N    12.992156  1.297819  2.557876
  N    12.960630  4.998267  2.765916
  N    10.941781  0.448102  1.354479
  N    10.857680  4.247648  1.543420
  N    10.039619  1.248349  5.024784
  N     9.908222  4.812522  5.253182
  S     9.456153  0.429687  3.679229
  S     9.213511  4.342316  3.799115
  S    12.535476  0.854227  1.019332
  S    12.488701  4.668919  1.221983
  S    11.684907  1.589531  5.108415
  S    11.547634  5.080353  5.190017
