16  
    
  C     5.478148 -2.336990  1.760957
  C     5.251560  1.638253  1.515031
  C     4.333687 -2.686176  0.995740
  C     4.143942  1.156027  0.772544
  N     6.589731 -2.073789  1.024283
  N     6.364617  1.888269  0.864352
  N     4.515181 -2.821378 -0.342023
  N     4.447384  0.932191 -0.499610
  N     3.557124 -2.633976  3.525027
  N     3.247501  1.287379  3.164490
  S     2.891791 -2.949069  1.984131
  S     2.721613  0.674793  1.703525
  S     6.093899 -2.311973 -0.563421
  S     6.073071  1.372317 -0.698040
  S     5.171300 -2.184355  3.437490
  S     4.812817  1.860899  3.156020
