16  
    
  C     7.096672 -1.438796  2.118824
  C     7.051473  2.081060  2.072183
  C     5.912780 -1.831929  1.390488
  C     5.848803  1.761408  1.325477
  N     8.205703 -1.330203  1.379357
  N     8.135870  2.252630  1.351138
  N     6.110673 -2.022850  0.082839
  N     6.068378  1.554355  0.032818
  N     5.132097 -1.652570  3.827470
  N     5.179208  1.907711  3.801344
  S     4.499317 -2.129044  2.363350
  S     4.467945  1.572852  2.317448
  S     7.690965 -1.664303 -0.214516
  S     7.676967  2.015094 -0.263032
  S     6.837485 -1.518503  3.876115
  S     6.816560  2.363855  3.761999
