16  
    
  C     9.732871 -0.114500  2.851927
  C     9.766405  3.512826  2.728011
  C     8.560251 -0.656986  2.225808
  C     8.538046  3.191814  2.094426
  N    10.762882  0.124263  2.049431
  N    10.719120  3.915308  1.863044
  N     8.739644 -0.825456  0.936339
  N     8.550072  3.267970  0.776751
  N     7.888030 -0.483786  4.661277
  N     7.919074  3.232701  4.615655
  S     7.127504 -0.815090  3.220608
  S     7.085558  3.315098  3.182422
  S    10.252829 -0.343672  0.534758
  S    10.030600  3.806888  0.384655
  S     9.501366  0.090059  4.606454
  S     9.534129  3.553596  4.472200
