16  
    
  C     5.421554 -2.178970  1.522868
  C     5.038363  1.843896  1.616176
  C     4.280687 -2.776862  0.836514
  C     4.028602  0.939030  1.164752
  N     6.451156 -1.995528  0.772877
  N     6.151178  1.846219  0.877101
  N     4.483348 -3.146774 -0.406313
  N     4.340657  0.259121  0.070117
  N     3.487846 -2.393425  3.282802
  N     3.046669  1.900427  3.354856
  S     2.850516 -2.967854  1.867712
  S     2.547471  0.848700  2.078100
  S     5.957934 -2.489781 -0.772938
  S     5.882254  0.758272 -0.374335
  S     5.059244 -1.793167  3.179206
  S     4.619137  2.318371  3.215384
