16  
    
  C     6.031074 -2.256478  1.725435
  C     6.079372  1.638210  1.836255
  C     4.755411 -2.473590  1.105681
  C     4.791829  1.781225  1.223082
  N     7.076626 -2.265480  0.945414
  N     7.094995  1.429475  0.999519
  N     4.884023 -2.809170 -0.155217
  N     4.737275  1.649684 -0.097689
  N     4.265394 -2.115304  3.584582
  N     4.457750  2.094941  3.776459
  S     3.463539 -2.463299  2.237789
  S     3.524685  1.939929  2.397034
  S     6.467585 -2.494312 -0.569801
  S     6.399033  1.489237 -0.547516
  S     5.889254 -2.019904  3.489763
  S     6.081285  1.892386  3.560490
