16  
    
  C     6.072038 -2.137083  1.719531
  C     6.128512  1.774847  1.802637
  C     4.818198 -2.497632  1.095658
  C     4.846063  1.807436  1.216625
  N     7.124966 -2.177177  0.939219
  N     7.163058  1.587275  0.962882
  N     4.908707 -2.652011 -0.212133
  N     4.905897  1.735110 -0.100247
  N     4.274203 -2.122854  3.666174
  N     4.399674  1.913945  3.742443
  S     3.442821 -2.498600  2.198946
  S     3.500083  1.959955  2.322287
  S     6.514983 -2.538316 -0.575877
  S     6.473424  1.506348 -0.538857
  S     5.944236 -1.888521  3.451580
  S     6.076307  1.871152  3.557338
