16  
    
  C    12.695633  1.553849  3.425341
  C    12.643880  5.336331  3.221188
  C    11.439416  1.192407  2.771828
  C    11.453239  4.785466  2.729562
  N    13.637317  1.942658  2.536204
  N    13.555348  5.626590  2.300028
  N    11.528247  1.186007  1.432458
  N    11.456227  4.638754  1.370881
  N    10.970021  1.129003  5.331616
  N    11.139421  4.974602  5.297518
  S    10.156365  0.897850  3.894297
  S    10.294711  4.445549  3.941678
  S    13.002619  1.735933  1.019971
  S    12.956637  5.218245  0.862095
  S    12.556350  1.647918  5.071313
  S    12.697314  5.529049  4.993544
