16  
    
  C    11.967554  1.280694  3.325405
  C    11.766674  4.942392  3.655653
  C    10.849006  0.779588  2.606456
  C    10.639516  4.400821  3.007228
  N    12.991555  1.576319  2.538096
  N    12.907066  5.100858  2.868630
  N    11.063784  0.473377  1.317796
  N    10.823931  4.308096  1.703553
  N    10.301021  0.766353  5.141206
  N     9.930646  4.427578  5.491506
  S     9.514100  0.493400  3.712821
  S     9.267360  4.006156  4.025182
  S    12.534162  1.167425  0.991642
  S    12.352614  4.588397  1.348629
  S    11.826474  1.474459  5.089348
  S    11.478179  5.034894  5.393123
