16  
    
  C    11.000665  0.517280  3.222742
  C    11.052083  4.294836  3.380671
  C     9.835205  0.019082  2.526367
  C     9.836696  3.730155  2.803486
  N    11.968666  0.987036  2.427141
  N    12.053292  4.573212  2.500030
  N    10.005385 -0.056593  1.209125
  N     9.873211  3.759829  1.487296
  N     9.141851  0.146147  4.941064
  N     9.321287  4.015584  5.303239
  S     8.419777 -0.153839  3.464266
  S     8.573510  3.502183  3.917836
  S    11.448056  0.706028  0.849735
  S    11.405827  4.222601  1.021184
  S    10.721106  0.622019  4.902629
  S    10.875308  4.557728  5.117923
