16  
    
  C    11.233043  0.473210  3.023773
  C    11.139060  4.402690  3.319927
  C    10.092560 -0.121149  2.390669
  C     9.836694  4.211702  2.771919
  N    12.243024  0.735281  2.164658
  N    12.159693  4.289556  2.479012
  N    10.205443 -0.465389  1.094071
  N     9.874474  3.934008  1.469098
  N     9.429618  0.396085  4.805605
  N     9.481619  4.033346  5.286591
  S     8.742660 -0.312833  3.430019
  S     8.566370  4.295099  3.940142
  S    11.769416  0.060768  0.725039
  S    11.494574  4.057615  1.016115
  S    10.990015  1.086895  4.636472
  S    11.066607  4.562728  5.126389
