16  
    
  C     8.691218 -0.412297  2.425256
  C     8.616842  3.000654  2.584921
  C     7.517990 -0.886203  1.755484
  C     7.384980  2.736287  1.977913
  N     9.832541 -0.364910  1.687523
  N     9.679194  3.187672  1.813755
  N     7.697481 -1.027265  0.413917
  N     7.515464  2.665399  0.663671
  N     6.841456 -0.575694  4.255010
  N     6.797378  2.950826  4.435375
  S     6.139219 -0.964258  2.866044
  S     5.995994  2.487053  3.027219
  S     9.323821 -0.741528  0.145306
  S     9.090231  2.926180  0.213044
  S     8.414950 -0.143525  4.141153
  S     8.434503  3.223635  4.277507
