16  
    
  C    11.328571  0.915705  3.288984
  C    11.641563  4.735688  2.918173
  C    10.027892  0.634020  2.712837
  C    10.437384  4.161483  2.349114
  N    12.303616  1.014119  2.377342
  N    12.648149  4.851724  2.045458
  N    10.011096  0.444271  1.370880
  N    10.548697  3.982974  1.009563
  N     9.627987  0.730118  5.337299
  N     9.821411  4.431562  4.803215
  S     8.839148  0.418416  3.894048
  S     9.079641  3.939445  3.403536
  S    11.620570  0.649877  0.913960
  S    12.055488  4.511549  0.568025
  S    11.163770  1.256042  5.057325
  S    11.423884  4.837266  4.690402
