16  
    
  C     7.057338 -1.601266  2.294748
  C     7.079843  2.323530  2.082204
  C     5.826785 -1.791748  1.565311
  C     5.887416  1.823807  1.397816
  N     8.110283 -1.389333  1.484109
  N     8.163453  2.370181  1.291320
  N     5.975637 -1.864133  0.235019
  N     6.135243  1.523625  0.131437
  N     5.250467 -1.727791  4.029130
  N     5.201602  2.013592  3.817417
  S     4.434445 -2.113356  2.575143
  S     4.486144  1.650991  2.382146
  S     7.569493 -1.429416 -0.029361
  S     7.677874  1.909694 -0.166790
  S     6.868553 -1.410186  3.963658
  S     6.765444  2.519326  3.842495
