16  
    
  C     9.745512 -0.248440  2.858688
  C     9.583083  3.841609  2.744962
  C     8.589260 -0.615067  2.139516
  C     8.361586  3.481676  2.027186
  N    10.825013 -0.031241  2.076554
  N    10.645003  3.880353  1.957085
  N     8.811317 -0.864374  0.843108
  N     8.526108  3.433051  0.688821
  N     7.849073 -0.436858  4.638322
  N     7.884278  3.431976  4.550807
  S     7.256034 -0.816805  3.151201
  S     7.088250  3.245789  3.118687
  S    10.359564 -0.381980  0.552317
  S    10.114564  3.724231  0.405463
  S     9.460790  0.072489  4.555564
  S     9.516947  3.727603  4.489638
