16  
    
  C     7.253044 -1.099007  2.143533
  C     7.780572  2.804436  2.226433
  C     6.113848 -1.641076  1.441649
  C     6.520724  2.368708  1.652105
  N     8.311732 -0.848379  1.355490
  N     8.806629  2.953390  1.357871
  N     6.294715 -1.779539  0.130841
  N     6.551955  2.101812  0.340867
  N     5.463540 -1.800072  3.979208
  N     6.017957  2.690372  4.146745
  S     4.732350 -1.985664  2.498102
  S     5.247596  1.995218  2.760868
  S     7.858538 -1.271776 -0.210723
  S     8.159947  2.487344 -0.101352
  S     6.996423 -1.232027  3.862120
  S     7.610891  3.169933  3.872377
