16  
    
  C    12.688804  1.469795  3.521295
  C    12.873505  5.590529  3.731690
  C    11.545327  0.852633  2.950746
  C    11.778267  5.014885  3.047461
  N    13.710111  1.724018  2.665158
  N    13.936167  5.744537  2.939999
  N    11.662933  0.657811  1.664933
  N    11.957937  4.819421  1.715631
  N    10.786583  1.390734  5.354131
  N    10.967888  5.086675  5.431474
  S    10.144144  0.668971  3.982431
  S    10.402880  4.610906  3.955124
  S    13.102340  1.184084  1.168352
  S    13.497608  5.304813  1.385985
  S    12.336415  1.965432  5.157982
  S    12.525600  5.735929  5.469538
