16  
    
  C     8.411415 -0.944805  2.475257
  C     8.155327  2.936492  2.331078
  C     7.133955 -1.373095  2.003201
  C     7.028689  2.316070  1.715071
  N     9.397107 -0.892905  1.512583
  N     9.238324  3.083637  1.577801
  N     7.156572 -1.874163  0.736725
  N     7.188270  2.051726  0.428585
  N     6.741989 -0.775790  4.515434
  N     6.250566  2.638493  4.161831
  S     5.841180 -1.430654  3.239409
  S     5.611937  2.052936  2.653813
  S     8.682821 -1.603768  0.138371
  S     8.759032  2.467805  0.031091
  S     8.278018 -0.400629  4.146768
  S     7.842863  3.208099  4.017583
