16  
    
  C     4.549395 -2.636247  1.541708
  C     5.149252  1.451701  1.700229
  C     3.280733 -2.776711  0.868965
  C     3.830311  1.335556  1.135949
  N     5.628844 -2.615301  0.744900
  N     6.142807  1.573051  0.823115
  N     3.382595 -2.906746 -0.489098
  N     3.844077  1.302660 -0.180087
  N     2.726246 -2.794231  3.438544
  N     3.453584  1.118877  3.594056
  S     1.899523 -2.808819  1.979621
  S     2.607731  0.742202  2.193196
  S     5.007375 -2.706956 -0.799938
  S     5.447374  1.441253 -0.683402
  S     4.358876 -2.482619  3.246783
  S     5.105821  1.393032  3.387367
