16  
    
  C     9.167526 -0.669085  2.536991
  C     9.629423  3.565230  2.743163
  C     7.940320 -0.989221  1.876007
  C     8.292203  3.132100  2.209716
  N    10.203083 -0.419788  1.735786
  N    10.676972  3.488097  1.932922
  N     8.069200 -1.166885  0.559340
  N     8.429549  2.750352  0.947140
  N     7.292967 -0.562998  4.337143
  N     7.802559  3.944407  4.587625
  S     6.564877 -1.186770  2.985994
  S     6.896203  3.315983  3.319916
  S     9.644565 -0.703849  0.177068
  S    10.054703  2.940802  0.488660
  S     8.903133 -0.415296  4.211828
  S     9.444993  3.995811  4.407283
