16  
    
  C    12.541631  1.627150  3.330064
  C    12.878611  5.441256  3.647474
  C    11.308964  0.992162  2.776355
  C    11.775768  4.959346  2.814317
  N    13.490658  1.943722  2.454069
  N    13.948228  5.755383  2.997405
  N    11.444777  0.768468  1.502268
  N    12.077342  4.836324  1.521413
  N    10.882575  1.108524  5.326446
  N    10.828770  5.048227  5.291509
  S    10.132497  0.507318  3.955613
  S    10.307771  4.585273  3.692884
  S    12.988921  1.317664  1.019626
  S    13.602430  5.455239  1.383692
  S    12.391281  1.733912  5.044781
  S    12.441192  5.609927  5.335957
