16  
    
  C     8.718065 -0.493106  2.422081
  C     8.542912  3.213337  2.627449
  C     7.552232 -0.988375  1.690038
  C     7.361257  2.748658  1.958681
  N     9.830539 -0.534357  1.649243
  N     9.537785  3.441134  1.777956
  N     7.721381 -1.290199  0.381080
  N     7.505925  2.461871  0.671059
  N     6.859931 -0.816260  4.125441
  N     6.827009  2.790239  4.487562
  S     6.130900 -0.938893  2.654687
  S     6.047571  2.466185  3.019824
  S     9.342908 -1.046640  0.133054
  S     9.010747  3.007260  0.182029
  S     8.449276 -0.323361  4.159629
  S     8.448378  3.233561  4.388054
