16  
    
  C     7.088074 -1.414742  2.266933
  C     7.101053  2.221312  2.084711
  C     5.851869 -1.702916  1.645092
  C     5.907543  1.797781  1.421426
  N     8.131461 -1.184538  1.409211
  N     8.140849  2.363690  1.256660
  N     5.952923 -1.855602  0.309843
  N     6.046802  1.607249  0.122137
  N     5.303622 -1.832413  4.147028
  N     5.292983  1.988176  3.933688
  S     4.553468 -2.020395  2.691687
  S     4.517216  1.673177  2.536061
  S     7.549047 -1.584879 -0.070024
  S     7.631142  1.918053 -0.190932
  S     6.880184 -1.322244  4.024031
  S     6.817620  2.573755  3.769522
