16  
    
  C    11.619586  1.177460  2.895075
  C    11.775706  5.125540  3.094305
  C    10.374136  0.800705  2.393696
  C    10.681758  4.447778  2.542484
  N    12.626406  1.384155  2.060311
  N    12.803739  5.193706  2.247939
  N    10.439448  0.562637  1.077101
  N    10.830440  4.004946  1.299380
  N    10.105116  0.630192  4.941131
  N    10.242141  4.780149  5.077310
  S     9.170367  0.355730  3.620175
  S     9.453540  4.171606  3.714195
  S    11.988561  0.865086  0.593393
  S    12.330351  4.444724  0.843803
  S    11.621440  1.224389  4.635795
  S    11.703059  5.529789  4.787318
