16  
    
  C    11.651763  1.165179  2.831050
  C    11.624679  4.974233  3.172070
  C    10.469547  0.498981  2.342177
  C    10.488733  4.499044  2.412571
  N    12.581528  1.455388  1.929385
  N    12.632202  5.381685  2.389361
  N    10.447696  0.394823  1.049417
  N    10.638604  4.369172  1.081309
  N    10.193976  0.742206  4.856243
  N     9.721098  4.541399  4.941598
  S     9.397557  0.079116  3.571412
  S     9.098987  4.019743  3.472795
  S    11.869374  1.041186  0.499917
  S    12.202528  4.944363  0.782247
  S    11.566339  1.583227  4.555811
  S    11.323602  4.998010  4.865202
