16  
    
  C     4.228172 -2.272677  1.758016
  C     3.974620  1.201293  1.185208
  C     3.073374 -2.910975  1.233920
  C     2.977124  0.317060  0.719474
  N     5.255760 -2.142844  0.871946
  N     4.984974  1.461120  0.341937
  N     3.212580 -3.245137 -0.055142
  N     3.163803 -0.035860 -0.544525
  N     2.607872 -2.769425  3.765691
  N     2.328174  0.934535  3.104779
  S     1.789378 -3.219302  2.399507
  S     1.723006  0.035627  1.833404
  S     4.669846 -2.691310 -0.552330
  S     4.567405  0.743183 -1.082274
  S     4.053982 -1.971782  3.532204
  S     3.721209  1.675962  2.825625
