16  
    
  C     3.881808 -2.779274  1.425807
  C     4.118233  1.248393  1.509584
  C     2.748306 -3.419416  0.813467
  C     2.874298  0.772925  0.918198
  N     4.949717 -2.708221  0.692996
  N     5.129193  1.302397  0.647747
  N     2.948096 -3.851153 -0.398088
  N     2.932741  0.534305 -0.382755
  N     2.052214 -2.771119  3.211443
  N     2.331039  1.148465  3.436321
  S     1.394916 -3.504867  1.850069
  S     1.524737  0.576135  2.088138
  S     4.471749 -3.309074 -0.808414
  S     4.462539  0.885801 -0.846944
  S     3.707486 -2.431708  3.101374
  S     4.047600  1.429091  3.207750
