16  
    
  C     8.422522 -0.984190  2.393449
  C     8.195427  2.555202  2.042017
  C     7.225102 -1.110828  1.604219
  C     7.084244  2.037570  1.229673
  N     9.497388 -0.905807  1.658325
  N     9.270594  2.777656  1.309218
  N     7.440667 -1.309266  0.323137
  N     7.338527  1.902809 -0.071336
  N     6.522368 -1.164948  4.198495
  N     6.294642  2.260426  3.739368
  S     5.821674 -1.229409  2.685001
  S     5.672326  1.799273  2.240314
  S     9.080600 -1.114761  0.054744
  S     8.915362  2.341955 -0.244947
  S     8.131185 -0.823213  4.143213
  S     7.941675  2.572918  3.795975
