16  
    
  C    11.800180  1.105480  3.405883
  C    11.909110  5.050880  3.280206
  C    10.575598  0.651651  2.694562
  C    10.676760  4.519877  2.694033
  N    12.823555  1.200454  2.573879
  N    12.943909  5.067804  2.485875
  N    10.768852  0.206763  1.457721
  N    10.814267  4.173350  1.374462
  N     9.974891  0.958895  5.156883
  N    10.179180  4.935136  5.209935
  S     9.229155  0.592279  3.718494
  S     9.390677  4.417620  3.826721
  S    12.339019  0.657484  1.084241
  S    12.477565  4.475264  1.030395
  S    11.523587  1.540984  5.070921
  S    11.777250  5.427490  4.991328
