16  
    
  C    10.277115 -0.144192  2.849557
  C    10.343716  3.948535  3.100816
  C     9.047741 -0.425032  2.184760
  C     9.067399  3.752734  2.507277
  N    11.299393 -0.011821  2.009530
  N    11.363517  3.854804  2.270934
  N     9.070420 -0.416099  0.862062
  N     9.034540  3.601228  1.175311
  N     8.451314 -0.434331  4.708812
  N     8.578782  4.165818  4.987090
  S     7.677451 -0.542201  3.208609
  S     7.705289  3.953230  3.597202
  S    10.663622 -0.161320  0.448076
  S    10.713009  3.739580  0.750213
  S    10.087763 -0.058315  4.646669
  S    10.191155  4.149715  4.845937
