16  
    
  C     6.099822 -1.567026  2.361412
  C     6.643231  2.089067  2.205921
  C     5.129605 -2.405038  1.671231
  C     5.342718  1.765512  1.599398
  N     7.060328 -1.135842  1.586394
  N     7.638980  2.296202  1.335206
  N     5.393305 -2.627159  0.404703
  N     5.387698  1.587214  0.280696
  N     4.413058 -2.306885  4.220628
  N     4.925946  1.827662  4.100212
  S     3.768280 -2.838473  2.778615
  S     4.084640  1.434110  2.706751
  S     6.749665 -1.741632  0.052339
  S     6.987526  1.980383 -0.196488
  S     5.920206 -1.512283  4.087427
  S     6.518793  2.258301  3.927228
