16  
    
  C    11.446470  0.707241  3.060728
  C    11.075137  4.798804  3.467532
  C    10.364491  0.150045  2.309053
  C     9.880700  4.115404  3.018310
  N    12.531912  0.847522  2.351025
  N    12.127831  4.808165  2.667282
  N    10.589611 -0.127698  1.050833
  N    10.022661  3.705114  1.764777
  N     9.416608  0.492489  4.629035
  N     9.426116  4.472017  5.494153
  S     8.933645 -0.101160  3.182974
  S     8.595903  3.988982  4.124819
  S    12.136019  0.346749  0.778375
  S    11.570235  4.032553  1.271428
  S    10.987363  1.065171  4.668467
  S    10.948214  5.142674  5.217271
