16  
    
  C     7.304390 -1.021284  2.045916
  C     7.727360  2.817494  2.142691
  C     6.128216 -1.510759  1.368785
  C     6.493130  2.252955  1.581368
  N     8.325793 -0.921196  1.253069
  N     8.694817  2.932545  1.273024
  N     6.227207 -1.634073  0.071226
  N     6.484121  2.006845  0.269932
  N     5.681320 -1.597153  3.865457
  N     6.031760  2.787258  4.084126
  S     4.825739 -1.929558  2.423675
  S     5.262236  2.066743  2.794295
  S     7.825178 -1.334442 -0.269916
  S     8.117521  2.441503 -0.190834
  S     7.256679 -1.121039  3.782386
  S     7.567955  3.200952  3.901218
