16  
    
  C     8.380882 -0.872872  2.454513
  C     8.171109  2.550252  2.117309
  C     7.091884 -1.368348  1.942640
  C     7.027039  2.179747  1.321571
  N     9.414879 -0.953605  1.636294
  N     9.290770  2.661090  1.445873
  N     7.157631 -1.604978  0.646216
  N     7.362227  1.972496  0.051131
  N     6.740407 -0.606971  4.349138
  N     6.362332  2.117900  3.798789
  S     5.828170 -1.293694  3.082732
  S     5.598220  1.994830  2.339090
  S     8.738066 -1.450097  0.221906
  S     8.974450  2.137886 -0.136915
  S     8.364103 -0.449376  4.103650
  S     7.896374  2.707656  3.833409
