16  
    
  C     6.244536 -1.840159  2.002393
  C     6.514993  2.169740  2.067275
  C     5.113453 -2.325148  1.299767
  C     5.309941  1.648548  1.421976
  N     7.296053 -1.433798  1.258755
  N     7.512203  2.395021  1.251166
  N     5.336684 -2.437363 -0.035494
  N     5.397398  1.429184  0.125904
  N     4.472801 -2.127399  3.774878
  N     4.763487  1.858944  3.911478
  S     3.841983 -2.732385  2.390973
  S     4.001509  1.474688  2.490628
  S     6.907355 -1.918584 -0.284037
  S     7.016359  1.839396 -0.275650
  S     5.970194 -1.491467  3.689642
  S     6.342550  2.382946  3.806077
