16  
    
  C     7.289371 -1.757353  2.212473
  C     7.452169  2.370118  2.140081
  C     6.070917 -2.129713  1.543857
  C     6.197571  2.038637  1.567641
  N     8.339853 -1.430794  1.444915
  N     8.434897  2.506729  1.253916
  N     6.242322 -2.209407  0.214337
  N     6.279851  1.885219  0.241294
  N     5.561991 -2.044183  4.039952
  N     5.745658  2.251749  4.127763
  S     4.695557 -2.274751  2.589459
  S     4.940679  1.654924  2.766156
  S     7.820170 -1.768732 -0.095226
  S     7.790374  2.030418 -0.235791
  S     7.201687 -1.633920  3.933305
  S     7.373973  2.606761  3.842462
