16  
    
  C     6.246734 -1.822545  1.988424
  C     6.502818  2.156313  2.054787
  C     5.135727 -2.326555  1.273700
  C     5.301097  1.665002  1.421732
  N     7.300710 -1.441718  1.239100
  N     7.513239  2.412023  1.252825
  N     5.341739 -2.419905 -0.062684
  N     5.389936  1.419576  0.127902
  N     4.488681 -2.136317  3.772829
  N     4.757308  1.849878  3.896793
  S     3.837188 -2.723758  2.370224
  S     4.005571  1.469582  2.488033
  S     6.898411 -1.934219 -0.289049
  S     7.022120  1.829785 -0.277818
  S     5.977588 -1.484329  3.669224
  S     6.328349  2.390969  3.795757
