16  
    
  C    11.945954  1.306146  3.364573
  C    11.888877  4.705000  3.559266
  C    10.763611  0.737941  2.644898
  C    10.657106  4.367218  2.831258
  N    12.991497  1.308013  2.553207
  N    12.964265  4.997139  2.775625
  N    10.944792  0.446345  1.355593
  N    10.853519  4.247826  1.547645
  N    10.043525  1.247053  5.022561
  N     9.905006  4.808425  5.257166
  S     9.456709  0.430597  3.680642
  S     9.211553  4.337499  3.800301
  S    12.536761  0.858183  1.017227
  S    12.487963  4.672006  1.227107
  S    11.683905  1.586477  5.105179
  S    11.547646  5.079249  5.190615
