16  
    
  C     6.192823 -1.708690  1.617019
  C     6.421223  1.893247  1.890106
  C     5.032529 -2.315438  0.999846
  C     5.150032  1.780624  1.167689
  N     7.205194 -1.566563  0.784287
  N     7.457216  1.949516  1.046854
  N     5.173344 -2.783012 -0.245562
  N     5.300152  1.690743 -0.140417
  N     4.415853 -1.759301  3.410983
  N     4.532777  2.021572  3.629941
  S     3.680649 -2.438347  2.089556
  S     3.730334  1.637581  2.229367
  S     6.677440 -2.109587 -0.737591
  S     6.861808  1.884629 -0.479245
  S     5.977345 -1.368892  3.294429
  S     6.188195  2.034781  3.621738
