16  
    
  C    12.086795  1.300687  3.417124
  C    11.719544  4.884121  3.690161
  C    10.853484  0.899883  2.727919
  C    10.561414  4.254170  3.032589
  N    13.058633  1.658915  2.577201
  N    12.732024  5.198306  2.949458
  N    10.979121  0.829554  1.408700
  N    10.802110  4.092406  1.722160
  N    10.356906  0.710004  5.251672
  N    10.028484  4.464364  5.593366
  S     9.604031  0.301899  3.854874
  S     9.333291  3.910006  4.156151
  S    12.511896  1.284096  1.038536
  S    12.252707  4.749785  1.414246
  S    11.860070  1.370425  5.148084
  S    11.633077  5.014467  5.456197
