16  
    
  C     5.719632 -2.069322  2.088963
  C     5.923272  1.493182  1.951823
  C     4.593861 -2.727462  1.481072
  C     4.751468  1.032112  1.273659
  N     6.695642 -1.872868  1.224581
  N     6.976273  1.880783  1.228558
  N     4.666131 -2.859012  0.171025
  N     4.831672  1.106890 -0.032690
  N     3.923875 -2.244099  3.878828
  N     4.152237  0.948871  3.785358
  S     3.232043 -2.927523  2.577193
  S     3.412159  0.582463  2.328962
  S     6.235526 -2.486692 -0.213471
  S     6.445668  1.594540 -0.392260
  S     5.481951 -1.874372  3.797204
  S     5.652286  1.607850  3.675067
