16  
    
  C    11.003532  0.599962  3.160254
  C    11.067009  4.314853  3.426020
  C     9.868551 -0.032464  2.509005
  C     9.889192  3.793839  2.813907
  N    11.992008  1.010743  2.384464
  N    12.001576  4.538129  2.524152
  N     9.916843 -0.033139  1.195561
  N     9.855213  3.701032  1.476006
  N     9.141816  0.129103  4.935573
  N     9.285800  4.041764  5.292165
  S     8.437021 -0.128030  3.451314
  S     8.547043  3.495320  3.876098
  S    11.409972  0.652166  0.827740
  S    11.390442  4.236306  1.051847
  S    10.733470  0.636885  4.878634
  S    10.826576  4.619764  5.132595
