16  
    
  C    12.558411  1.565777  3.377864
  C    12.738494  5.558291  3.443452
  C    11.301763  1.072257  2.693586
  C    11.638040  5.016415  2.694256
  N    13.491057  1.966296  2.527237
  N    13.897429  5.713997  2.812565
  N    11.384144  1.093017  1.368493
  N    11.892568  4.877866  1.402835
  N    10.800793  1.140013  5.245505
  N    11.023296  4.906120  5.202293
  S    10.036845  0.611804  3.830059
  S    10.243347  4.539643  3.773291
  S    12.919524  1.693930  0.994054
  S    13.496887  5.285311  1.197499
  S    12.420666  1.580077  5.081079
  S    12.521128  5.556627  5.141505
