16  
    
  C     6.170433 -1.890217  1.664005
  C     6.317249  1.874048  1.874591
  C     5.018571 -2.466940  1.044336
  C     5.056046  1.698377  1.145722
  N     7.154744 -1.659734  0.792540
  N     7.388163  1.928473  1.103211
  N     5.121871 -2.665653 -0.298674
  N     5.183158  1.735548 -0.160921
  N     4.302406 -1.737756  3.488990
  N     4.473962  1.957346  3.697647
  S     3.613963 -2.472702  2.143752
  S     3.729749  1.797736  2.188010
  S     6.648648 -2.232261 -0.653133
  S     6.834883  1.840087 -0.489237
  S     5.998366 -1.470335  3.298959
  S     6.139418  1.921680  3.606364
