16  
    
  C     4.487654 -2.663787  1.547707
  C     5.187789  1.523062  1.644500
  C     3.231935 -2.797777  0.829221
  C     3.890949  1.214375  1.059120
  N     5.522290 -2.421042  0.728208
  N     6.130231  1.659295  0.743183
  N     3.292930 -2.843374 -0.500483
  N     3.897675  1.186677 -0.267683
  N     2.713933 -2.795435  3.337885
  N     3.515431  1.199810  3.686378
  S     1.897064 -2.893841  1.905208
  S     2.664533  0.944397  2.248767
  S     4.928643 -2.608625 -0.830997
  S     5.510961  1.394159 -0.769588
  S     4.388579 -2.652827  3.261153
  S     5.159406  1.481197  3.442074
