16  
    
  C    10.351380  0.712269  3.006273
  C    10.766229  4.437342  2.864451
  C     9.240842 -0.063595  2.433070
  C     9.465968  4.104480  2.305314
  N    11.296922  1.066900  2.111724
  N    11.703124  4.663674  1.921110
  N     9.265847 -0.215768  1.093242
  N     9.437997  4.007177  0.990244
  N     8.730756  0.071001  4.969395
  N     9.038967  4.070865  4.843782
  S     7.953713 -0.392623  3.568433
  S     8.151426  3.916840  3.433779
  S    10.744339  0.452166  0.661487
  S    10.926785  4.449171  0.483175
  S    10.253043  0.683716  4.728165
  S    10.625941  4.521860  4.618822
