16  
    
  C    11.767273  1.150541  3.338989
  C    11.884680  4.983797  3.270046
  C    10.624018  0.610067  2.757654
  C    10.697055  4.522699  2.651229
  N    12.836997  1.268463  2.540459
  N    12.924320  5.035387  2.422049
  N    10.731180  0.286233  1.476566
  N    10.869320  4.120256  1.424573
  N     9.905491  1.035200  5.153108
  N    10.193106  5.010269  5.199803
  S     9.181424  0.583653  3.745581
  S     9.449266  4.399289  3.845301
  S    12.286536  0.624923  1.081240
  S    12.439511  4.490476  0.967032
  S    11.496465  1.428671  5.007495
  S    11.796245  5.490408  4.982189
