16  
    
  C     4.606276 -2.319702  1.579931
  C     5.129654  1.582674  1.888171
  C     3.577420 -3.042152  0.856710
  C     3.806123  1.367699  1.301172
  N     5.609102 -1.942605  0.804580
  N     6.112969  1.486304  1.001737
  N     3.704944 -3.092481 -0.474655
  N     3.800798  1.221658 -0.016012
  N     2.899085 -3.053302  3.353272
  N     3.655548  1.518919  3.837008
  S     2.270707 -3.488132  1.873785
  S     2.623604  1.429910  2.616284
  S     5.159485 -2.323057 -0.811709
  S     5.393540  1.275879 -0.439271
  S     4.386273 -2.298396  3.307151
  S     5.267293  1.741390  3.606710
