16  
    
  C     3.664318 -2.708650  1.164962
  C     4.014347  1.039272  1.455782
  C     2.589859 -3.484410  0.660398
  C     2.857929  0.360023  0.903881
  N     4.687038 -2.616722  0.322954
  N     5.004658  1.217674  0.578895
  N     2.802154 -3.998911 -0.550977
  N     2.958435  0.116208 -0.412053
  N     1.961285 -2.970313  3.109541
  N     2.307108  0.689015  3.469977
  S     1.248823 -3.669006  1.750830
  S     1.444168  0.293557  2.007440
  S     4.236019 -3.453265 -1.045509
  S     4.445517  0.749679 -0.895231
  S     3.515109 -2.443357  2.885929
  S     3.884702  1.231451  3.232633
