16  
    
  C     5.725044 -2.089857  1.958807
  C     5.998537  1.761185  2.074654
  C     4.581929 -2.693678  1.352333
  C     4.782026  1.366019  1.446679
  N     6.718954 -1.817046  1.107364
  N     7.034546  1.864825  1.260868
  N     4.765097 -2.921942  0.067605
  N     4.811248  1.227593  0.111643
  N     3.897680 -2.426029  3.849498
  N     4.219055  1.800743  3.921099
  S     3.218663 -3.040990  2.391488
  S     3.388518  1.448961  2.518456
  S     6.226640 -2.365753 -0.362017
  S     6.444878  1.504389 -0.308465
  S     5.492929 -1.851354  3.695459
  S     5.882021  1.929083  3.801558
