16  
    
  C     6.331655 -1.595369  1.609358
  C     6.394007  2.144046  1.927785
  C     5.256256 -2.324768  0.968613
  C     5.278794  1.505769  1.312185
  N     7.376334 -1.469378  0.842806
  N     7.405126  2.370971  1.085326
  N     5.383984 -2.561758 -0.317390
  N     5.526303  1.137745  0.039159
  N     4.397103 -1.705698  3.375635
  N     4.572920  1.998834  3.728160
  S     3.833447 -2.515902  2.010260
  S     3.890780  1.244980  2.397190
  S     6.882555 -1.852362 -0.719734
  S     6.953728  1.768129 -0.354645
  S     6.062173 -1.329728  3.315984
  S     6.130188  2.559595  3.612054
