16  
    
  C     8.839430 -0.158130  2.544270
  C     8.582429  3.136460  2.557304
  C     7.661505 -0.677386  1.893522
  C     7.439305  2.595556  1.929996
  N     9.844288  0.077577  1.680539
  N     9.546269  3.534004  1.713671
  N     7.677302 -0.638140  0.563849
  N     7.519881  2.544179  0.600519
  N     7.148675 -0.738100  4.432519
  N     6.716932  2.882103  4.355841
  S     6.361705 -0.940738  2.991250
  S     6.078915  2.128776  2.983822
  S     9.227221 -0.189325  0.152738
  S     8.990169  3.126961  0.189702
  S     8.693230 -0.164063  4.311370
  S     8.321625  3.361010  4.265666
