16  
    
  C    12.112727  1.508151  3.299704
  C    12.225613  5.140647  3.637556
  C    10.998681  0.904417  2.680151
  C    10.989952  4.841023  2.989811
  N    13.190478  1.573204  2.500462
  N    13.261796  5.115091  2.782589
  N    11.106954  0.615468  1.374199
  N    11.078276  4.637861  1.683813
  N    10.280497  1.204784  5.129309
  N    10.553885  5.098002  5.557089
  S     9.510694  0.790622  3.671408
  S     9.699639  4.687883  4.183034
  S    12.694889  0.880531  1.031547
  S    12.637255  4.870891  1.262870
  S    11.938832  1.637850  5.050620
  S    12.170953  5.468783  5.368001
