16  
    
  C     6.092028 -1.593271  2.320468
  C     6.617089  2.050002  2.200814
  C     5.177263 -2.479392  1.689394
  C     5.381212  1.704171  1.554905
  N     7.079427 -1.117824  1.523347
  N     7.592739  2.293610  1.362902
  N     5.388304 -2.591842  0.345650
  N     5.371148  1.600919  0.246110
  N     4.391238 -2.243254  4.189121
  N     4.883965  1.865357  4.092882
  S     3.803439 -2.839670  2.710253
  S     4.074140  1.451960  2.684560
  S     6.752333 -1.773948  0.049650
  S     6.988397  1.982828 -0.206969
  S     5.922782 -1.531857  4.073941
  S     6.533197  2.271488  3.915992
