16  
    
  C     8.442928 -0.991199  2.476133
  C     8.213934  2.641373  2.155782
  C     7.115690 -1.433104  1.985282
  C     7.031956  2.213970  1.426500
  N     9.365436 -0.972292  1.551104
  N     9.324556  2.658928  1.453966
  N     7.146822 -1.876343  0.747098
  N     7.218552  1.888833  0.156609
  N     6.744022 -0.673534  4.456646
  N     6.278548  2.337845  3.901127
  S     5.908817 -1.324700  3.218219
  S     5.617246  2.089603  2.358004
  S     8.668704 -1.528146  0.119493
  S     8.867001  2.237636 -0.099005
  S     8.381367 -0.403962  4.183252
  S     7.885755  2.803610  3.867595
