16  
    
  C    12.757219  1.670878  3.412415
  C    12.650026  5.439725  3.206471
  C    11.497548  1.171566  2.756553
  C    11.413679  4.873379  2.747063
  N    13.659935  1.944462  2.458661
  N    13.602185  5.626634  2.308126
  N    11.482627  1.143999  1.422994
  N    11.391810  4.664473  1.407701
  N    11.064339  1.431210  5.268675
  N    11.075201  4.834813  5.217581
  S    10.215854  0.854405  3.923345
  S    10.220379  4.423442  3.906870
  S    13.040294  1.618761  0.970991
  S    12.826673  5.114818  0.843553
  S    12.699598  1.634536  5.139240
  S    12.581057  5.500430  5.004338
