16  
    
  C    10.321260  0.465767  2.977066
  C    10.835391  4.259218  2.944495
  C     9.121682 -0.054214  2.313190
  C     9.556820  4.176360  2.240631
  N    11.264136  0.871978  2.100678
  N    11.812517  4.618937  2.115917
  N     9.083749  0.013854  0.979124
  N     9.599609  4.367655  0.912423
  N     8.682843 -0.234280  4.853146
  N     8.996469  3.626805  4.690256
  S     7.932992 -0.593884  3.411613
  S     8.223635  3.851574  3.240623
  S    10.577909  0.717169  0.584639
  S    11.145779  4.709519  0.572525
  S    10.159246  0.520624  4.750465
  S    10.573843  4.242828  4.750850
