16  
    
  C     8.683845 -0.909498  2.318004
  C     8.397212  3.279465  2.251571
  C     7.554097 -1.536149  1.698160
  C     7.247979  2.616943  1.720858
  N     9.746918 -0.750035  1.551149
  N     9.384833  3.576262  1.400483
  N     7.691168 -1.661123  0.401256
  N     7.389304  2.296890  0.451141
  N     7.057529 -1.465053  4.180901
  N     6.778058  2.808618  4.262780
  S     6.259817 -1.760054  2.821523
  S     5.975881  2.209674  2.956917
  S     9.266248 -1.218420  0.064194
  S     8.831713  2.944851 -0.032264
  S     8.577005 -0.797660  4.032482
  S     8.272187  3.495727  3.990625
