16  
    
  C     7.299532 -1.501851  2.247369
  C     7.695694  2.765091  2.297048
  C     6.204646 -2.100169  1.506784
  C     6.486610  2.312100  1.629767
  N     8.208244 -0.903364  1.489230
  N     8.742000  2.964153  1.498288
  N     6.433741 -2.206664  0.204583
  N     6.523827  2.288460  0.285236
  N     5.435974 -2.111316  3.939076
  N     5.997586  2.254251  4.156501
  S     4.894031 -2.542462  2.440864
  S     5.185991  2.008680  2.728932
  S     7.808867 -1.318934 -0.055298
  S     8.197581  2.691353 -0.072882
  S     6.946874 -1.405098  3.952615
  S     7.509624  2.940938  4.046061
