16  
    
  C     7.127494 -1.594250  1.856816
  C     7.007558  2.090590  1.990597
  C     5.971823 -2.138253  1.173191
  C     5.798132  1.753959  1.288586
  N     8.233495 -1.494951  1.132834
  N     8.038069  2.321995  1.171935
  N     6.185898 -2.244124 -0.112135
  N     5.876493  1.599083 -0.034980
  N     5.292196 -1.798055  3.702356
  N     5.250051  1.654752  3.845278
  S     4.552311 -2.164000  2.235507
  S     4.465139  1.470156  2.350732
  S     7.762363 -1.868881 -0.442426
  S     7.455922  1.994499 -0.433771
  S     6.873714 -1.268166  3.610006
  S     6.896277  2.122949  3.734277
