16  
    
  C     7.120837 -1.689424  1.651075
  C     6.891129  2.066584  1.896830
  C     5.884433 -2.148201  1.048007
  C     5.699255  1.553542  1.276621
  N     8.147656 -1.504526  0.789473
  N     7.832277  2.296666  1.003155
  N     6.008325 -2.352235 -0.283085
  N     5.698406  1.590688 -0.057019
  N     5.365347 -1.770381  3.521719
  N     5.245456  1.619399  3.849873
  S     4.598830 -2.336385  2.196084
  S     4.406073  1.231164  2.466478
  S     7.633060 -2.025906 -0.682563
  S     7.238107  2.070660 -0.478075
  S     7.004257 -1.420321  3.396462
  S     6.802306  2.205919  3.677804
