16  
    
  C     7.177724 -1.313191  2.282723
  C     7.813611  2.807153  2.334684
  C     6.138431 -1.965527  1.525878
  C     6.587091  2.404685  1.669062
  N     8.193381 -0.809890  1.566262
  N     8.857357  3.022347  1.553538
  N     6.462273 -2.046021  0.240583
  N     6.665947  2.260394  0.357564
  N     5.340301 -2.106254  3.962533
  N     5.964913  2.384715  4.186554
  S     4.781916 -2.562235  2.455299
  S     5.237364  2.015885  2.702959
  S     7.918365 -1.260750 -0.002536
  S     8.297209  2.708481  0.019464
  S     6.866540 -1.354788  3.995772
  S     7.546146  2.964091  4.024226
