16  
    
  C    11.414170  1.000616  3.101917
  C    11.369131  4.672305  3.315629
  C    10.215569  0.437730  2.565345
  C    10.288841  3.922333  2.762236
  N    12.366764  1.244016  2.169527
  N    12.363451  4.880274  2.471820
  N    10.322010  0.027462  1.277902
  N    10.371518  3.729494  1.450940
  N     9.611973  0.885781  5.002727
  N     9.577175  4.467424  5.112813
  S     8.844254  0.256775  3.642912
  S     8.947112  3.716067  3.749285
  S    11.802285  0.580007  0.712824
  S    11.871714  4.274542  1.045656
  S    11.241377  1.244554  4.847721
  S    11.105691  5.137198  4.990723
