16  
    
  C    10.225111  0.520728  2.951524
  C    10.796284  4.211294  2.926295
  C     9.082844 -0.055952  2.291370
  C     9.586782  4.065031  2.180069
  N    11.195664  0.870667  2.097835
  N    11.812861  4.521802  2.122112
  N     9.138364  0.065559  0.957543
  N     9.603660  4.390072  0.901851
  N     8.670039 -0.206560  4.839130
  N     8.978096  3.661581  4.677976
  S     7.864169 -0.620389  3.424883
  S     8.227545  3.809995  3.204519
  S    10.571915  0.721763  0.579300
  S    11.229200  4.750283  0.601566
  S    10.180692  0.468865  4.710080
  S    10.533776  4.269038  4.732447
