16  
    
  C     3.252251 -2.799303  1.661447
  C     3.608801  0.887603  1.423166
  C     2.203651 -3.507383  0.928489
  C     2.352633  0.449132  0.818401
  N     4.134386 -2.139180  0.900825
  N     4.524948  1.314872  0.561546
  N     2.382041 -3.518171 -0.392833
  N     2.437334  0.367697 -0.501170
  N     1.434439 -3.419144  3.302410
  N     2.034078  0.231085  3.349215
  S     0.844333 -3.913598  1.829677
  S     1.132239 -0.019856  1.958656
  S     3.734336 -2.621710 -0.655250
  S     4.007091  0.902191 -0.948201
  S     2.930806 -2.771304  3.367250
  S     3.600086  0.744241  3.202070
