16  
    
  C     3.273511 -3.029917  1.553238
  C     3.580003  0.523561  1.420072
  C     2.076662 -3.128375  0.730345
  C     2.308781  0.315413  0.765665
  N     4.415162 -2.900088  0.852413
  N     4.593041  0.703547  0.581176
  N     2.283954 -3.073171 -0.590112
  N     2.352277  0.370047 -0.561379
  N     1.390711 -3.542800  3.156927
  N     1.834911  0.153501  3.276306
  S     0.653304 -3.600846  1.605425
  S     1.034391  0.005564  1.868058
  S     3.933128 -2.848399 -0.760745
  S     3.972592  0.691844 -0.963834
  S     3.009027 -3.170524  3.227556
  S     3.385305  0.682720  3.126416
