16  
    
  C     7.865743 -0.788617  2.080241
  C     8.248723  2.876631  2.464920
  C     6.728449 -1.380787  1.394877
  C     6.975967  2.562429  1.831473
  N     8.793121 -0.401874  1.228523
  N     9.243386  3.032928  1.597956
  N     6.959094 -1.729704  0.143796
  N     6.936775  2.598486  0.504943
  N     6.068150 -1.215949  3.991697
  N     6.502245  2.886735  4.365763
  S     5.377282 -1.675500  2.520039
  S     5.738581  2.389290  2.957222
  S     8.452862 -1.065480 -0.285130
  S     8.569822  2.844419  0.100011
  S     7.575432 -0.606248  3.834909
  S     8.197400  2.969345  4.220770
