16  
    
  C     9.023135 -0.473556  2.431233
  C     9.581079  3.377481  2.723249
  C     7.912710 -1.055483  1.705582
  C     8.302583  3.110576  2.178265
  N    10.163801 -0.397097  1.747131
  N    10.607136  3.366287  1.864582
  N     8.145276 -1.228347  0.375966
  N     8.351758  2.680119  0.927425
  N     6.975483 -0.255709  3.985588
  N     7.769949  3.594831  4.631603
  S     6.431720 -1.066501  2.608675
  S     6.918459  3.331196  3.206611
  S     9.773853 -0.833890  0.186041
  S     9.898166  2.958982  0.368868
  S     8.631361 -0.105184  4.027694
  S     9.475739  3.757582  4.451535
