16  
    
  C     4.688629 -2.022135  1.903494
  C     4.172695  1.111901  1.286447
  C     3.521331 -2.464104  1.209423
  C     2.958526  0.837048  0.567138
  N     5.796723 -1.984958  1.145556
  N     5.210867  1.150462  0.474140
  N     3.726329 -2.793105 -0.066446
  N     3.011422  0.752433 -0.753707
  N     2.869756 -2.277642  3.692172
  N     2.268297  1.145818  3.006936
  S     2.128189 -2.705902  2.260935
  S     1.547061  0.580843  1.658282
  S     5.292905 -2.364275 -0.410331
  S     4.682010  1.018945 -1.086797
  S     4.423646 -1.719237  3.589932
  S     3.932671  1.288148  3.026917
