16  
    
  C     8.421675 -0.933625  2.478797
  C     8.162822  2.925113  2.323401
  C     7.125912 -1.390532  2.006807
  C     7.024064  2.294772  1.701660
  N     9.368162 -0.898478  1.500334
  N     9.275814  3.036262  1.565393
  N     7.171277 -1.901827  0.754040
  N     7.163132  2.023727  0.403772
  N     6.746072 -0.764771  4.528073
  N     6.239210  2.682786  4.138747
  S     5.843627 -1.422566  3.262804
  S     5.604399  2.048180  2.652018
  S     8.690912 -1.613203  0.121450
  S     8.757353  2.473549  0.046099
  S     8.310530 -0.409138  4.149198
  S     7.840535  3.181791  3.996485
