16  
    
  C    12.784523  1.680859  3.453037
  C    12.269936  5.045458  3.415516
  C    11.534725  1.272066  2.881741
  C    11.121587  4.575714  2.654156
  N    13.844846  1.660176  2.639571
  N    13.391334  5.225638  2.674132
  N    11.669858  0.993120  1.575156
  N    11.402743  4.494021  1.325890
  N    11.142378  1.732078  5.332239
  N    10.446314  4.607449  5.104606
  S    10.302560  1.287810  4.008137
  S     9.722753  4.272528  3.641516
  S    13.246132  1.204312  1.162301
  S    13.049205  4.900342  1.140003
  S    12.771972  1.897585  5.203131
  S    11.996939  5.106207  5.066248
