16  
    
  C    10.296003  0.155787  2.651277
  C    10.288652  4.240174  3.090325
  C     9.105041 -0.303389  1.959702
  C     9.034565  3.808481  2.503998
  N    11.399432  0.161807  1.888756
  N    11.339536  4.049658  2.294647
  N     9.370336 -0.783717  0.715402
  N     9.094387  3.441749  1.233049
  N     8.467971  0.487886  4.312536
  N     8.674783  4.204333  5.095727
  S     7.835464 -0.400608  3.089190
  S     7.747891  3.967515  3.718358
  S    10.984436 -0.550413  0.467559
  S    10.788623  3.578634  0.840989
  S    10.091148  0.821157  4.204790
  S    10.262959  4.739806  4.711382
