16  
    
  C    11.082256  0.550961  3.039755
  C    10.937871  4.392534  2.932116
  C     9.839676  0.046243  2.474842
  C     9.907194  3.631543  2.246588
  N    12.042900  0.713396  2.156764
  N    12.002918  4.597641  2.151335
  N     9.933622 -0.093147  1.174759
  N    10.150938  3.283609  0.999287
  N     9.274784  0.484335  4.949284
  N     9.061661  4.175795  4.620327
  S     8.512985 -0.138671  3.610218
  S     8.484604  3.472988  3.232685
  S    11.454335  0.221817  0.689609
  S    11.608168  3.916253  0.609773
  S    10.914043  0.741692  4.762255
  S    10.665224  4.596068  4.614973
