16  
    
  C     4.192063 -2.747585  1.569012
  C     4.263291  1.219855  1.731973
  C     2.964840 -3.289787  1.063556
  C     2.961476  1.278116  1.094253
  N     5.174975 -2.556054  0.671177
  N     5.220200  1.072910  0.810724
  N     3.115978 -3.696824 -0.224303
  N     2.891666  0.989139 -0.211700
  N     2.546300 -2.509008  3.478433
  N     2.509609  1.513036  3.651234
  S     1.650934 -3.151006  2.212445
  S     1.719908  1.543223  2.254159
  S     4.590933 -3.175139 -0.702518
  S     4.532273  0.926856 -0.651931
  S     4.170764 -2.183877  3.193733
  S     4.160830  1.528087  3.461562
