16  
    
  C     4.618027 -2.583850  1.515387
  C     5.298498  1.593637  1.790908
  C     3.397584 -3.008810  0.840434
  C     3.976751  1.240965  1.262238
  N     5.610334 -2.230726  0.765233
  N     6.239449  1.665518  0.814875
  N     3.432107 -2.757943 -0.447104
  N     3.937518  1.150912 -0.055177
  N     2.826463 -2.933533  3.324780
  N     3.627126  1.621669  3.771169
  S     2.111558 -3.355562  1.908479
  S     2.689930  1.286319  2.492943
  S     5.014753 -2.325704 -0.813732
  S     5.452750  1.313442 -0.625642
  S     4.427918 -2.477710  3.224576
  S     5.240553  1.775426  3.617113
