16  
    
  C     8.304034 -0.848954  2.510533
  C     8.136938  2.981673  2.345765
  C     7.111269 -1.430966  1.994504
  C     7.014436  2.382629  1.669726
  N     9.325077 -0.973368  1.626630
  N     9.158706  3.200697  1.519756
  N     7.104996 -1.740577  0.681375
  N     7.204269  2.043255  0.383096
  N     6.626248 -0.830081  4.394668
  N     6.380142  2.498964  4.126598
  S     5.853363 -1.461241  3.089816
  S     5.659809  2.089123  2.723118
  S     8.673405 -1.518146  0.232431
  S     8.777027  2.522739  0.079023
  S     8.240179 -0.352594  4.130042
  S     7.833428  3.280308  4.105293
