16  
    
  C     6.236242 -1.689658  2.224465
  C     6.585464  2.035608  2.142248
  C     5.155474 -2.379805  1.541614
  C     5.358547  1.659764  1.513984
  N     7.228133 -1.265450  1.426118
  N     7.594375  2.274810  1.324801
  N     5.405223 -2.595689  0.265478
  N     5.401613  1.474838  0.187830
  N     4.349962 -2.073604  3.922214
  N     4.844076  1.952303  3.996607
  S     3.830595 -2.846380  2.549512
  S     4.025620  1.509210  2.639612
  S     6.789550 -1.819487 -0.109105
  S     6.995167  1.996979 -0.234289
  S     5.936709 -1.558623  3.954028
  S     6.431592  2.287237  3.820930
