16  
    
  C    10.298494  0.381761  2.573344
  C    10.463805  4.235085  2.995596
  C     9.154592 -0.200680  1.909207
  C     9.260899  3.680264  2.453582
  N    11.357391  0.408133  1.783509
  N    11.458667  4.276249  2.130142
  N     9.319229 -0.637205  0.664249
  N     9.306690  3.368938  1.139011
  N     8.357893  0.517097  4.246994
  N     8.747521  4.426719  4.910221
  S     7.742552 -0.187701  2.885039
  S     7.955891  3.917681  3.528848
  S    10.899527 -0.279829  0.359236
  S    10.835464  3.701658  0.712881
  S     9.976095  0.971180  4.207647
  S    10.425376  4.617936  4.755024
