16  
    
  C    12.566785  1.492660  3.358337
  C    12.752796  5.464188  3.509943
  C    11.391195  0.900060  2.747820
  C    11.644473  4.973894  2.728651
  N    13.481860  1.919977  2.493769
  N    13.864169  5.763102  2.799174
  N    11.436908  0.969106  1.407513
  N    11.994397  4.809479  1.459893
  N    10.856525  1.064652  5.237857
  N    10.936673  4.852969  5.204709
  S    10.061454  0.647186  3.859943
  S    10.280291  4.619197  3.684843
  S    12.854675  1.658301  0.972927
  S    13.570283  5.352493  1.278303
  S    12.365704  1.629852  5.033050
  S    12.485603  5.570278  5.232366
