16  
    
  C     4.998867 -2.358589  1.587042
  C     4.879613  1.685508  2.038354
  C     3.807630 -2.984099  1.028594
  C     3.741767  1.049331  1.383099
  N     6.059803 -2.391073  0.774156
  N     5.959124  1.818947  1.260207
  N     3.927757 -3.428458 -0.223120
  N     3.949378  0.771003  0.099963
  N     3.230054 -2.443350  3.444750
  N     3.120281  1.252277  3.832980
  S     2.418071 -2.834313  2.086648
  S     2.395967  0.717173  2.467677
  S     5.449039 -2.956851 -0.666874
  S     5.534876  1.265986 -0.265078
  S     4.826488 -1.980371  3.267236
  S     4.680756  1.696864  3.712764
