16  
    
  C     7.094381 -1.488114  2.044326
  C     7.076768  2.129247  2.022920
  C     5.921020 -1.917234  1.346163
  C     5.874615  1.698349  1.311233
  N     8.207789 -1.364069  1.295039
  N     8.147092  2.271084  1.257431
  N     6.140170 -2.109845  0.031361
  N     6.038038  1.622474 -0.004365
  N     5.228464 -1.693996  3.748768
  N     5.195810  1.852515  3.824068
  S     4.535139 -2.123024  2.287301
  S     4.472090  1.546299  2.366781
  S     7.727247 -1.739198 -0.229233
  S     7.603089  2.007053 -0.297645
  S     6.838166 -1.447377  3.733617
  S     6.797114  2.242490  3.715604
