16  
    
  C    11.219328  0.969747  3.337133
  C    11.580190  4.651499  2.745886
  C    10.020359  0.444731  2.757397
  C    10.292282  4.331590  2.211080
  N    12.178223  1.187772  2.488692
  N    12.611004  4.800632  1.921286
  N    10.043314  0.352864  1.414803
  N    10.387800  4.139729  0.886165
  N     9.568018  1.021988  5.295710
  N     9.905154  4.454125  4.727602
  S     8.754959  0.537986  3.983370
  S     9.068440  3.968713  3.343931
  S    11.585073  0.810016  0.939705
  S    11.904727  4.541308  0.391190
  S    11.173622  1.094708  5.072193
  S    11.512328  4.885903  4.480481
