16  
    
  C    12.851330  1.598332  3.291380
  C    12.449926  5.203385  3.264349
  C    11.542119  1.105736  2.809028
  C    11.279450  4.718583  2.634534
  N    13.789269  1.800813  2.373084
  N    13.470914  5.373679  2.443699
  N    11.589796  1.045616  1.494001
  N    11.359710  4.642341  1.296658
  N    11.225116  1.426092  5.322656
  N    10.821708  4.828543  5.170032
  S    10.316571  0.910760  4.023575
  S     9.927114  4.454430  3.847040
  S    13.122315  1.409809  0.939737
  S    12.918747  5.163109  0.931225
  S    12.812924  1.873041  5.018127
  S    12.361406  5.381525  4.982512
