16  
    
  C     9.966270 -0.037725  2.698744
  C     9.837415  3.965224  2.836032
  C     8.849675 -0.671031  2.000254
  C     8.806439  3.109366  2.202188
  N    11.008954  0.244112  1.956477
  N    10.805067  4.374084  2.043222
  N     9.006549 -0.730735  0.698273
  N     9.132641  2.716348  0.970545
  N     8.118894 -0.353778  4.460992
  N     7.910942  3.712304  4.541657
  S     7.474918 -0.949792  3.103486
  S     7.358183  2.911328  3.196000
  S    10.573600 -0.202893  0.420082
  S    10.564036  3.583740  0.559335
  S     9.717597  0.088095  4.362590
  S     9.436048  4.383123  4.428521
