16  
    
  C    10.051711 -0.143633  2.720288
  C    10.118111  3.845095  2.688022
  C     8.748274 -0.446162  2.098098
  C     9.078726  2.926496  2.336161
  N    11.058237  0.065400  1.916065
  N    10.965937  4.198373  1.713835
  N     8.845748 -0.619011  0.820655
  N     9.074903  2.582850  1.053305
  N     8.261262 -0.313167  4.653425
  N     8.444845  3.433572  4.772973
  S     7.468955 -0.750142  3.265101
  S     7.813236  2.608385  3.452877
  S    10.442401 -0.251278  0.373797
  S    10.402631  3.365110  0.400795
  S     9.914506 -0.051079  4.429637
  S     9.815756  4.322479  4.385707
