16  
    
  C     8.949897 -0.366920  2.535701
  C     8.825911  3.351136  2.609705
  C     7.680740 -0.684703  1.925146
  C     7.576168  2.852839  2.068096
  N     9.981195 -0.063584  1.746367
  N     9.738410  3.766469  1.739280
  N     7.831002 -0.836898  0.587594
  N     7.616928  2.926600  0.741305
  N     7.232034 -0.542703  4.438501
  N     7.218728  2.951156  4.580407
  S     6.430822 -1.038546  3.036884
  S     6.255675  2.686893  3.239607
  S     9.382371 -0.378543  0.256587
  S     9.096520  3.452698  0.236083
  S     8.884709 -0.302680  4.250480
  S     8.802945  3.382417  4.294335
