16  
    
  C    11.330611  1.081031  3.364628
  C    11.487815  4.741414  2.776808
  C    10.093604  0.544404  2.792199
  C    10.240692  4.229138  2.176158
  N    12.278027  1.209123  2.430676
  N    12.497992  4.994122  1.947769
  N    10.062808  0.439488  1.486759
  N    10.345249  4.133864  0.883106
  N     9.668529  0.688852  5.226411
  N     9.863454  4.360613  4.768719
  S     8.748135  0.434746  3.842624
  S     9.015698  3.997625  3.365634
  S    11.530856  0.873561  0.951019
  S    11.889569  4.518753  0.414592
  S    11.270963  1.261566  5.040159
  S    11.387882  5.011930  4.515505
