16  
    
  C     6.465630 -1.720380  2.068637
  C     6.539124  2.213620  2.130326
  C     5.202257 -2.024170  1.446196
  C     5.397878  1.629612  1.529746
  N     7.450381 -1.458965  1.232238
  N     7.533132  2.538358  1.298995
  N     5.300306 -2.179985  0.138934
  N     5.502104  1.474348  0.196000
  N     4.706209 -2.216838  3.972579
  N     4.945587  1.684304  4.049275
  S     3.931875 -2.492457  2.544214
  S     4.209514  1.068769  2.727097
  S     6.817098 -1.646995 -0.278102
  S     6.934916  2.137074 -0.214365
  S     6.287318 -1.821041  3.821973
  S     6.459150  2.292488  3.834497
