16  
    
  C     5.642264 -2.047728  2.037673
  C     5.848295  1.762600  2.008806
  C     4.512945 -2.639080  1.376338
  C     4.724618  1.229306  1.325583
  N     6.690501 -1.881246  1.249252
  N     6.912831  1.994185  1.251905
  N     4.744510 -3.041966  0.130204
  N     4.910415  1.090135  0.015335
  N     3.930421 -2.468674  3.962607
  N     4.193962  1.170726  3.847709
  S     3.189480 -3.018185  2.525598
  S     3.401470  0.926104  2.378870
  S     6.221308 -2.421739 -0.240527
  S     6.449375  1.626879 -0.307385
  S     5.505938 -1.771279  3.727929
  S     5.758469  1.712202  3.765370
