16  
    
  C    11.850314  1.157286  3.406191
  C    11.903209  5.010407  3.373142
  C    10.672272  0.557967  2.715946
  C    10.664265  4.610433  2.752704
  N    12.947433  1.168506  2.615775
  N    12.972098  5.084793  2.551927
  N    10.870702  0.378377  1.398687
  N    10.905769  4.248779  1.488044
  N    10.024286  0.959732  5.196355
  N    10.080256  4.838499  5.173367
  S     9.256600  0.563553  3.756964
  S     9.311775  4.437055  3.773016
  S    12.459288  0.704617  1.096080
  S    12.463686  4.485503  1.111258
  S    11.561885  1.646441  5.007782
  S    11.688570  5.259239  5.052402
