16  
    
  C     5.859782 -2.363486  2.015880
  C     5.783202  1.329495  1.782913
  C     4.609134 -2.573217  1.355444
  C     4.625515  0.847763  1.104540
  N     6.841182 -2.070748  1.205438
  N     6.808569  1.625484  0.981596
  N     4.654417 -2.611089  0.034061
  N     4.791330  0.659727 -0.204551
  N     4.109550 -2.489576  3.950925
  N     3.979603  0.970152  3.639135
  S     3.275912 -2.627381  2.484676
  S     3.243297  0.509149  2.216804
  S     6.281151 -2.354219 -0.325038
  S     6.375781  1.086365 -0.527334
  S     5.716893 -2.072520  3.719403
  S     5.576511  1.370930  3.504941
