16  
    
  C     9.783618 -0.190185  2.847073
  C     9.572272  3.874471  2.709672
  C     8.592100 -0.650153  2.087204
  C     8.346087  3.568225  1.995280
  N    10.833098 -0.063016  2.112319
  N    10.653594  3.908314  1.935750
  N     8.829748 -0.850331  0.815577
  N     8.513357  3.490688  0.682394
  N     7.867603 -0.385360  4.616225
  N     7.876841  3.480121  4.558773
  S     7.225250 -0.851830  3.148936
  S     7.102214  3.214330  3.118124
  S    10.404191 -0.378899  0.544568
  S    10.140874  3.687445  0.441753
  S     9.482828  0.061405  4.550003
  S     9.488734  3.769924  4.480445
