16  
    
  C     9.916549 -0.154259  2.888860
  C    10.157484  3.596642  2.750973
  C     8.740908 -0.658130  2.182816
  C     8.800906  3.311324  2.263492
  N    10.981530  0.022972  2.161701
  N    11.097534  3.795819  1.833434
  N     8.925353 -0.698760  0.887675
  N     8.847086  3.273319  0.918681
  N     8.188422 -0.722800  4.727750
  N     8.634072  3.370560  4.805614
  S     7.387446 -0.801559  3.313526
  S     7.616293  3.194590  3.541447
  S    10.519568 -0.285930  0.619432
  S    10.346853  3.516826  0.375203
  S     9.731359 -0.189074  4.546249
  S    10.185370  3.789672  4.462851
