16  
    
  C     8.947259 -0.229893  2.580369
  C     8.696108  3.389991  2.563348
  C     7.752732 -0.686913  1.944920
  C     7.484745  2.929471  2.003337
  N     9.974985 -0.082284  1.738229
  N     9.638352  3.781329  1.690873
  N     7.825562 -0.779423  0.586021
  N     7.493914  2.807422  0.668350
  N     7.189181 -0.526785  4.423628
  N     7.158981  2.831963  4.536546
  S     6.440782 -0.993208  3.051666
  S     6.197049  2.571422  3.189100
  S     9.390315 -0.389788  0.183233
  S     8.975515  3.479844  0.196591
  S     8.795530 -0.294826  4.273635
  S     8.741511  3.310593  4.295099
