16  
    
  C    12.878640  1.677383  3.411157
  C    12.307604  5.056159  3.367377
  C    11.644507  1.232893  2.843268
  C    11.156763  4.700319  2.586293
  N    13.826238  1.734904  2.513379
  N    13.457039  5.284167  2.687474
  N    11.636769  0.953055  1.538353
  N    11.435236  4.514652  1.334767
  N    11.191027  1.588174  5.361887
  N    10.377122  4.769778  5.138481
  S    10.261445  1.220832  4.013859
  S     9.733328  4.308833  3.654797
  S    13.258994  1.174909  1.087403
  S    12.992539  4.942108  1.091079
  S    12.829621  1.932380  5.155767
  S    12.051630  5.072688  5.055135
