16  
    
  C    10.665473  0.744170  2.945593
  C    10.642134  4.395122  2.803064
  C     9.447966  0.237351  2.336050
  C     9.587789  3.584259  2.215787
  N    11.682879  0.821637  2.106478
  N    11.711651  4.567196  2.013489
  N     9.637111 -0.248824  1.099559
  N     9.892531  3.170235  0.992383
  N     8.971042  0.730925  4.823523
  N     8.751280  4.467534  4.563584
  S     8.137013  0.262783  3.481215
  S     8.288048  3.391853  3.365888
  S    11.191170  0.160123  0.685264
  S    11.429311  3.811593  0.648577
  S    10.543638  1.230598  4.593073
  S    10.277255  5.089060  4.381619
