16  
    
  C     6.134206 -1.748612  1.582466
  C     6.373932  1.857717  1.882760
  C     4.994337 -2.428859  1.048892
  C     5.141951  1.785157  1.169330
  N     7.200672 -1.627837  0.791058
  N     7.438810  1.938217  1.105999
  N     5.158243 -2.744672 -0.239342
  N     5.204601  1.691325 -0.167702
  N     4.365541 -1.730260  3.443891
  N     4.516479  2.012975  3.634884
  S     3.684710 -2.440994  2.103963
  S     3.734934  1.695721  2.207956
  S     6.667189 -2.138464 -0.701883
  S     6.858081  1.882746 -0.492869
  S     5.981780 -1.417948  3.294825
  S     6.171321  1.986604  3.627807
