16  
    
  C     4.270954 -2.527735  1.600934
  C     4.157384  1.193806  1.685832
  C     3.085741 -3.157079  1.071574
  C     2.852001  0.989109  1.094713
  N     5.267442 -2.394471  0.699627
  N     5.152853  1.164446  0.773164
  N     3.159872 -3.410432 -0.255864
  N     2.861963  0.776108 -0.223341
  N     2.645610 -2.765161  3.600212
  N     2.381502  1.348225  3.633931
  S     1.833556 -3.409688  2.273940
  S     1.567117  1.016166  2.223375
  S     4.704207 -3.094555 -0.664813
  S     4.493606  0.810041 -0.702262
  S     4.135168 -2.078238  3.275158
  S     4.068319  1.423153  3.468916
