16  
    
  C     9.578759 -0.537300  2.760105
  C     9.389106  3.180977  2.572669
  C     8.349537 -0.800585  2.085426
  C     8.191239  3.037405  1.840783
  N    10.669538 -0.542154  1.977298
  N    10.476998  3.260564  1.843325
  N     8.429165 -1.014689  0.765413
  N     8.349589  3.000641  0.517519
  N     7.825328 -0.586471  4.652878
  N     7.625877  3.038982  4.359873
  S     7.040847 -1.000078  3.247983
  S     6.823557  3.014272  2.933822
  S    10.116595 -0.916315  0.470614
  S    10.009930  3.148420  0.220700
  S     9.496422 -0.450630  4.491286
  S     9.291537  3.445325  4.327593
