16  
    
  C    10.056641 -0.104386  2.985168
  C    10.341213  3.516142  3.140110
  C     8.868465 -0.401181  2.223982
  C     9.057075  3.677835  2.451571
  N    11.126998  0.167531  2.224131
  N    11.357595  3.531085  2.269563
  N     9.003798 -0.412797  0.905093
  N     9.154782  3.903612  1.148621
  N     8.081274 -0.539180  4.624182
  N     8.465346  3.561184  4.916532
  S     7.477008 -0.787559  3.099910
  S     7.726257  3.998556  3.517014
  S    10.598874 -0.022699  0.615635
  S    10.729838  3.780981  0.736253
  S     9.723208 -0.329592  4.657262
  S    10.128820  3.417446  4.885515
