16  
    
  C     7.295914 -1.655058  2.256397
  C     7.432434  2.419592  2.138301
  C     6.101647 -2.006662  1.576881
  C     6.205180  1.903572  1.567509
  N     8.352131 -1.595558  1.449515
  N     8.444711  2.427562  1.270134
  N     6.210999 -2.172715  0.239298
  N     6.210700  1.628968  0.258051
  N     5.531777 -2.024967  4.062895
  N     5.764858  2.279208  4.070672
  S     4.736403 -2.269663  2.622563
  S     4.960687  1.668340  2.763750
  S     7.810011 -1.880297 -0.077070
  S     7.835226  1.997135 -0.185957
  S     7.102502 -1.584466  3.948808
  S     7.348628  2.577156  3.911561
