16  
    
  C     4.671571 -2.266070  1.605682
  C     4.971629  1.303438  1.930621
  C     3.561998 -2.804255  0.895749
  C     3.674089  1.263856  1.298765
  N     5.673722 -1.901387  0.803203
  N     5.947713  1.438090  1.037580
  N     3.742668 -2.947831 -0.434975
  N     3.680851  1.167202 -0.039623
  N     2.860458 -2.774197  3.375429
  N     3.334964  1.732173  3.881016
  S     2.258109 -3.262507  1.916108
  S     2.382205  1.412511  2.509474
  S     5.260553 -2.333371 -0.724706
  S     5.262564  1.294874 -0.458101
  S     4.347034 -2.016553  3.302303
  S     5.048046  1.456952  3.647810
