16  
    
  C     8.400462 -0.896545  2.481120
  C     8.255210  2.484603  2.109012
  C     7.118461 -1.113631  1.831030
  C     7.111929  2.059630  1.329642
  N     9.443587 -0.915333  1.602504
  N     9.422189  2.500735  1.418293
  N     7.262903 -1.477024  0.535763
  N     7.366740  1.877661  0.035965
  N     6.592787 -0.535100  4.305859
  N     6.251311  2.091925  3.808578
  S     5.787592 -1.171528  2.975756
  S     5.647459  1.805971  2.244602
  S     8.872380 -1.355086  0.113134
  S     8.982064  2.216865 -0.112831
  S     8.250241 -0.528599  4.192641
  S     7.886988  2.591063  3.772734
