16  
    
  C    12.115231  1.403699  3.327119
  C    12.286074  5.181676  3.771075
  C    10.946875  0.974036  2.692703
  C    11.019666  4.870623  3.140345
  N    13.182724  1.594264  2.541051
  N    13.241283  5.244867  2.824561
  N    11.139041  0.585178  1.437393
  N    10.928759  4.744034  1.825754
  N    10.328303  1.154029  5.150770
  N    10.569991  4.912049  5.659077
  S     9.578902  0.725752  3.744154
  S     9.726032  4.636193  4.254494
  S    12.691753  1.080368  1.017822
  S    12.565857  4.899738  1.334190
  S    11.856292  1.689632  5.003288
  S    12.136746  5.361077  5.482298
