16  
    
  C     7.192049 -1.326907  2.333675
  C     7.842723  2.779526  2.306546
  C     6.155141 -1.931148  1.547547
  C     6.629886  2.282181  1.676775
  N     8.258008 -0.956087  1.595418
  N     8.846996  3.073574  1.466122
  N     6.311658 -1.795163  0.209154
  N     6.728122  2.114886  0.359292
  N     5.286267 -1.817605  3.941886
  N     6.031291  2.474342  4.169186
  S     4.730202 -2.276968  2.452345
  S     5.258437  2.064606  2.720734
  S     7.819671 -1.165740  0.007435
  S     8.309764  2.602439 -0.023936
  S     6.821238 -1.245075  3.967794
  S     7.581911  3.059288  4.030531
