16  
    
  C    11.367549  0.658628  2.985296
  C    11.070656  4.578665  3.541450
  C    10.343623 -0.062814  2.220531
  C     9.805105  4.158711  2.990394
  N    12.484573  0.903630  2.320204
  N    12.098397  4.613163  2.684599
  N    10.701008 -0.299985  0.946394
  N     9.918863  3.737360  1.738204
  N     9.407164  0.359399  4.609933
  N     9.403377  4.532025  5.554551
  S     8.785260 -0.126267  3.120422
  S     8.545440  4.094610  4.204013
  S    12.321663  0.266127  0.827065
  S    11.490222  4.071194  1.267635
  S    10.979823  0.917293  4.695310
  S    10.914791  5.117973  5.237055
