16  
    
  C     6.258305 -1.650783  1.895860
  C     6.492810  2.211336  2.037466
  C     5.154856 -2.313942  1.233499
  C     5.304606  1.679615  1.380390
  N     7.352370 -1.516100  1.134651
  N     7.498225  2.383676  1.193367
  N     5.322051 -2.419417 -0.094225
  N     5.483027  1.393592  0.091444
  N     4.501050 -2.190229  3.739700
  N     4.732363  1.838393  3.907598
  S     3.817978 -2.680434  2.260050
  S     3.965498  1.429875  2.487248
  S     6.902468 -1.973327 -0.377866
  S     7.010998  1.809087 -0.257902
  S     6.035455 -1.453723  3.586834
  S     6.260597  2.430591  3.720841
