16  
    
  C     4.105576 -2.900912  1.629146
  C     4.154705  1.279459  1.559804
  C     2.890666 -3.324958  0.951920
  C     2.885750  0.953605  0.942992
  N     5.167259 -2.874479  0.801688
  N     5.173418  1.266041  0.701638
  N     2.980927 -3.423195 -0.382818
  N     2.879007  0.911297 -0.397919
  N     2.120877 -2.642937  3.334051
  N     2.430525  1.300554  3.515848
  S     1.501370 -3.401437  1.994549
  S     1.642553  0.953033  2.120039
  S     4.625113 -3.296355 -0.771552
  S     4.476325  1.029867 -0.797375
  S     3.764126 -2.311777  3.243774
  S     4.088345  1.637948  3.230930
