16  
    
  C     8.763127 -0.955285  2.385141
  C     8.498434  3.260451  2.521573
  C     7.570367 -1.184821  1.630318
  C     7.334339  2.627162  1.893796
  N     9.830576 -0.835907  1.651477
  N     9.492455  3.476412  1.672589
  N     7.755725 -1.365651  0.348732
  N     7.435873  2.478033  0.572763
  N     6.848597 -0.737206  4.088522
  N     6.783634  2.841604  4.464264
  S     6.198342 -1.313952  2.676403
  S     6.057271  2.203920  3.064386
  S     9.381483 -1.097073  0.109952
  S     8.937857  3.084107  0.187288
  S     8.563091 -0.603474  4.072542
  S     8.365649  3.469314  4.289601
