16  
    
  C     5.935910 -2.182632  1.876111
  C     5.655224  1.288507  1.764156
  C     4.606837 -2.374275  1.295332
  C     4.465055  0.754435  1.128283
  N     6.950050 -2.083619  0.999503
  N     6.691529  1.404119  0.916372
  N     4.654682 -2.570890 -0.020293
  N     4.620569  0.433400 -0.146999
  N     4.203062 -2.453445  3.863428
  N     3.857945  1.210312  3.573294
  S     3.342071 -2.601621  2.397051
  S     3.086515  0.685754  2.174034
  S     6.217899 -2.294970 -0.517515
  S     6.154929  0.864548 -0.535867
  S     5.859067 -2.138701  3.608397
  S     5.495666  1.388863  3.459744
