16  
    
  C    11.761896  0.994780  2.820280
  C    11.683406  4.958740  3.178222
  C    10.557283  0.320527  2.374171
  C    10.579632  4.372902  2.480220
  N    12.587790  1.474537  1.887015
  N    12.722937  5.178443  2.326829
  N    10.506441  0.352360  1.058572
  N    10.700522  4.259411  1.170528
  N    10.106233  0.852128  4.882206
  N     9.871102  4.650046  4.901328
  S     9.267339  0.158479  3.589523
  S     9.202959  4.040846  3.491579
  S    11.882198  1.120676  0.433992
  S    12.199525  4.895744  0.826339
  S    11.650064  1.453216  4.506608
  S    11.433882  5.147051  4.859375
