16  
    
  C     6.232040 -1.715968  2.291146
  C     6.573661  2.038467  2.125597
  C     5.172283 -2.360813  1.605163
  C     5.365075  1.615068  1.503005
  N     7.155406 -1.201203  1.458655
  N     7.577726  2.265182  1.310051
  N     5.361556 -2.620827  0.296580
  N     5.423757  1.531047  0.183423
  N     4.359201 -2.101790  3.928610
  N     4.865570  1.952380  4.024081
  S     3.848324 -2.843254  2.576505
  S     4.041661  1.506502  2.651946
  S     6.790795 -1.815370 -0.078616
  S     6.984744  2.000267 -0.205168
  S     5.928463 -1.560834  3.973215
  S     6.450093  2.281975  3.848832
