16  
    
  C    10.260704  0.391654  2.557971
  C    10.485771  4.220472  2.989253
  C     9.152563 -0.274438  1.957044
  C     9.266722  3.724805  2.419912
  N    11.338609  0.451691  1.808972
  N    11.495983  4.295360  2.128841
  N     9.292303 -0.617565  0.697143
  N     9.365255  3.354122  1.145195
  N     8.371050  0.510857  4.271851
  N     8.790686  4.372013  4.895392
  S     7.735609 -0.151724  2.882697
  S     7.925962  3.920038  3.567045
  S    10.897260 -0.214407  0.339666
  S    10.870608  3.721990  0.677156
  S     9.958124  0.962292  4.185082
  S    10.449977  4.603750  4.688198
