16  
    
  C     8.459569 -0.995820  2.481153
  C     8.199683  2.604255  2.234038
  C     7.171003 -1.516421  2.100144
  C     7.037156  2.104027  1.546366
  N     9.325979 -0.890367  1.490383
  N     9.289972  2.771810  1.456616
  N     7.162957 -1.978502  0.865898
  N     7.181065  1.972852  0.218570
  N     6.793822 -0.696401  4.449499
  N     6.204413  2.756118  3.941081
  S     5.914298 -1.360811  3.256517
  S     5.548990  2.068778  2.521070
  S     8.614574 -1.591389  0.184794
  S     8.814807  2.363951 -0.037003
  S     8.436579 -0.441717  4.114924
  S     7.894934  2.949163  3.944623
