16  
    
  C    10.706948  0.705817  2.930950
  C    10.672710  4.450367  2.783523
  C     9.480582  0.224235  2.308216
  C     9.644807  3.598163  2.257506
  N    11.768669  0.756022  2.134123
  N    11.764125  4.581073  2.055082
  N     9.607764 -0.282792  1.070442
  N     9.873581  3.250472  0.980436
  N     8.998327  0.755413  4.815499
  N     8.738989  4.464407  4.477422
  S     8.205540  0.269821  3.445531
  S     8.343925  3.315986  3.340628
  S    11.224284  0.154582  0.673653
  S    11.454912  3.758836  0.647095
  S    10.570286  1.232957  4.608980
  S    10.275421  5.072845  4.393168
