16  
    
  C     8.756922 -0.926165  2.389728
  C     8.485350  3.251057  2.515537
  C     7.573948 -1.187472  1.628279
  C     7.339055  2.634461  1.880228
  N     9.811684 -0.834742  1.662838
  N     9.480538  3.472634  1.679938
  N     7.752811 -1.364835  0.350657
  N     7.433247  2.465324  0.551112
  N     6.859830 -0.727299  4.077701
  N     6.780385  2.838498  4.474756
  S     6.181977 -1.289448  2.665346
  S     6.061061  2.212413  3.063585
  S     9.384692 -1.089938  0.118936
  S     8.944468  3.087527  0.204526
  S     8.570682 -0.593306  4.073484
  S     8.381724  3.463164  4.306711
