16  
    
  C     4.001232 -2.825609  1.536657
  C     4.121899  1.213162  1.510706
  C     2.813254 -3.354877  0.892447
  C     2.840056  0.913653  0.910450
  N     5.060025 -2.782610  0.702905
  N     5.142607  1.286704  0.666788
  N     2.917904 -3.777804 -0.382007
  N     2.944143  0.613706 -0.385183
  N     2.054562 -2.733008  3.217230
  N     2.373480  1.220845  3.439706
  S     1.430473 -3.490419  1.861238
  S     1.531257  0.642456  2.131354
  S     4.494726 -3.284424 -0.787434
  S     4.492704  0.926501 -0.884298
  S     3.706827 -2.393407  3.163530
  S     4.052015  1.492262  3.231000
