16  
    
  C    12.547408  1.511005  3.717725
  C    12.334146  5.053477  3.442090
  C    11.381754  1.024645  3.114230
  C    11.100833  4.771429  2.808976
  N    13.529501  1.781662  2.849899
  N    13.397598  5.131380  2.580255
  N    11.443212  0.893814  1.759976
  N    11.158643  4.545015  1.492472
  N    10.815142  1.393169  5.680518
  N    10.652600  4.958087  5.369631
  S     9.982165  0.888585  4.244288
  S     9.807753  4.540552  3.975650
  S    12.941911  1.412763  1.320409
  S    12.824684  4.831539  1.112413
  S    12.465882  1.731607  5.470697
  S    12.268065  5.379196  5.080646
