16  
    
  C     3.452795 -3.088916  1.031966
  C     3.720298  0.565093  1.419964
  C     2.189066 -3.477364  0.448909
  C     2.531339  0.147402  0.696424
  N     4.440198 -2.844901  0.157528
  N     4.752449  0.836272  0.644883
  N     2.209630 -3.586191 -0.877591
  N     2.717253  0.026971 -0.613170
  N     1.671771 -3.298450  2.930995
  N     1.953292  0.343310  3.185020
  S     0.852168 -3.632945  1.519138
  S     1.143449  0.117309  1.753575
  S     3.829052 -3.367569 -1.328290
  S     4.260352  0.441758 -0.929517
  S     3.262789 -2.981772  2.823792
  S     3.547867  0.882728  3.102232
