16  
    
  C    12.578280  1.628595  3.407933
  C    12.724939  5.236408  3.270849
  C    11.329205  1.163836  2.704971
  C    11.518347  4.715991  2.719924
  N    13.620123  1.887294  2.584492
  N    13.695222  5.643908  2.445451
  N    11.452222  1.229821  1.363758
  N    11.546814  4.689930  1.357616
  N    10.983537  0.961647  5.231390
  N    11.160964  5.078201  5.255827
  S    10.092202  0.868243  3.850655
  S    10.303008  4.463855  3.975304
  S    13.011951  1.776556  1.026028
  S    13.036083  5.296148  0.911644
  S    12.492933  1.670297  5.179404
  S    12.691543  5.547216  4.934518
