16  
    
  C    11.747386  0.923296  3.185303
  C    11.936602  5.043185  3.158468
  C    10.443182  0.573405  2.588120
  C    10.773950  4.260173  2.647199
  N    12.745378  1.113147  2.328067
  N    12.919840  5.137464  2.263949
  N    10.495943  0.548126  1.283757
  N    10.831131  3.872950  1.397243
  N     9.867343  1.013049  5.079174
  N    10.259986  5.197995  5.056461
  S     9.097431  0.473426  3.662271
  S     9.543756  4.265486  3.904538
  S    12.059866  0.862557  0.833519
  S    12.350410  4.481943  0.859103
  S    11.495604  1.292448  4.831850
  S    11.849115  5.601201  4.810291
