16  
    
  C    12.450814  1.695273  3.287459
  C    12.236846  5.343507  3.530874
  C    11.242572  1.122664  2.744419
  C    11.137386  4.717193  2.878923
  N    13.477609  1.744880  2.478643
  N    13.256219  5.694437  2.751490
  N    11.343088  0.916212  1.452725
  N    11.285063  4.618558  1.585248
  N    10.780906  1.266218  5.195856
  N    10.584765  4.987962  5.494932
  S     9.901417  0.825798  3.855252
  S     9.892455  4.422626  4.086217
  S    12.899219  1.325339  0.993473
  S    12.783991  5.170794  1.241459
  S    12.312331  1.856454  5.041712
  S    12.199325  5.524607  5.312101
