16  
    
  C     5.907388 -2.257094  1.807485
  C     6.121316  1.716560  1.922457
  C     4.609249 -2.422293  1.154857
  C     4.758531  1.690086  1.399005
  N     6.970285 -2.126595  0.990274
  N     7.059886  1.497478  0.999768
  N     4.793589 -2.481207 -0.172560
  N     4.623263  1.359216  0.118230
  N     4.109936 -2.322517  3.649622
  N     4.540153  2.077713  3.935547
  S     3.274220 -2.652697  2.247623
  S     3.544365  2.099138  2.594665
  S     6.362734 -2.452059 -0.511651
  S     6.237805  1.091288 -0.426661
  S     5.734962 -2.041511  3.571030
  S     6.189561  1.996920  3.607510
