16  
    
  C    12.412215  1.562465  3.313680
  C    12.347070  5.423896  3.627064
  C    11.242229  1.166682  2.637998
  C    11.180501  4.814850  3.009645
  N    13.405858  1.800964  2.489702
  N    13.314203  5.670893  2.755199
  N    11.336409  0.873188  1.342188
  N    11.252870  4.621204  1.695206
  N    10.601415  1.398887  5.176542
  N    10.590087  4.950038  5.430351
  S     9.879909  0.846688  3.754588
  S     9.922306  4.309194  4.051702
  S    12.881889  1.338452  0.943237
  S    12.794446  5.205219  1.254088
  S    12.222516  1.861466  5.017626
  S    12.107334  5.546264  5.341426
