16  
    
  C    12.872314  1.704039  3.713915
  C    12.948239  5.470568  3.700552
  C    11.675223  1.375811  3.078452
  C    11.632420  5.014754  3.259758
  N    13.896404  1.779593  2.842794
  N    13.888820  5.528798  2.767960
  N    11.687600  1.183931  1.744435
  N    11.679188  4.648624  1.958777
  N    11.213940  1.546508  5.632025
  N    11.318676  5.564741  5.657898
  S    10.366164  1.258157  4.255799
  S    10.379422  5.034046  4.419213
  S    13.243091  1.489323  1.319003
  S    13.188585  4.923192  1.381139
  S    12.839958  1.913248  5.474642
  S    12.860090  6.018371  5.352801
