16  
    
  C     6.252651 -1.790730  2.276638
  C     6.580996  2.154778  2.211440
  C     5.043504 -2.196966  1.586380
  C     5.437037  1.518933  1.578211
  N     7.228255 -1.305732  1.486152
  N     7.517037  2.504245  1.356236
  N     5.188002 -2.130035  0.261800
  N     5.408032  1.533800  0.261993
  N     4.515615 -2.063067  4.065351
  N     4.936545  1.739753  4.112973
  S     3.746095 -2.514398  2.689694
  S     4.172708  1.162874  2.721848
  S     6.693665 -1.602361 -0.039904
  S     6.930422  2.117535 -0.216162
  S     6.148793 -1.716590  4.017258
  S     6.520593  2.278679  3.952008
