16  
    
  C    10.293628  0.382885  2.568604
  C    10.465037  4.233205  2.991151
  C     9.158359 -0.212694  1.913108
  C     9.264297  3.684853  2.448444
  N    11.353302  0.414391  1.788074
  N    11.463399  4.279229  2.131495
  N     9.312916 -0.634644  0.668990
  N     9.316862  3.366773  1.137076
  N     8.359950  0.516001  4.250943
  N     8.754021  4.419918  4.907846
  S     7.742053 -0.182018  2.883170
  S     7.951745  3.918272  3.533872
  S    10.898644 -0.270314  0.357471
  S    10.838752  3.704502  0.709111
  S     9.973558  0.970627  4.205082
  S    10.429378  4.615858  4.746819
