16  
    
  C     4.644387 -2.185821  1.526509
  C     4.673373  1.586860  1.653133
  C     3.312932 -2.374305  0.957900
  C     3.512669  1.088521  0.995868
  N     5.598212 -2.116444  0.628846
  N     5.604749  1.933755  0.769576
  N     3.295122 -2.410354 -0.354544
  N     3.520467  0.959980 -0.301780
  N     2.999819 -2.234908  3.563861
  N     2.787520  1.364659  3.451096
  S     2.030276 -2.109343  2.217842
  S     2.106712  0.941127  1.965648
  S     4.874552 -2.332250 -0.839141
  S     5.037201  1.526747 -0.749366
  S     4.652038 -1.881260  3.248776
  S     4.401797  1.691865  3.328819
