16  
    
  C    11.346124  0.933159  3.227505
  C    11.442389  4.785815  3.098100
  C    10.114751  0.495248  2.637360
  C    10.322191  4.136447  2.483425
  N    12.320532  1.149951  2.353419
  N    12.532959  4.894364  2.294401
  N    10.184027  0.149035  1.344188
  N    10.526058  3.903601  1.186333
  N     9.670903  0.835738  5.172069
  N     9.727007  4.355415  5.011316
  S     8.858832  0.305570  3.800727
  S     9.019012  3.773818  3.626729
  S    11.703819  0.676876  0.882890
  S    12.093381  4.352160  0.798548
  S    11.259086  1.247841  4.859172
  S    11.229658  5.003199  4.845298
