16  
    
  C     9.930435 -0.188948  2.946171
  C    10.198107  3.544376  2.828137
  C     8.730932 -0.558568  2.176784
  C     8.838078  3.459114  2.293889
  N    10.941152  0.130950  2.175073
  N    11.130990  3.540160  1.889691
  N     8.937120 -0.730069  0.883370
  N     8.713710  3.467165  0.968065
  N     8.162323 -0.749844  4.717753
  N     8.574296  3.265434  4.851673
  S     7.368190 -0.898235  3.215213
  S     7.639091  3.417736  3.433362
  S    10.527080 -0.278657  0.624227
  S    10.333922  3.617587  0.405011
  S     9.722760 -0.173404  4.727819
  S    10.246699  3.658427  4.647892
