16  
    
  C    11.645763  1.257793  2.883290
  C    11.815153  5.091104  3.118980
  C    10.359333  0.717783  2.376152
  C    10.649064  4.469967  2.499337
  N    12.623717  1.461607  1.995096
  N    12.843750  5.193401  2.290413
  N    10.444452  0.568648  1.089541
  N    10.824335  4.008025  1.269816
  N    10.116139  0.671204  4.920045
  N    10.189887  4.746689  5.090759
  S     9.171697  0.325728  3.597290
  S     9.411686  4.154140  3.724267
  S    11.977858  0.857758  0.568083
  S    12.329683  4.488814  0.817600
  S    11.654890  1.200612  4.625948
  S    11.657746  5.498878  4.764944
