16  
    
  C    11.021532  0.658680  2.837478
  C    11.049352  4.317304  3.317900
  C     9.846124  0.005467  2.397089
  C     9.841896  3.897148  2.681836
  N    11.956269  0.765708  1.899373
  N    12.072024  4.640536  2.500199
  N     9.859041 -0.251895  1.085333
  N     9.985343  3.704163  1.381230
  N     9.407262  0.442558  4.929756
  N     9.198890  4.081655  5.147723
  S     8.571827 -0.154051  3.578954
  S     8.461114  3.728725  3.702647
  S    11.249280  0.328337  0.443493
  S    11.500669  4.166361  0.945673
  S    10.906171  1.070650  4.590525
  S    10.796744  4.502752  5.048352
