16  
    
  C    10.985594  0.763314  3.324845
  C    11.297477  4.207811  3.235391
  C     9.843472  0.224707  2.562015
  C    10.016533  3.842172  2.676430
  N    12.077724  0.839174  2.561454
  N    12.167391  4.486127  2.257403
  N     9.968954  0.139103  1.246623
  N     9.927842  3.772359  1.332541
  N     9.203682 -0.021338  5.044478
  N     9.573531  3.777152  5.197271
  S     8.539136 -0.329623  3.509461
  S     8.714757  3.489287  3.802261
  S    11.592448  0.545247  0.960878
  S    11.479789  4.142335  0.825922
  S    10.743651  0.645983  5.063597
  S    11.149427  4.291993  4.991859
