16  
    
  C    11.965279  1.473605  3.422251
  C    12.328372  5.141667  3.206182
  C    10.842921  0.780524  2.767456
  C    11.003807  4.824982  2.655226
  N    13.057867  1.529008  2.676067
  N    13.375438  4.994795  2.384025
  N    11.099187  0.454904  1.480675
  N    11.076539  4.373359  1.409792
  N    10.134583  1.155533  5.239236
  N    10.434064  5.373032  5.066509
  S     9.524415  0.702950  3.740857
  S     9.637494  4.819025  3.692299
  S    12.713024  0.830913  1.254508
  S    12.719818  4.473221  0.934544
  S    11.755334  1.611533  5.143938
  S    12.043308  5.693622  4.862747
