16  
    
  C     4.304073 -2.359255  1.807764
  C     4.034620  1.186566  1.242197
  C     3.070326 -2.898518  1.216434
  C     2.923319  0.439373  0.682220
  N     5.243037 -2.159792  0.928035
  N     4.976401  1.523534  0.374063
  N     3.115071 -3.131209 -0.065319
  N     3.132971  0.076750 -0.596973
  N     2.639458 -2.825696  3.751100
  N     2.284956  0.910462  3.187117
  S     1.830213 -3.301037  2.365802
  S     1.713995  0.045708  1.947139
  S     4.690934 -2.740406 -0.566381
  S     4.589758  0.710849 -1.045172
  S     4.030230 -1.961533  3.490109
  S     3.737113  1.694201  2.837652
