16  
    
  C    12.473506  1.528022  3.388228
  C    12.342828  5.345890  3.465183
  C    11.284353  1.127287  2.798574
  C    11.134199  4.751594  2.960641
  N    13.453430  1.818880  2.517111
  N    13.335111  5.561895  2.629554
  N    11.349479  0.902069  1.488875
  N    11.243797  4.485904  1.645585
  N    10.878866  1.151818  5.419672
  N    10.665767  4.957671  5.403136
  S    10.071298  0.842258  4.005279
  S     9.794325  4.568434  4.068934
  S    12.912051  1.316155  1.069512
  S    12.763099  5.091839  1.168807
  S    12.349660  1.841552  5.166955
  S    12.208816  5.486324  5.209357
