16  
    
  C     9.519196 -0.492587  2.785736
  C     9.335237  3.297821  2.515183
  C     8.294655 -0.754834  2.143976
  C     8.117986  3.017331  1.877421
  N    10.586472 -0.518746  1.929817
  N    10.456447  3.233937  1.791043
  N     8.400608 -1.084153  0.842542
  N     8.236634  2.889627  0.558879
  N     7.770359 -0.669331  4.619821
  N     7.530427  3.228888  4.385370
  S     6.945749 -1.022449  3.227932
  S     6.747371  2.964857  2.952752
  S     9.977237 -0.975953  0.447584
  S     9.904457  2.977097  0.236829
  S     9.390552 -0.378043  4.490783
  S     9.159649  3.489627  4.247674
