16  
    
  C    10.975665  0.586854  3.277855
  C    11.179901  4.216175  3.154798
  C     9.838501  0.193324  2.549452
  C     9.953295  3.760119  2.579196
  N    12.040022  0.847716  2.495182
  N    12.231047  4.356283  2.320024
  N    10.058060  0.082379  1.228023
  N    10.006201  3.756604  1.264636
  N     9.278425 -0.071794  5.050393
  N     9.574987  3.793674  5.117879
  S     8.550335 -0.276345  3.593471
  S     8.712102  3.466514  3.748432
  S    11.596419  0.536809  0.944418
  S    11.511795  4.153179  0.757574
  S    10.755069  0.686870  5.033824
  S    11.129092  4.364052  4.932194
