16  
    
  C     8.408688 -0.826185  2.424022
  C     8.240701  2.339284  2.142918
  C     7.178828 -1.195345  1.767554
  C     7.134597  1.967668  1.321821
  N     9.462473 -0.929100  1.661690
  N     9.350730  2.495886  1.465170
  N     7.260697 -1.416654  0.475438
  N     7.413987  1.833427  0.045052
  N     6.541100 -0.577207  4.274127
  N     6.276447  2.146847  3.712050
  S     5.829318 -1.067969  2.870916
  S     5.698865  1.724975  2.201786
  S     8.887634 -1.275102  0.104345
  S     8.969193  2.253847 -0.192491
  S     8.188983 -0.575856  4.230622
  S     7.874470  2.561992  3.848996
