16  
    
  C    11.342142  0.982429  3.263318
  C    11.524625  4.691385  3.058908
  C    10.075525  0.448309  2.688915
  C    10.343123  4.164795  2.389072
  N    12.341318  1.017584  2.385952
  N    12.570165  4.977594  2.257254
  N    10.134117  0.348146  1.367187
  N    10.513041  3.947372  1.104554
  N     9.706559  0.714022  5.188250
  N     9.788081  4.333778  4.886551
  S     8.742859  0.328010  3.877622
  S     9.080675  3.860865  3.449131
  S    11.683269  0.685880  0.902307
  S    12.066114  4.386436  0.751379
  S    11.264845  1.297150  4.937093
  S    11.373548  4.949356  4.756600
