16  
    
  C     4.648327 -2.108510  1.582612
  C     4.500704  1.580894  1.516142
  C     3.338314 -2.093153  1.004644
  C     3.317368  1.119332  0.824993
  N     5.619104 -2.277655  0.694550
  N     5.499445  1.872305  0.686936
  N     3.248433 -2.277870 -0.310662
  N     3.455878  0.900695 -0.499831
  N     3.009636 -1.883427  3.547188
  N     2.800356  1.165082  3.396769
  S     2.099318 -2.151688  2.216259
  S     2.009925  0.662052  1.969034
  S     4.864545 -2.301621 -0.814764
  S     5.006639  1.488453 -0.869812
  S     4.661767 -1.820437  3.285445
  S     4.393575  1.664441  3.269185
