16  
    
  C     8.985735 -0.396320  2.547949
  C     8.937459  3.412410  2.711730
  C     7.759526 -0.855648  1.939020
  C     7.714731  3.055015  2.068749
  N     9.992191 -0.114645  1.682238
  N     9.935995  3.578443  1.838433
  N     7.829396 -0.852666  0.578120
  N     7.752802  2.912723  0.748194
  N     7.294494 -0.726532  4.465835
  N     7.292024  3.157087  4.631623
  S     6.475617 -1.028607  3.059563
  S     6.512069  2.808605  3.219293
  S     9.354138 -0.367137  0.149262
  S     9.280578  3.393365  0.298211
  S     8.890625 -0.313749  4.341821
  S     8.895291  3.522852  4.486790
