16  
    
  C    12.084122  1.283336  3.409573
  C    12.217445  5.127804  3.155567
  C    10.884090  0.807619  2.765046
  C    10.960083  4.788561  2.599571
  N    13.178249  1.160033  2.683019
  N    13.226397  5.124810  2.331128
  N    11.032097  0.526843  1.461215
  N    10.999782  4.330087  1.351299
  N    10.138803  1.417637  5.186205
  N    10.553957  5.291607  5.091493
  S     9.483556  0.733597  3.790122
  S     9.633320  4.901853  3.767396
  S    12.655908  0.782709  1.145987
  S    12.694066  4.451705  0.946876
  S    11.802934  1.648838  5.066011
  S    12.161523  5.549689  4.797216
