16  
    
  C     8.286521 -0.877038  2.465206
  C     8.132904  3.027348  2.334447
  C     7.064831 -1.357267  1.884086
  C     7.019812  2.414979  1.708766
  N     9.323768 -0.878904  1.659637
  N     9.178867  3.244249  1.569750
  N     7.162429 -1.668357  0.608695
  N     7.293698  2.106923  0.464545
  N     6.446895 -0.812248  4.368223
  N     6.385895  2.567665  4.204381
  S     5.678006 -1.474831  3.078085
  S     5.662110  2.089910  2.797880
  S     8.756292 -1.386422  0.180209
  S     8.751601  2.657395  0.065834
  S     8.060376 -0.375173  4.144827
  S     7.922302  3.289309  3.997234
