16  
    
  C     3.314136 -3.310696  1.289077
  C     3.595725  0.595861  1.379891
  C     2.074839 -3.366014  0.545420
  C     2.350487  0.312492  0.686190
  N     4.416492 -2.993601  0.559985
  N     4.605648  0.781732  0.531337
  N     2.279466 -3.159038 -0.765485
  N     2.453328  0.184828 -0.629353
  N     1.442034 -3.447412  3.033838
  N     1.761653  0.400115  3.124548
  S     0.679955 -3.507700  1.556964
  S     0.992621  0.050594  1.711136
  S     3.878328 -2.987830 -1.000969
  S     4.116206  0.424925 -0.962408
  S     3.105212 -3.336148  3.004484
  S     3.419059  0.660500  3.117566
