16  
    
  C    11.953858  1.641377  3.522221
  C    11.968624  5.036222  3.757326
  C    10.981848  0.773980  2.938763
  C    10.712315  4.606040  3.204219
  N    12.895311  2.118017  2.691438
  N    12.903477  5.391249  2.889507
  N    11.087247  0.728627  1.628614
  N    10.678334  4.547971  1.903930
  N    10.429213  0.748081  5.450695
  N    10.552698  4.374205  5.783630
  S     9.665339  0.230423  4.039094
  S     9.666761  4.018746  4.427466
  S    12.492535  1.514549  1.227323
  S    12.166352  5.129780  1.398869
  S    11.891698  1.571353  5.212614
  S    12.084157  4.988103  5.564845
