16  
    
  C     7.102771 -1.198014  2.322564
  C     7.782545  2.826614  2.347390
  C     6.113312 -1.850422  1.519335
  C     6.620947  2.367607  1.621829
  N     8.202069 -0.915269  1.640532
  N     8.814731  3.099860  1.527426
  N     6.340660 -1.820801  0.221400
  N     6.781800  2.144075  0.297990
  N     5.261264 -1.964992  3.924255
  N     5.955751  2.500213  4.185442
  S     4.829572 -2.528548  2.442685
  S     5.289263  2.055296  2.706479
  S     7.887935 -1.246617  0.050746
  S     8.365798  2.686711  0.009056
  S     6.808329 -1.292731  4.039673
  S     7.589336  2.949720  4.100507
