16  
    
  C     7.873881 -0.965709  1.943220
  C     8.039931  2.998727  2.475072
  C     6.652698 -1.397079  1.331001
  C     6.876107  2.507591  1.748170
  N     8.908014 -0.786706  1.148503
  N     9.121649  3.247047  1.696892
  N     6.806609 -1.656240  0.053375
  N     7.045015  2.293974  0.433400
  N     6.011235 -0.851853  3.699050
  N     6.236982  2.385448  4.267641
  S     5.385003 -1.687809  2.438070
  S     5.479480  2.311652  2.802345
  S     8.365300 -1.229571 -0.337053
  S     8.665126  2.869017  0.159453
  S     7.672724 -0.563275  3.590477
  S     7.827597  3.041256  4.182674
