16  
    
  C     5.916405 -2.154361  1.923174
  C     5.640700  1.342418  1.742723
  C     4.649939 -2.414799  1.301701
  C     4.520906  0.768661  1.119735
  N     6.962606 -2.135513  1.061431
  N     6.677118  1.432238  0.926423
  N     4.657379 -2.596050 -0.028219
  N     4.689051  0.441999 -0.164283
  N     4.206628 -2.475732  3.849154
  N     3.872156  1.174179  3.560478
  S     3.309683 -2.605084  2.419988
  S     3.126642  0.663543  2.170655
  S     6.216985 -2.286139 -0.495316
  S     6.200417  0.902641 -0.521832
  S     5.832703 -2.139054  3.658905
  S     5.536894  1.356519  3.473025
