16  
    
  C     5.698409 -2.023575  1.975102
  C     6.008335  1.741282  2.081019
  C     4.605785 -2.690837  1.358818
  C     4.743508  1.413479  1.421008
  N     6.732409 -1.876128  1.119999
  N     7.046628  1.781744  1.262730
  N     4.745266 -2.941066  0.038784
  N     4.794373  1.229692  0.111785
  N     3.926661 -2.387885  3.773266
  N     4.240179  1.900162  3.909226
  S     3.215855 -3.034858  2.379910
  S     3.417154  1.514487  2.536793
  S     6.232816 -2.331274 -0.385032
  S     6.433305  1.482750 -0.300179
  S     5.502337 -1.873825  3.689518
  S     5.913807  1.965038  3.801907
