16  
    
  C    10.641671  0.787211  2.925890
  C    10.630276  4.385072  2.839769
  C     9.468670  0.209069  2.368362
  C     9.596416  3.617142  2.209165
  N    11.646445  0.849490  2.091527
  N    11.677336  4.588627  2.047171
  N     9.644575 -0.194582  1.132323
  N     9.905563  3.117652  0.994321
  N     8.949016  0.704296  4.845591
  N     8.760104  4.446740  4.604900
  S     8.093806  0.250850  3.500713
  S     8.243450  3.444896  3.375438
  S    11.166915  0.159344  0.688049
  S    11.397393  3.826472  0.624156
  S    10.520733  1.225574  4.585683
  S    10.288635  5.089692  4.364609
