16  
    
  C     5.293896 -2.225580  1.521512
  C     4.893464  1.710223  1.861041
  C     4.125722 -2.874153  0.935124
  C     3.859959  0.866056  1.251321
  N     6.358362 -2.075568  0.724809
  N     6.025970  1.715470  1.173293
  N     4.298748 -3.189204 -0.376053
  N     4.174328  0.399539  0.058658
  N     3.423012 -2.252478  3.300974
  N     3.080466  1.687746  3.578354
  S     2.829419 -3.123656  2.061372
  S     2.443316  0.799504  2.243248
  S     5.849867 -2.735746 -0.748190
  S     5.782559  0.868027 -0.224512
  S     5.016076 -1.771147  3.199897
  S     4.610801  2.304617  3.426071
