16  
    
  C    11.989598  1.474103  3.557722
  C    11.905790  4.976523  3.781035
  C    10.969164  0.726534  2.908164
  C    10.678884  4.465891  3.152131
  N    12.929715  1.912504  2.721455
  N    12.815900  5.343314  2.882932
  N    11.008405  0.766431  1.591918
  N    10.658061  4.359458  1.850690
  N    10.450811  0.581813  5.452500
  N    10.398890  4.305752  5.734306
  S     9.696398  0.242184  3.984454
  S     9.528044  3.866028  4.389730
  S    12.428162  1.572157  1.192962
  S    12.156479  4.984085  1.380995
  S    11.953849  1.413562  5.380400
  S    11.880360  5.026355  5.495017
