16  
    
  C     7.118246 -1.700489  1.643250
  C     6.884147  2.075394  1.904289
  C     5.867526 -2.134988  1.029961
  C     5.688599  1.553891  1.285933
  N     8.147440 -1.504692  0.790782
  N     7.830401  2.296935  1.007390
  N     6.007014 -2.363172 -0.283273
  N     5.682054  1.576127 -0.047995
  N     5.367376 -1.769339  3.522179
  N     5.237376  1.625866  3.839458
  S     4.597969 -2.342911  2.201369
  S     4.410108  1.222207  2.466382
  S     7.623335 -2.024429 -0.694430
  S     7.231466  2.074664 -0.481546
  S     7.004340 -1.432686  3.391332
  S     6.795920  2.209790  3.677906
