16  
    
  C     6.318581 -1.639224  1.602288
  C     6.375722  2.128087  1.882715
  C     5.157103 -2.178767  0.922399
  C     5.254754  1.534211  1.241014
  N     7.350718 -1.373483  0.763218
  N     7.365586  2.407879  1.049233
  N     5.308722 -2.362393 -0.406508
  N     5.448656  1.205181 -0.030597
  N     4.432051 -1.786900  3.321532
  N     4.641054  1.838750  3.733908
  S     3.821506 -2.528929  2.010598
  S     3.881980  1.355309  2.344708
  S     6.878401 -1.975701 -0.721057
  S     6.975734  1.722822 -0.377627
  S     5.973719 -1.178381  3.246177
  S     6.140063  2.446076  3.572410
