16  
    
  C     7.271974 -1.440025  2.243237
  C     7.686863  2.793072  2.334587
  C     6.215228 -2.109280  1.473241
  C     6.515840  2.326323  1.624158
  N     8.219211 -0.874526  1.508833
  N     8.738649  2.922998  1.548977
  N     6.461583 -2.201807  0.186243
  N     6.584772  2.289442  0.310379
  N     5.446222 -2.098202  3.965653
  N     6.040857  2.277348  4.131760
  S     4.860259 -2.539378  2.451280
  S     5.212884  2.016130  2.715370
  S     7.833394 -1.298436 -0.058298
  S     8.199945  2.709582 -0.060194
  S     6.903600 -1.404670  3.988783
  S     7.506094  2.963798  4.058467
