16  
    
  C    12.555949  1.557771  3.360711
  C    12.747610  5.561255  3.447664
  C    11.311190  1.040121  2.690981
  C    11.648863  5.014911  2.697707
  N    13.502559  1.967621  2.527963
  N    13.878431  5.714631  2.831499
  N    11.392229  1.086778  1.385322
  N    11.901590  4.868840  1.402777
  N    10.801917  1.132936  5.241071
  N    11.029059  4.903316  5.190330
  S    10.036917  0.616152  3.838086
  S    10.238351  4.545688  3.768123
  S    12.910464  1.690742  0.991207
  S    13.508533  5.292742  1.206383
  S    12.413384  1.583336  5.072780
  S    12.516821  5.556176  5.147053
