16  
    
  C     6.230265 -1.807048  2.299338
  C     6.595075  2.143543  2.212849
  C     5.010573 -2.177846  1.627850
  C     5.424748  1.517332  1.574330
  N     7.205479 -1.290247  1.499804
  N     7.521696  2.497465  1.338437
  N     5.165715 -2.143915  0.281988
  N     5.437367  1.533668  0.258897
  N     4.507532 -2.044960  4.084565
  N     4.936852  1.724839  4.109454
  S     3.745194 -2.525791  2.707888
  S     4.174673  1.188575  2.734335
  S     6.686374 -1.598415 -0.012296
  S     6.921159  2.113055 -0.205865
  S     6.115936 -1.704779  4.033731
  S     6.516776  2.275753  3.968118
