16  
    
  C    12.026738  1.296846  3.304169
  C    11.794891  4.793685  3.596827
  C    10.864651  0.616049  2.681905
  C    10.615694  4.374696  2.866473
  N    13.056592  1.549943  2.510933
  N    12.852610  4.898935  2.880964
  N    11.031798  0.499773  1.374156
  N    10.869354  4.253685  1.559646
  N    10.099501  1.083103  5.154621
  N     9.924450  4.621994  5.321786
  S     9.449918  0.509911  3.713487
  S     9.247421  4.181715  3.875661
  S    12.564596  0.990543  1.012426
  S    12.429186  4.686170  1.321077
  S    11.715810  1.490834  4.937756
  S    11.514931  5.078483  5.323263
