16  
    
  C    12.454492  1.663322  3.397785
  C    12.289413  5.309698  3.562661
  C    11.271920  1.111684  2.753689
  C    11.101235  4.749252  2.919002
  N    13.481795  1.787864  2.543110
  N    13.251505  5.664635  2.720670
  N    11.327234  0.918176  1.430284
  N    11.276738  4.541503  1.570934
  N    10.810923  1.172021  5.327798
  N    10.630842  4.992900  5.488510
  S     9.997274  0.845306  3.915191
  S     9.832697  4.488955  4.087616
  S    12.893774  1.302109  1.015008
  S    12.793486  5.151999  1.202045
  S    12.341841  1.853367  5.050458
  S    12.217172  5.506669  5.244567
