16  
    
  C     6.147591 -1.600128  2.504330
  C     6.580201  2.164021  2.205502
  C     4.982616 -2.102398  1.818134
  C     5.394813  1.614570  1.600723
  N     7.095668 -1.217187  1.614363
  N     7.565020  2.416613  1.354496
  N     5.104620 -2.295091  0.480689
  N     5.487534  1.538967  0.283794
  N     4.451522 -2.215735  4.264045
  N     5.013254  1.624395  4.147718
  S     3.719946 -2.707631  2.839008
  S     4.099534  1.369468  2.801679
  S     6.616193 -1.680631  0.097177
  S     6.972104  2.047498 -0.125621
  S     5.924825 -1.533426  4.214241
  S     6.562151  2.257245  3.947718
