16  
    
  C     6.917874 -1.902821  1.668691
  C     6.655082  2.157275  1.974721
  C     5.677894 -2.288192  1.106757
  C     5.498091  1.522120  1.352057
  N     7.894325 -1.639381  0.757837
  N     7.544935  2.626945  1.128081
  N     5.671797 -2.265903 -0.240188
  N     5.663308  1.340268  0.038546
  N     5.209896 -2.003727  3.625380
  N     5.089283  1.614171  3.954359
  S     4.398929 -2.439265  2.251003
  S     4.304317  1.073838  2.566827
  S     7.206337 -1.864475 -0.721311
  S     7.066910  2.085884 -0.398648
  S     6.865195 -1.706081  3.436909
  S     6.577006  2.336253  3.733000
