16  
    
  C     9.177871 -0.363650  2.490419
  C     9.364758  3.144446  2.616335
  C     7.981988 -1.064448  2.014941
  C     8.099654  2.763756  2.096326
  N    10.131631 -0.271354  1.604015
  N    10.399621  3.206758  1.795978
  N     8.068094 -1.377231  0.746737
  N     8.172068  2.425704  0.811914
  N     7.412037 -0.390469  4.378001
  N     7.621382  3.221255  4.571519
  S     6.660297 -1.161944  3.123718
  S     6.720636  2.953875  3.203888
  S     9.546605 -0.931290  0.192666
  S     9.740407  2.790083  0.328360
  S     9.040543  0.055299  4.164036
  S     9.229746  3.565245  4.271577
