16  
    
  C     6.300893 -1.622380  1.821577
  C     6.416280  2.258821  1.967935
  C     5.132651 -2.169889  1.161443
  C     5.289610  1.625368  1.391659
  N     7.361138 -1.516980  1.063303
  N     7.530832  2.336701  1.204848
  N     5.332243 -2.512556 -0.081615
  N     5.481861  1.353011  0.100633
  N     4.532884 -2.181729  3.638518
  N     4.698115  1.852420  3.899752
  S     3.820038 -2.636642  2.210217
  S     3.918749  1.385243  2.471510
  S     6.917586 -1.985435 -0.495949
  S     7.026912  1.815573 -0.284408
  S     6.046950 -1.452984  3.550580
  S     6.236297  2.491387  3.688807
