16  
    
  C     4.286195 -2.476455  1.746230
  C     4.067709  1.278027  1.408816
  C     3.081531 -3.053548  1.127104
  C     2.849880  0.677553  0.855321
  N     5.314824 -2.294051  0.945002
  N     5.094390  1.421688  0.551736
  N     3.265315 -3.287927 -0.145288
  N     3.021552  0.239873 -0.394996
  N     2.531570 -2.700922  3.663134
  N     2.313785  1.035129  3.328631
  S     1.894688 -3.502007  2.340965
  S     1.663041  0.295098  1.961363
  S     4.774184 -2.681396 -0.630984
  S     4.491017  0.756783 -0.852622
  S     4.088799 -2.114908  3.442085
  S     3.825825  1.679190  3.099156
