16  
    
  C     7.992311 -0.723090  2.405913
  C     8.325105  3.041933  2.322973
  C     6.801167 -1.223954  1.670491
  C     7.047893  2.605947  1.851650
  N     9.006994 -0.420356  1.633625
  N     9.274078  2.991674  1.410988
  N     7.028442 -1.422107  0.404943
  N     7.085347  2.308891  0.565562
  N     6.084440 -1.113171  4.092262
  N     6.754907  2.759624  4.368343
  S     5.506493 -1.773663  2.672956
  S     5.777353  2.676759  3.037475
  S     8.544035 -0.863043  0.123903
  S     8.552332  2.542817 -0.038499
  S     7.715241 -0.498526  4.076136
  S     8.344913  3.233419  4.031095
