16  
    
  C     9.125443 -0.530981  2.515017
  C     9.581041  3.464657  2.787251
  C     7.952975 -1.000360  1.811828
  C     8.298727  3.163957  2.161644
  N    10.218353 -0.510414  1.763655
  N    10.591562  3.386715  1.954381
  N     8.099567 -1.108563  0.475701
  N     8.401191  2.830171  0.880209
  N     7.224610 -0.570372  4.264607
  N     7.816919  3.779490  4.639814
  S     6.530284 -1.205085  2.847021
  S     7.031180  3.371518  3.228647
  S     9.717135 -0.833253  0.232099
  S     9.962912  2.891896  0.494630
  S     8.903173 -0.380635  4.239002
  S     9.438810  4.093930  4.387855
