16  
    
  C     9.367774 -0.505030  2.708993
  C     9.309374  3.263799  2.532284
  C     8.171004 -1.067625  2.115381
  C     8.067195  2.965404  1.915068
  N    10.392108 -0.475544  1.842611
  N    10.364045  3.307130  1.671019
  N     8.265830 -1.242659  0.777962
  N     8.170739  2.624292  0.625506
  N     7.691154 -0.647385  4.620904
  N     7.491602  3.387665  4.415254
  S     6.831733 -1.010562  3.211626
  S     6.692723  2.924205  2.985748
  S     9.809247 -0.928093  0.363563
  S     9.743634  2.823302  0.238367
  S     9.263384 -0.195884  4.391589
  S     9.164013  3.509536  4.336624
