16  
    
  C     7.334354 -1.598514  2.144223
  C     7.443660  2.389399  2.153405
  C     6.167286 -2.154656  1.485880
  C     6.191023  2.042059  1.530787
  N     8.380347 -1.359687  1.357557
  N     8.448984  2.486339  1.307836
  N     6.245372 -2.179244  0.168243
  N     6.226225  1.876488  0.209293
  N     5.531554 -2.070723  4.048019
  N     5.873073  2.073555  4.092682
  S     4.823239 -2.360157  2.611612
  S     4.977162  1.799142  2.731520
  S     7.788690 -1.630070 -0.197995
  S     7.815967  2.272252 -0.251835
  S     7.144269 -1.702701  3.931722
  S     7.420176  2.697590  3.827156
