16  
    
  C    11.277477  0.940127  3.369041
  C    11.580472  4.670199  2.765727
  C    10.018490  0.503811  2.777042
  C    10.287317  4.319845  2.179963
  N    12.220966  1.196374  2.442059
  N    12.555369  4.808825  1.862626
  N    10.057097  0.312811  1.442349
  N    10.372490  4.142760  0.860509
  N     9.577702  0.957097  5.316590
  N     9.890630  4.415305  4.748422
  S     8.730367  0.527930  3.948770
  S     9.073355  3.987707  3.364716
  S    11.567687  0.845978  0.938727
  S    11.912601  4.538530  0.371431
  S    11.184954  1.128006  5.070232
  S    11.462567  4.915601  4.507956
