16  
    
  C    11.357350  1.279310  3.175897
  C    11.409271  4.846227  2.890045
  C    10.135749  0.624829  2.663557
  C    10.258438  4.222396  2.275052
  N    12.335265  1.399317  2.321922
  N    12.341325  5.254447  2.035450
  N    10.195733  0.512067  1.338488
  N    10.460154  4.038720  0.964212
  N     9.858775  0.755254  5.171118
  N     9.586241  4.620415  4.793040
  S     8.979106  0.091636  3.899190
  S     8.995737  3.913083  3.397434
  S    11.702178  1.003674  0.820754
  S    11.947805  4.665713  0.555048
  S    11.360559  1.391181  4.887919
  S    11.199842  5.053004  4.673803
