16  
    
  C     8.416673 -0.880828  2.451144
  C     8.245404  2.508446  2.090280
  C     7.139809 -1.216594  1.881745
  C     7.073776  2.146394  1.340400
  N     9.433767 -0.915183  1.638709
  N     9.392452  2.592493  1.433627
  N     7.206557 -1.499378  0.603987
  N     7.324402  1.931347  0.045598
  N     6.621489 -0.562663  4.295407
  N     6.322812  2.081326  3.781456
  S     5.764588 -1.240792  3.044431
  S     5.605089  1.890004  2.308771
  S     8.818224 -1.408189  0.168753
  S     9.007182  2.168433 -0.110874
  S     8.331301 -0.491509  4.127571
  S     7.878324  2.631961  3.764504
