16  
    
  C     6.492455 -1.737329  2.056496
  C     6.530540  2.260112  2.122573
  C     5.260382 -2.020582  1.395906
  C     5.389095  1.550378  1.507431
  N     7.500856 -1.460873  1.178890
  N     7.521390  2.555813  1.305158
  N     5.332400 -2.133896  0.040771
  N     5.462522  1.454355  0.202100
  N     4.776600 -2.248048  3.906348
  N     4.969788  1.639883  4.063668
  S     3.993862 -2.495963  2.507940
  S     4.224472  1.072665  2.685218
  S     6.849033 -1.702718 -0.343232
  S     6.965983  2.131664 -0.267659
  S     6.366610 -1.829536  3.771627
  S     6.451910  2.312530  3.845529
