16  
    
  C    10.394472  0.716642  2.999610
  C    10.785936  4.387109  2.847532
  C     9.252429 -0.064201  2.450938
  C     9.457074  4.097090  2.328073
  N    11.317040  1.070180  2.107954
  N    11.732327  4.620872  1.931605
  N     9.262772 -0.217929  1.137958
  N     9.449182  3.970626  1.001578
  N     8.738962  0.081251  4.965973
  N     9.018773  4.118656  4.846087
  S     7.944987 -0.374884  3.570390
  S     8.153075  3.904242  3.426848
  S    10.748705  0.438911  0.655078
  S    10.897549  4.442570  0.461755
  S    10.252435  0.712411  4.733557
  S    10.610961  4.576663  4.622373
