16  
    
  C     7.278694 -1.091627  2.066580
  C     7.703899  2.824240  2.199155
  C     6.055277 -1.480161  1.390400
  C     6.527670  2.246793  1.619197
  N     8.342478 -0.832829  1.258094
  N     8.688257  2.938473  1.285837
  N     6.258386 -1.688270  0.073146
  N     6.573255  2.114983  0.282347
  N     5.577953 -1.697690  3.910202
  N     5.993493  2.754249  4.076508
  S     4.819709 -1.941103  2.450445
  S     5.264163  2.039162  2.792918
  S     7.831081 -1.341263 -0.234536
  S     8.103545  2.424389 -0.178405
  S     7.168788 -1.166336  3.812870
  S     7.605145  3.199802  3.903727
