16  
    
  C    10.959981  0.502548  3.228793
  C    11.083067  4.257556  3.372628
  C     9.828375  0.060166  2.468334
  C     9.871073  3.821650  2.750860
  N    11.954822  0.940058  2.480174
  N    12.037157  4.599622  2.538066
  N    10.088253 -0.024228  1.157541
  N     9.904608  3.757295  1.413219
  N     9.097697  0.172400  4.981758
  N     9.412843  3.976843  5.319181
  S     8.411841 -0.213185  3.512067
  S     8.579727  3.492888  3.968246
  S    11.515149  0.739885  0.902664
  S    11.421880  4.205243  0.969300
  S    10.721972  0.607092  4.971822
  S    10.982647  4.450673  5.063076
