16  
    
  C    12.149188  1.411142  3.319078
  C    12.283689  5.195056  3.753131
  C    10.926556  0.979537  2.700628
  C    11.001761  4.854363  3.096853
  N    13.187756  1.600169  2.515760
  N    13.251633  5.220658  2.826241
  N    11.143471  0.591145  1.452609
  N    10.938833  4.736620  1.806783
  N    10.329576  1.158269  5.134971
  N    10.562157  4.933799  5.657452
  S     9.565130  0.735357  3.734362
  S     9.734434  4.647053  4.239823
  S    12.694570  1.050687  1.021199
  S    12.574909  4.892710  1.324977
  S    11.860495  1.678301  5.003544
  S    12.141218  5.379084  5.479486
