16  
    
  C     7.275806 -1.411738  2.239553
  C     7.252181  2.220241  2.068980
  C     6.035818 -1.898213  1.658634
  C     6.006955  1.700740  1.482628
  N     8.266025 -1.335215  1.372994
  N     8.263011  2.346900  1.210603
  N     6.138781 -2.221860  0.397491
  N     6.137606  1.306809  0.210482
  N     5.367752 -1.225715  3.996464
  N     5.567463  2.075215  4.037095
  S     4.707290 -2.082360  2.728844
  S     4.719102  1.597172  2.652697
  S     7.620355 -1.739850 -0.087127
  S     7.714679  1.820896 -0.258835
  S     7.045524 -0.943191  3.937192
  S     7.171803  2.445933  3.810601
