16  
    
  C    10.967778  0.533563  2.963192
  C    10.776978  4.484688  2.801816
  C     9.687986  0.203779  2.387878
  C     9.736330  3.735875  2.178828
  N    11.986918  0.572586  2.107882
  N    11.877147  4.555183  2.011991
  N     9.725419 -0.082124  1.102753
  N     9.994093  3.226303  0.986133
  N     9.108036  0.580867  4.845618
  N     8.809569  4.295609  4.515937
  S     8.300885  0.181710  3.453501
  S     8.395374  3.331688  3.200253
  S    11.311342  0.082572  0.625099
  S    11.542622  3.763053  0.650856
  S    10.638888  1.177744  4.600650
  S    10.311236  4.976205  4.431186
