16  
    
  C     3.199922 -2.864078  1.593168
  C     3.613767  0.582524  1.409875
  C     2.081388 -3.212462  0.773147
  C     2.321982  0.287723  0.792337
  N     4.316128 -2.523742  0.898050
  N     4.590874  0.888120  0.557699
  N     2.368028 -3.118536 -0.559487
  N     2.364501  0.409458 -0.528238
  N     1.380293 -3.553737  3.230136
  N     1.903054  0.119044  3.298774
  S     0.695509 -3.672157  1.758111
  S     1.026073 -0.021098  1.876668
  S     3.967695 -2.823469 -0.648004
  S     3.928374  0.802404 -0.940712
  S     2.964007 -3.070539  3.262556
  S     3.513893  0.687342  3.200182
