16  
    
  C    10.928989  0.616459  3.249944
  C    11.073592  4.307767  3.277892
  C     9.830488  0.024578  2.473867
  C     9.797833  3.868354  2.737760
  N    12.007341  0.942704  2.555110
  N    12.061390  4.552682  2.422757
  N     9.992036  0.087560  1.158047
  N     9.901362  3.707919  1.411085
  N     9.080865  0.185677  5.019353
  N     9.511520  3.926752  5.303399
  S     8.453998 -0.276032  3.535041
  S     8.624384  3.491757  3.946502
  S    11.595933  0.700439  0.945744
  S    11.465596  4.217576  0.972518
  S    10.708588  0.584865  4.992060
  S    11.104789  4.342238  5.053740
