16  
    
  C    12.091950  1.614280  3.285956
  C    12.273854  5.422685  3.576646
  C    11.041750  1.016689  2.579513
  C    11.161091  4.692476  2.929483
  N    13.194829  1.877125  2.598223
  N    13.359362  5.587488  2.846475
  N    11.283514  0.821286  1.302678
  N    11.425824  4.399946  1.690174
  N    10.259099  1.211223  5.023232
  N    10.434742  4.933964  5.394676
  S     9.702548  0.714475  3.599881
  S     9.752110  4.428088  3.911404
  S    12.881781  1.287589  1.086406
  S    12.995058  5.028455  1.340491
  S    11.766062  1.799024  5.054598
  S    11.953011  5.623816  5.240018
