16  
    
  C     9.088191 -0.343514  2.419123
  C     9.358810  3.182506  2.703480
  C     7.895167 -0.918201  1.896215
  C     8.139073  2.772923  2.084938
  N    10.080592 -0.181005  1.528480
  N    10.356797  3.152684  1.829968
  N     8.002481 -1.397177  0.635498
  N     8.194019  2.525915  0.763367
  N     7.352228 -0.345044  4.320176
  N     7.681901  3.225909  4.568535
  S     6.669097 -1.158269  3.033477
  S     6.799435  2.901135  3.192635
  S     9.517184 -0.963205  0.160050
  S     9.769649  2.740273  0.319240
  S     8.906304  0.116788  4.135974
  S     9.311858  3.648746  4.461094
