16  
    
  C     8.367731 -0.866260  2.460583
  C     8.142781  2.950660  2.382508
  C     7.112311 -1.440716  1.991093
  C     7.008930  2.375283  1.683088
  N     9.359906 -0.949714  1.592076
  N     9.153490  3.176865  1.526943
  N     7.114667 -1.767793  0.708901
  N     7.246249  2.070780  0.408430
  N     6.650288 -0.826781  4.422315
  N     6.327341  2.523655  4.119574
  S     5.864847 -1.445133  3.145544
  S     5.645126  2.078923  2.704425
  S     8.668631 -1.550221  0.214791
  S     8.764650  2.487125  0.048690
  S     8.246150 -0.369318  4.133475
  S     7.838750  3.267893  4.089944
