16  
    
  C     6.046528 -2.338119  1.768704
  C     6.076286  1.570217  1.867326
  C     4.767475 -2.637918  1.157835
  C     4.778317  1.597021  1.293875
  N     7.060348 -2.190484  0.960238
  N     7.026207  1.409789  0.939200
  N     4.801093 -2.689018 -0.147678
  N     4.764959  1.607188 -0.048232
  N     4.182125 -2.103146  3.673102
  N     4.481090  2.213157  3.817100
  S     3.367645 -2.463547  2.191004
  S     3.513531  1.987706  2.469867
  S     6.440389 -2.523493 -0.583827
  S     6.292851  1.408208 -0.506627
  S     5.901429 -2.081189  3.516542
  S     6.114139  1.902470  3.565596
