16  
    
  C     7.295301 -1.479502  2.240553
  C     7.688866  2.779329  2.316188
  C     6.200326 -2.104350  1.486141
  C     6.500595  2.314416  1.628912
  N     8.212178 -0.888073  1.498633
  N     8.742155  2.945031  1.523211
  N     6.447198 -2.207806  0.200264
  N     6.542007  2.288959  0.293905
  N     5.440750 -2.105154  3.951930
  N     6.021870  2.264417  4.144638
  S     4.882929 -2.539830  2.444367
  S     5.197392  2.012210  2.722086
  S     7.818374 -1.310054 -0.054961
  S     8.200880  2.700249 -0.069441
  S     6.926406 -1.405229  3.969021
  S     7.506712  2.951804  4.053797
