16  
    
  C    10.159864  0.399124  2.816876
  C    10.670063  4.293345  2.789244
  C     8.920450 -0.053342  2.173813
  C     9.515067  3.752129  2.112345
  N    11.104817  0.774239  1.966045
  N    11.719196  4.515566  2.003912
  N     8.995393 -0.187638  0.840460
  N     9.674223  3.677570  0.785395
  N     8.562934 -0.028625  4.744154
  N     8.999389  3.968283  4.663192
  S     7.713558 -0.416539  3.356088
  S     8.147570  3.709560  3.249989
  S    10.522769  0.442052  0.452139
  S    11.197581  4.179804  0.453861
  S    10.007372  0.765533  4.509778
  S    10.597784  4.535672  4.501645
