16  
    
  C    10.889555  0.601660  2.972479
  C    10.835364  4.341496  2.821726
  C     9.691471  0.129135  2.368053
  C     9.769418  3.590313  2.166354
  N    11.961951  0.449592  2.187180
  N    11.858869  4.652941  2.074043
  N     9.832864 -0.082263  1.040722
  N    10.157187  3.193533  0.937210
  N     9.262997  0.442449  4.896788
  N     8.977799  4.128721  4.582734
  S     8.445138  0.030757  3.521927
  S     8.305849  3.490450  3.190822
  S    11.425558  0.141529  0.685511
  S    11.654208  3.856099  0.638109
  S    10.833308  1.010113  4.650784
  S    10.484907  4.813929  4.439665
