16  
    
  C    11.762207  0.987952  2.822963
  C    11.676856  4.964512  3.166678
  C    10.564634  0.330931  2.369233
  C    10.574274  4.373013  2.483684
  N    12.582363  1.474596  1.891926
  N    12.722801  5.183007  2.330228
  N    10.503816  0.353387  1.059837
  N    10.705277  4.266758  1.173391
  N    10.107677  0.848646  4.881975
  N     9.866291  4.647551  4.899779
  S     9.269141  0.153773  3.587933
  S     9.198088  4.040011  3.491830
  S    11.880717  1.119086  0.436390
  S    12.198439  4.899688  0.822896
  S    11.649215  1.461524  4.504570
  S    11.427849  5.137893  4.859994
