16  
    
  C    12.743566  1.652254  3.347859
  C    12.629548  5.425201  3.230513
  C    11.483223  1.228793  2.750595
  C    11.372650  4.832051  2.707620
  N    13.639559  1.918391  2.451366
  N    13.559861  5.596232  2.284646
  N    11.521927  1.107095  1.437788
  N    11.356578  4.693009  1.431199
  N    11.061143  1.488395  5.283490
  N    11.068045  4.808303  5.205385
  S    10.268526  0.847584  3.926591
  S    10.203623  4.434796  3.896123
  S    13.046248  1.588790  0.966903
  S    12.841933  5.110155  0.871904
  S    12.736195  1.646790  5.142130
  S    12.536563  5.492233  4.992954
