16  
    
  C     8.283865 -0.915063  2.496094
  C     8.106686  3.055511  2.340822
  C     7.029059 -1.327319  1.893690
  C     7.023285  2.404655  1.714847
  N     9.348439 -0.895230  1.653917
  N     9.168047  3.229507  1.595979
  N     7.158744 -1.696746  0.609822
  N     7.282791  2.090453  0.453452
  N     6.498899 -0.806041  4.373371
  N     6.382667  2.527700  4.229052
  S     5.694389 -1.488044  3.066686
  S     5.669301  2.093945  2.777545
  S     8.742225 -1.406554  0.191277
  S     8.760336  2.636501  0.063296
  S     8.103982 -0.354337  4.153481
  S     7.908440  3.287667  3.993143
