16  
    
  C     8.722541 -0.451648  2.488588
  C     8.649465  3.029934  2.607584
  C     7.518070 -0.813999  1.760872
  C     7.371977  2.729304  1.884228
  N     9.755370 -0.298275  1.684942
  N     9.690104  3.069067  1.753639
  N     7.683906 -0.998132  0.458779
  N     7.489012  2.633648  0.557101
  N     6.861821 -0.531977  4.293192
  N     6.782565  2.975434  4.384168
  S     6.169562 -0.991487  2.849617
  S     6.031402  2.483300  3.005924
  S     9.298180 -0.635847  0.118417
  S     9.097635  2.921522  0.242508
  S     8.439110 -0.091546  4.212068
  S     8.411793  3.237494  4.359471
