16  
    
  C     9.740674 -0.146232  2.835305
  C     9.604344  3.872218  2.721558
  C     8.631152 -0.683764  2.110498
  C     8.383504  3.688560  2.017323
  N    10.910260 -0.057263  2.127470
  N    10.687245  3.972377  1.968339
  N     8.840966 -0.819907  0.769497
  N     8.500407  3.531882  0.688584
  N     7.916449 -0.322149  4.566539
  N     7.832917  3.526805  4.581884
  S     7.182716 -0.896721  3.139799
  S     7.093005  3.172878  3.118749
  S    10.459883 -0.377599  0.534243
  S    10.176635  3.639183  0.434893
  S     9.512271  0.047650  4.537767
  S     9.459747  3.836551  4.442489
