16  
    
  C    12.006619  1.457381  3.559274
  C    11.900240  4.975890  3.763279
  C    10.990973  0.729602  2.917285
  C    10.690916  4.440712  3.160884
  N    12.944376  1.907253  2.720378
  N    12.797108  5.321412  2.887227
  N    10.991134  0.788693  1.599174
  N    10.643626  4.323406  1.851718
  N    10.443887  0.584677  5.454147
  N    10.379182  4.314340  5.723118
  S     9.687634  0.234702  3.986303
  S     9.525102  3.867189  4.366612
  S    12.433410  1.567651  1.184550
  S    12.153180  4.982054  1.384651
  S    11.950915  1.400460  5.364501
  S    11.872176  5.029095  5.505983
