16  
    
  C     3.442675 -3.095686  1.023604
  C     3.865421  0.716609  1.442596
  C     2.210492 -3.505346  0.429558
  C     2.651120  0.359884  0.768684
  N     4.512328 -3.057908  0.208006
  N     4.909963  0.848733  0.622555
  N     2.333337 -3.773237 -0.870823
  N     2.776594  0.092943 -0.540611
  N     1.760881 -3.020578  2.904392
  N     2.082370  0.399531  3.296637
  S     1.003238 -3.810545  1.634814
  S     1.285648 -0.009101  1.887073
  S     3.894761 -3.334073 -1.281780
  S     4.331390  0.490473 -0.935117
  S     3.350491 -2.654640  2.663066
  S     3.593840  0.993902  3.148255
