16  
    
  C     4.494271 -2.586817  1.522508
  C     5.192222  1.518681  1.690895
  C     3.242763 -2.820076  0.849999
  C     3.862138  1.336184  1.100376
  N     5.584419 -2.618035  0.711869
  N     6.155353  1.594472  0.807444
  N     3.384564 -2.909212 -0.477467
  N     3.856210  1.282281 -0.215818
  N     2.738246 -2.810837  3.420641
  N     3.476150  1.153625  3.567227
  S     1.885749 -2.816137  1.957628
  S     2.645450  0.782311  2.211510
  S     4.987610 -2.664665 -0.809712
  S     5.437380  1.411568 -0.710273
  S     4.358083 -2.532541  3.263348
  S     5.094564  1.392075  3.399007
