16  
    
  C    12.787607  1.729066  3.652405
  C    12.857080  5.531900  3.729629
  C    11.552316  1.347384  2.957108
  C    11.680083  4.940156  3.197780
  N    13.824485  1.760527  2.862124
  N    13.852499  5.720238  2.870719
  N    11.738579  0.930907  1.706786
  N    11.785511  4.572833  1.927227
  N    10.859176  1.682641  5.450994
  N    11.122553  5.427246  5.693277
  S    10.177830  1.117914  4.027319
  S    10.424658  4.769227  4.322285
  S    13.318107  1.095950  1.386773
  S    13.296378  5.052791  1.415890
  S    12.491268  1.932287  5.371908
  S    12.761173  5.928975  5.452084
