16  
    
  C    10.193777  0.517388  2.899873
  C    10.752603  4.269690  2.857110
  C     8.996779 -0.000013  2.284393
  C     9.522736  4.132922  2.160205
  N    11.145186  1.047883  2.094059
  N    11.881029  4.553061  2.207331
  N     9.047117  0.016613  0.949300
  N     9.743965  4.269858  0.867947
  N     8.554509  0.014498  4.832203
  N     8.934215  3.793299  4.660121
  S     7.828742 -0.634160  3.459629
  S     8.135769  3.700552  3.218977
  S    10.579749  0.667240  0.584695
  S    11.317653  4.669104  0.644331
  S    10.147099  0.371842  4.596127
  S    10.524290  4.269818  4.536123
