16  
    
  C     8.707132 -0.422269  2.430008
  C     8.629490  3.045575  2.605916
  C     7.526019 -0.879015  1.739756
  C     7.367249  2.702535  1.967734
  N     9.830135 -0.398683  1.704498
  N     9.670155  3.263438  1.808121
  N     7.704790 -1.079641  0.424822
  N     7.487425  2.656341  0.660140
  N     6.866142 -0.624813  4.267852
  N     6.803229  2.922606  4.480212
  S     6.092185 -0.957669  2.808374
  S     6.010281  2.497567  3.031052
  S     9.331106 -0.815469  0.171935
  S     9.074920  2.934836  0.242747
  S     8.439191 -0.178154  4.086242
  S     8.439698  3.211019  4.250770
