16  
    
  C     5.412507 -2.230370  1.559015
  C     5.111430  1.605942  1.608447
  C     4.267408 -2.659358  0.774207
  C     4.057885  0.801911  0.984040
  N     6.481696 -1.963065  0.786461
  N     6.160560  1.824972  0.866816
  N     4.519221 -2.866657 -0.540006
  N     4.407062  0.303234 -0.213908
  N     3.487496 -2.480569  3.288753
  N     3.151891  1.861381  3.195091
  S     2.857596 -2.871568  1.786609
  S     2.624929  0.863305  1.864804
  S     6.129938 -2.480632 -0.750404
  S     5.961044  0.930603 -0.509624
  S     5.106845 -1.905498  3.245588
  S     4.727995  2.396016  3.094950
