16  
    
  C     8.080733 -0.675668  2.455670
  C     8.315736  2.968857  2.339441
  C     6.985832 -1.378864  1.862000
  C     7.065354  2.481826  1.769099
  N     9.158822 -0.540603  1.671046
  N     9.316431  3.149654  1.444755
  N     7.167296 -1.633290  0.578532
  N     7.094690  2.182810  0.451885
  N     6.309677 -1.046178  4.260645
  N     6.499552  2.958865  4.186979
  S     5.547763 -1.503102  2.793608
  S     5.737617  2.240094  2.878593
  S     8.674827 -1.120104  0.180264
  S     8.644377  2.703004 -0.006078
  S     7.866141 -0.466064  4.181743
  S     8.058219  3.295394  4.045346
