16  
    
  C     9.767612 -0.691357  2.665693
  C     9.591047  3.321317  2.622543
  C     8.485995 -0.959637  2.065793
  C     8.397596  3.108193  1.896256
  N    10.742758 -0.479396  1.807830
  N    10.601797  3.499012  1.812348
  N     8.530243 -1.102212  0.758073
  N     8.439017  3.137244  0.578486
  N     7.977847 -0.530643  4.584195
  N     7.901846  2.893640  4.430628
  S     7.190897 -0.957257  3.168093
  S     7.044724  2.976934  2.996411
  S    10.056682 -0.648275  0.292118
  S    10.087069  3.401555  0.196484
  S     9.608450 -0.320806  4.412964
  S     9.557064  3.192968  4.426042
