16  
    
  C    10.461888  0.076099  2.708215
  C    10.314064  4.224232  3.105343
  C     9.227662 -0.543814  2.157360
  C     9.006761  3.844501  2.554177
  N    11.486045  0.037361  1.856934
  N    11.310134  4.045705  2.253479
  N     9.374627 -0.923667  0.914712
  N     9.024171  3.511858  1.260440
  N     8.480093  0.266033  4.484640
  N     8.654006  4.193700  5.067645
  S     7.778664 -0.420120  3.168775
  S     7.710488  3.930745  3.720260
  S    10.858914 -0.534700  0.416268
  S    10.633253  3.511789  0.848842
  S    10.115190  0.675974  4.336198
  S    10.219624  4.715523  4.755344
