16  
    
  C     5.457757 -2.151790  1.912414
  C     5.303191  1.634874  1.676450
  C     4.286752 -2.598116  1.175223
  C     4.272109  0.893824  0.933661
  N     6.467561 -1.962103  1.105852
  N     6.310409  2.147798  0.948674
  N     4.425695 -2.695621 -0.109706
  N     4.470243  0.978395 -0.377886
  N     3.628554 -2.675757  3.673536
  N     3.434132  0.904582  3.361627
  S     2.951888 -3.032255  2.226774
  S     2.847997  0.457285  1.812164
  S     5.981290 -2.262340 -0.453883
  S     5.860993  1.775555 -0.633019
  S     5.193194 -2.142195  3.618155
  S     4.952318  1.590001  3.351968
