16  
    
  C     7.200808 -1.323371  2.160372
  C     7.416282  2.195044  2.173973
  C     6.011318 -1.967916  1.629060
  C     6.248414  1.669644  1.559931
  N     8.249818 -1.300416  1.374249
  N     8.489429  2.176672  1.371254
  N     6.212423 -2.446972  0.422368
  N     6.416530  1.374137  0.257349
  N     5.489893 -1.594782  4.078162
  N     5.689474  2.082056  4.051039
  S     4.730548 -2.123523  2.741276
  S     4.906524  1.611074  2.706106
  S     7.763678 -2.005972 -0.048552
  S     7.931741  1.755908 -0.140114
  S     7.059026 -1.018997  3.881593
  S     7.249702  2.630490  3.863740
