16  
    
  C    12.442701  1.700419  3.310458
  C    12.244641  5.327281  3.521801
  C    11.283909  1.121316  2.748908
  C    11.113723  4.718905  2.892583
  N    13.477713  1.749914  2.504962
  N    13.252996  5.694620  2.753387
  N    11.330043  0.917928  1.447237
  N    11.294555  4.604816  1.569010
  N    10.791568  1.240139  5.222093
  N    10.590027  4.990522  5.501488
  S     9.918573  0.828905  3.872772
  S     9.880574  4.440434  4.086745
  S    12.897382  1.318760  0.997323
  S    12.783832  5.164836  1.232352
  S    12.323300  1.855296  5.039360
  S    12.208861  5.521453  5.298570
