16  
    
  C     8.910820 -0.278325  2.553977
  C     8.558068  3.296900  2.527735
  C     7.710542 -0.735572  1.885627
  C     7.348594  2.765056  1.925366
  N     9.935580 -0.077140  1.756983
  N     9.499868  3.683837  1.670670
  N     7.770325 -0.706080  0.594724
  N     7.411447  2.782519  0.606668
  N     7.203985 -0.725021  4.448276
  N     6.913038  2.710114  4.463253
  S     6.363590 -0.898873  3.017207
  S     6.117931  2.159838  3.073234
  S     9.323640 -0.233671  0.245193
  S     8.898223  3.355272  0.172985
  S     8.749658 -0.156056  4.210533
  S     8.452382  3.349202  4.238308
