16  
    
  C     9.723075 -0.620080  2.711123
  C     9.654819  3.235934  2.593952
  C     8.468692 -1.006165  2.115390
  C     8.380166  3.102988  1.942756
  N    10.741077 -0.551119  1.911314
  N    10.705466  3.384023  1.758264
  N     8.528051 -1.040775  0.815780
  N     8.453015  3.059378  0.628994
  N     7.929621 -0.544146  4.573511
  N     7.724365  2.933269  4.428376
  S     7.066572 -0.957176  3.203491
  S     6.958970  3.024648  2.973767
  S    10.108707 -0.755353  0.379793
  S     9.997053  3.308813  0.256421
  S     9.574143 -0.401200  4.442413
  S     9.354400  3.267228  4.303736
