16  
    
  C     4.252723 -2.430180  1.608572
  C     4.097891  1.220918  1.633979
  C     3.148379 -3.210462  1.085102
  C     2.868668  0.721462  1.086977
  N     5.235801 -2.244076  0.770082
  N     5.119783  1.280545  0.793643
  N     3.306242 -3.638720 -0.143142
  N     2.924789  0.496849 -0.211693
  N     2.668819 -2.889324  3.625483
  N     2.342113  1.290694  3.491331
  S     1.823750 -3.348809  2.261469
  S     1.537873  0.856014  2.134930
  S     4.777278 -2.911031 -0.683964
  S     4.442127  0.872236 -0.702960
  S     4.124360 -2.175453  3.355270
  S     4.017557  1.442530  3.328292
