16  
    
  C     4.557648 -2.119081  1.915452
  C     4.096314  1.196807  1.217015
  C     3.402106 -2.687089  1.244711
  C     2.892650  0.705277  0.544840
  N     5.640304 -1.983312  1.184421
  N     5.178695  1.221657  0.423379
  N     3.562909 -2.808061 -0.054989
  N     2.979671  0.600285 -0.804263
  N     2.757631 -2.445500  3.716781
  N     2.245889  0.923595  2.995368
  S     2.050772 -2.923410  2.283083
  S     1.546157  0.444603  1.601466
  S     5.191631 -2.537240 -0.361700
  S     4.614258  0.798728 -1.088988
  S     4.255897 -1.738017  3.569623
  S     3.859927  1.413698  2.904051
