16  
    
  C     5.900817 -2.194986  1.808721
  C     6.125017  1.693942  1.904320
  C     4.626082 -2.474154  1.140521
  C     4.740166  1.722566  1.419960
  N     6.963735 -2.111960  1.035405
  N     7.056482  1.483944  0.975471
  N     4.732860 -2.469778 -0.168086
  N     4.688426  1.347547  0.144728
  N     4.110099 -2.342855  3.622343
  N     4.542343  2.047437  3.917978
  S     3.284545 -2.676552  2.253929
  S     3.535034  2.096960  2.611967
  S     6.343804 -2.434914 -0.499891
  S     6.232073  1.078966 -0.390542
  S     5.696826 -2.034413  3.583009
  S     6.193196  2.030509  3.619308
