16  
    
  C     4.644159 -2.101997  1.587632
  C     4.493844  1.571952  1.517805
  C     3.341178 -2.088853  1.013082
  C     3.304022  1.120155  0.822950
  N     5.625309 -2.274867  0.689398
  N     5.479815  1.868616  0.684563
  N     3.254968 -2.264417 -0.317358
  N     3.441471  0.901136 -0.507579
  N     3.004718 -1.864010  3.547591
  N     2.796104  1.145811  3.397237
  S     2.101944 -2.154981  2.216569
  S     2.004202  0.647438  1.963064
  S     4.864843 -2.305532 -0.808714
  S     5.008710  1.480702 -0.872605
  S     4.665761 -1.815977  3.293501
  S     4.395779  1.660468  3.254261
