16  
    
  C     8.907351 -0.339081  2.539123
  C     8.493880  3.270884  2.570427
  C     7.674775 -0.684497  1.891743
  C     7.332588  2.703108  1.898193
  N     9.929333 -0.038771  1.734073
  N     9.461107  3.577816  1.718169
  N     7.773868 -0.708417  0.531212
  N     7.442993  2.713373  0.563844
  N     7.181124 -0.741851  4.476212
  N     6.869905  2.741350  4.440143
  S     6.340939 -0.907740  3.035821
  S     6.166413  2.153136  3.056695
  S     9.317182 -0.207136  0.208194
  S     8.903466  3.344200  0.170042
  S     8.745751 -0.141225  4.249138
  S     8.408212  3.360839  4.241650
