16  
    
  C     4.538570 -2.510450  1.495590
  C     5.221650  1.499339  1.697837
  C     3.268204 -2.762620  0.849900
  C     3.966749  1.074994  1.156823
  N     5.563940 -2.409444  0.688901
  N     6.239284  1.635507  0.821370
  N     3.339892 -2.768436 -0.471414
  N     3.995846  0.994134 -0.182624
  N     2.732572 -2.759535  3.330768
  N     3.650685  1.361675  3.650873
  S     1.944580 -3.142082  1.944845
  S     2.657113  1.176956  2.362732
  S     4.945869 -2.447687 -0.891684
  S     5.490402  1.452386 -0.622521
  S     4.387794 -2.709457  3.236652
  S     5.226347  1.676704  3.367461
