16  
    
  C     7.087129 -1.694836  1.622899
  C     6.853856  2.080480  1.923317
  C     5.869849 -2.100438  0.991869
  C     5.610354  1.621835  1.329816
  N     8.115505 -1.564713  0.798133
  N     7.833489  2.360784  1.090065
  N     5.987270 -2.417306 -0.316676
  N     5.635199  1.474560  0.024410
  N     5.375253 -1.769278  3.550508
  N     5.193853  1.682352  3.833686
  S     4.586942 -2.379325  2.216185
  S     4.429076  1.153856  2.456770
  S     7.515478 -1.993314 -0.731930
  S     7.151538  2.083907 -0.488941
  S     6.987824 -1.533332  3.327368
  S     6.741486  2.228396  3.650318
