16  
    
  C     7.873749 -0.950937  1.941295
  C     8.082688  3.039581  2.461277
  C     6.655049 -1.362445  1.338801
  C     6.906223  2.519239  1.767739
  N     8.898203 -0.734045  1.169713
  N     9.155580  3.220421  1.698396
  N     6.820858 -1.669616  0.093445
  N     7.035258  2.317473  0.461626
  N     6.022924 -0.865046  3.717938
  N     6.260827  2.406973  4.279966
  S     5.386211 -1.704815  2.422995
  S     5.479004  2.316879  2.836560
  S     8.362429 -1.218431 -0.301248
  S     8.671003  2.878778  0.141717
  S     7.672523 -0.575823  3.593390
  S     7.860505  3.026202  4.187138
