16  
    
  C     5.376733 -2.130587  1.527346
  C     5.054711  1.833231  1.568956
  C     4.266452 -2.791171  0.859302
  C     4.027981  0.883676  1.128434
  N     6.520809 -1.986432  0.795518
  N     6.183243  1.821000  0.834595
  N     4.503021 -3.093018 -0.436746
  N     4.413696  0.254707  0.034664
  N     3.536631 -2.428429  3.252054
  N     3.073129  1.874082  3.264648
  S     2.851929 -2.918139  1.839053
  S     2.556180  0.872008  2.043514
  S     5.997012 -2.460843 -0.769896
  S     5.896325  0.788388 -0.417994
  S     5.052351 -1.830955  3.170702
  S     4.637386  2.347240  3.194407
