16  
    
  C     5.678783 -2.075933  2.049097
  C     5.928519  1.551900  1.985880
  C     4.514398 -2.703510  1.488761
  C     4.720833  1.124814  1.291433
  N     6.726865 -1.845148  1.241580
  N     6.936089  1.952228  1.210925
  N     4.666897 -2.926218  0.190213
  N     4.885375  1.109490 -0.036294
  N     3.940676 -2.318466  3.900351
  N     4.144052  0.996261  3.798818
  S     3.208557 -2.968472  2.558039
  S     3.397316  0.677735  2.359686
  S     6.245465 -2.470816 -0.226072
  S     6.455994  1.613147 -0.355752
  S     5.486797 -1.830846  3.778048
  S     5.694262  1.641218  3.701893
