16  
    
  C     8.301962 -0.913423  2.499019
  C     8.108410  3.060466  2.322313
  C     7.058614 -1.360153  1.916598
  C     7.001155  2.358497  1.670257
  N     9.299688 -0.949233  1.684374
  N     9.189271  3.216403  1.561355
  N     7.125495 -1.725588  0.666298
  N     7.178640  2.033704  0.399729
  N     6.609866 -0.807059  4.391492
  N     6.418488  2.491141  4.206795
  S     5.785624 -1.491568  3.041201
  S     5.677117  2.098435  2.732121
  S     8.692498 -1.466850  0.228152
  S     8.785561  2.580116  0.088247
  S     8.201860 -0.332811  4.149766
  S     7.850472  3.284594  4.067682
