16  
    
  C    11.337867  0.671926  2.951913
  C    11.062323  4.489210  3.608677
  C    10.340898 -0.022383  2.202564
  C     9.829200  4.023262  3.043283
  N    12.492777  0.884759  2.361552
  N    12.049470  4.535407  2.756169
  N    10.779786 -0.362516  1.019617
  N     9.837451  3.843027  1.689036
  N     9.333453  0.332851  4.600925
  N     9.381408  4.608357  5.524232
  S     8.784235 -0.171110  3.155945
  S     8.505016  4.140074  4.171554
  S    12.353911  0.212637  0.815462
  S    11.432329  4.094028  1.276876
  S    10.922295  0.795877  4.622756
  S    10.980422  5.078478  5.213434
