16  
    
  C     9.993709 -0.040733  2.717100
  C     9.806231  4.190112  2.730990
  C     8.813498 -0.537429  1.998389
  C     8.890877  3.159460  2.208487
  N    10.989864  0.255678  1.870401
  N    10.838168  4.354493  1.904100
  N     9.007093 -0.788084  0.695089
  N     9.200487  2.685186  1.000011
  N     8.222336 -0.310169  4.509050
  N     7.994554  3.662031  4.538558
  S     7.523964 -0.950722  3.092667
  S     7.674884  2.637271  3.250586
  S    10.519808 -0.173814  0.311152
  S    10.623572  3.388125  0.610319
  S     9.825053  0.164473  4.428796
  S     9.453054  4.487179  4.507187
