16  
    
  C     8.140186 -0.773112  2.520496
  C     8.245394  2.956921  2.358103
  C     6.973476 -1.332425  1.844485
  C     7.079197  2.400087  1.750366
  N     9.157794 -0.600951  1.672100
  N     9.205954  3.180196  1.485470
  N     7.151544 -1.688932  0.564223
  N     7.189477  2.220370  0.448426
  N     6.309851 -0.974908  4.233597
  N     6.363448  2.933944  4.197811
  S     5.605276 -1.484044  2.823234
  S     5.787494  2.189679  2.833220
  S     8.679185 -1.184663  0.225943
  S     8.645508  2.705909 -0.021368
  S     7.954743 -0.434376  4.200001
  S     8.033847  3.291481  4.076270
