16  
    
  C    10.640210  0.826194  2.943592
  C    10.620296  4.465459  2.788510
  C     9.412969  0.212521  2.411169
  C     9.542551  3.591237  2.319838
  N    11.654379  0.926101  2.097232
  N    11.686098  4.669525  1.998055
  N     9.480061 -0.180931  1.160613
  N     9.834153  3.172584  1.101304
  N     8.893948  0.615840  4.911987
  N     8.842594  4.355262  4.649683
  S     8.058971  0.159876  3.540585
  S     8.131309  3.610186  3.335011
  S    11.071485  0.188449  0.685681
  S    11.273318  3.850341  0.602406
  S    10.426559  1.217065  4.638201
  S    10.315875  5.063782  4.385947
