16  
    
  C    11.376748  1.216439  3.175919
  C    11.409705  4.839152  2.898331
  C    10.217367  0.621164  2.638875
  C    10.280750  4.229223  2.312967
  N    12.336834  1.466329  2.279767
  N    12.366184  5.287403  2.048177
  N    10.197519  0.445888  1.331745
  N    10.454231  4.052894  0.983998
  N     9.871016  0.794736  5.111827
  N     9.566712  4.642530  4.781500
  S     9.038448  0.074207  3.848727
  S     8.982503  3.898379  3.396536
  S    11.684671  1.032470  0.842298
  S    11.958214  4.699442  0.591016
  S    11.391369  1.408365  4.880006
  S    11.172859  5.060260  4.696549
