16  
    
  C     8.946786 -0.210195  2.555211
  C     8.676625  3.422490  2.562836
  C     7.742947 -0.707380  1.927813
  C     7.427475  2.946390  1.955863
  N     9.966266 -0.085896  1.720177
  N     9.591220  3.765956  1.672386
  N     7.816663 -0.760272  0.604183
  N     7.447742  2.774709  0.622613
  N     7.160234 -0.541461  4.452842
  N     7.125255  2.795380  4.545133
  S     6.433912 -0.977115  3.031311
  S     6.224311  2.538124  3.156079
  S     9.399204 -0.387262  0.156917
  S     8.937625  3.476327  0.198953
  S     8.796345 -0.277316  4.317737
  S     8.708915  3.290253  4.310890
