16  
    
  C    12.626334  1.564241  3.794971
  C    12.426166  5.020964  3.418092
  C    11.416570  1.339608  3.104614
  C    11.171797  4.577068  2.773981
  N    13.616589  1.720593  2.929640
  N    13.475511  5.171055  2.629003
  N    11.455736  1.105589  1.785866
  N    11.348180  4.376933  1.471123
  N    10.867459  1.183767  5.683374
  N    10.509094  4.972008  5.193362
  S    10.003982  1.243203  4.228745
  S     9.803149  4.347127  3.845929
  S    13.105481  1.309502  1.441378
  S    12.852613  4.781461  1.105736
  S    12.482911  1.801981  5.549066
  S    12.127213  5.129456  5.153374
