16  
    
  C    10.384954  0.649730  3.017541
  C    10.614222  4.344957  2.822795
  C     9.255057 -0.022485  2.449657
  C     9.376921  3.923047  2.247403
  N    11.402499  0.868958  2.166820
  N    11.619545  4.533481  1.963736
  N     9.277999 -0.234635  1.112901
  N     9.394859  3.900390  0.923426
  N     8.745702  0.329474  4.991202
  N     8.962644  4.470227  4.764803
  S     8.016850 -0.277140  3.601177
  S     8.153475  3.770752  3.470406
  S    10.787610  0.432281  0.680896
  S    10.976188  4.248339  0.516987
  S    10.304164  0.926368  4.771581
  S    10.576055  4.823163  4.536994
