16  
    
  C     9.952108 -0.047459  2.974173
  C    10.247351  3.484695  2.893019
  C     8.809994 -0.598314  2.273748
  C     8.903654  3.640469  2.374659
  N    11.027950  0.122629  2.229315
  N    11.202482  3.506364  1.958419
  N     8.949341 -0.676675  0.983491
  N     8.855162  3.738109  1.049829
  N     8.046395 -0.653166  4.662279
  N     8.548184  3.362163  4.853006
  S     7.416024 -0.992297  3.184761
  S     7.615078  3.594132  3.564365
  S    10.507219 -0.210851  0.639790
  S    10.409865  3.640662  0.509195
  S     9.663889 -0.207454  4.717387
  S    10.163679  3.440903  4.600957
