16  
    
  C    12.865317  1.572743  3.579974
  C    12.284495  4.961227  3.456881
  C    11.560643  1.334744  2.961981
  C    11.152242  4.524234  2.659316
  N    13.895684  1.577461  2.708364
  N    13.416092  5.219372  2.726904
  N    11.632872  1.054212  1.635791
  N    11.427030  4.396875  1.337975
  N    10.983276  1.876924  5.436337
  N    10.446227  4.391038  5.098987
  S    10.202200  1.361886  4.043429
  S     9.764019  4.238131  3.580632
  S    13.242966  1.277377  1.236553
  S    12.962476  4.828613  1.141807
  S    12.670920  1.880018  5.244472
  S    11.962648  5.175515  5.169930
