16  
    
  C     7.276066 -1.404731  2.237298
  C     7.248569  2.217213  2.065093
  C     6.041778 -1.904307  1.658776
  C     6.001494  1.708614  1.482650
  N     8.259405 -1.337134  1.371364
  N     8.261653  2.346810  1.198587
  N     6.136182 -2.218132  0.397887
  N     6.139312  1.313145  0.209500
  N     5.361054 -1.221869  3.996912
  N     5.560319  2.072774  4.040985
  S     4.703034 -2.079770  2.730466
  S     4.712548  1.595529  2.653925
  S     7.621576 -1.734556 -0.090886
  S     7.712098  1.821823 -0.257200
  S     7.045977 -0.948360  3.940839
  S     7.170129  2.446058  3.808050
