16  
    
  C    12.655217  1.646809  3.733962
  C    12.257431  4.971578  3.426795
  C    11.395519  1.319062  3.118659
  C    11.142875  4.471353  2.719312
  N    13.777592  1.596522  2.997887
  N    13.335798  5.199936  2.697343
  N    11.553926  1.193638  1.805770
  N    11.333966  4.314534  1.410466
  N    10.897836  1.446531  5.586037
  N    10.468364  4.880308  5.183922
  S    10.014434  1.310395  4.220952
  S     9.794257  4.267242  3.787657
  S    13.139424  1.339987  1.401944
  S    12.973555  4.796232  1.161869
  S    12.487912  1.803547  5.477000
  S    12.136781  5.096634  5.142121
