16  
    
  C    10.158547  0.539261  2.598399
  C    10.590809  4.248547  2.871142
  C     9.043270 -0.152564  2.007117
  C     9.368400  3.845846  2.275639
  N    11.223454  0.626504  1.836123
  N    11.597161  4.285136  2.002121
  N     9.205920 -0.444555  0.733818
  N     9.390697  3.584818  0.984536
  N     8.331408  0.566668  4.381017
  N     8.964573  4.151798  4.803001
  S     7.675311 -0.261799  3.076612
  S     8.155758  3.763561  3.441983
  S    10.795411  0.056225  0.306676
  S    10.957625  3.761458  0.524842
  S     9.970508  0.883166  4.311698
  S    10.559815  4.670205  4.618181
