16  
    
  C     4.196992 -2.718584  1.552519
  C     4.260425  1.240656  1.714476
  C     2.948096 -3.292405  1.048708
  C     2.941186  1.295547  1.097003
  N     5.170487 -2.566904  0.677671
  N     5.237800  1.092812  0.807090
  N     3.118823 -3.734849 -0.203625
  N     2.908677  0.976297 -0.186056
  N     2.538634 -2.513056  3.479993
  N     2.515224  1.546551  3.651014
  S     1.645919 -3.134235  2.185684
  S     1.711337  1.556463  2.233228
  S     4.580685 -3.171399 -0.692053
  S     4.528087  0.938866 -0.652965
  S     4.170241 -2.199286  3.199885
  S     4.171147  1.517624  3.447068
