16  
    
  C     8.435223 -0.994500  2.465803
  C     8.257512  2.348053  2.104694
  C     7.199425 -1.234161  1.732853
  C     7.151473  1.849067  1.337746
  N     9.528834 -0.871117  1.699718
  N     9.350361  2.644559  1.426059
  N     7.370843 -1.331166  0.412875
  N     7.455970  1.777342  0.038785
  N     6.510142 -0.958117  4.139418
  N     6.213892  2.261492  3.694365
  S     5.741002 -0.979437  2.679462
  S     5.677002  1.685076  2.239526
  S     8.986707 -1.101910  0.142356
  S     8.944222  2.353709 -0.213369
  S     8.186207 -0.704878  4.122101
  S     7.881699  2.489783  3.711045
