16  
    
  C    10.274239 -0.263571  2.897525
  C    10.324875  3.951322  3.129874
  C     8.978503 -0.410917  2.175088
  C     9.040589  3.797253  2.467810
  N    11.239049 -0.010953  2.050256
  N    11.354415  3.809934  2.278545
  N     9.051134 -0.410187  0.862322
  N     9.095200  3.701868  1.153092
  N     8.428354 -0.513596  4.667387
  N     8.537287  4.081612  5.025250
  S     7.627876 -0.539058  3.182291
  S     7.761796  3.927777  3.519075
  S    10.664845 -0.097324  0.436733
  S    10.706570  3.716500  0.737271
  S    10.079558 -0.091668  4.668235
  S    10.197817  4.092473  4.921059
