16  
    
  C     8.494276 -1.055181  2.356054
  C     8.218347  2.719626  2.042172
  C     7.250998 -1.295628  1.606672
  C     7.008786  2.289654  1.330236
  N     9.536727 -0.865118  1.589808
  N     9.299022  2.745733  1.290487
  N     7.415400 -1.441248  0.321561
  N     7.213428  2.170291  0.041427
  N     6.635288 -1.171936  4.166884
  N     6.441493  2.350043  3.853918
  S     5.999925 -1.682464  2.724339
  S     5.703314  1.976018  2.389428
  S     9.035594 -1.111321  0.042105
  S     8.779225  2.523436 -0.297273
  S     8.296388 -0.934065  4.093733
  S     8.054503  2.920623  3.751358
