16  
    
  C    11.462714  1.344502  2.977375
  C    11.426392  4.953690  3.137471
  C    10.394033  0.488199  2.478543
  C    10.340858  4.364643  2.371430
  N    12.352152  1.747983  2.080390
  N    12.469886  5.292463  2.373427
  N    10.529368  0.235813  1.207419
  N    10.534572  4.410440  1.040643
  N    10.133394  0.672952  5.027906
  N     9.591356  4.350251  4.847170
  S     9.293515  0.073664  3.683119
  S     8.957246  3.941382  3.385489
  S    11.852628  1.060133  0.652994
  S    12.069520  4.937754  0.764279
  S    11.513977  1.568422  4.658497
  S    11.074640  5.079825  4.828332
