16  
    
  C    10.997577  0.550843  3.279535
  C    11.164620  4.207057  3.133055
  C     9.839695  0.180126  2.540199
  C     9.932455  3.759728  2.566782
  N    12.045406  0.862254  2.485726
  N    12.233735  4.339985  2.333936
  N    10.060388  0.064657  1.216233
  N    10.013683  3.742612  1.242634
  N     9.287005 -0.074758  5.052775
  N     9.570542  3.802649  5.101528
  S     8.543811 -0.268092  3.612864
  S     8.711250  3.460683  3.734372
  S    11.595256  0.534203  0.943213
  S    11.522009  4.155084  0.752130
  S    10.760985  0.692854  5.016396
  S    11.122877  4.378765  4.913278
