16  
    
  C     9.129238 -0.559080  2.509046
  C     9.608507  3.537828  2.738073
  C     7.947302 -0.827924  1.760489
  C     8.283241  3.208161  2.120213
  N    10.207495 -0.454292  1.770579
  N    10.614660  3.249185  1.922883
  N     8.152791 -1.117758  0.480546
  N     8.326389  2.832319  0.840423
  N     7.166904 -0.665236  4.191922
  N     7.846920  3.676066  4.598609
  S     6.566401 -1.133372  2.728800
  S     6.939022  3.393585  3.234250
  S     9.757414 -0.939265  0.230219
  S     9.972076  2.889495  0.444981
  S     8.770373 -0.319101  4.200835
  S     9.480582  4.111539  4.439274
