16  
    
  C     9.792422 -0.196939  2.547089
  C     9.742697  3.664618  2.550656
  C     8.563282 -0.666089  2.036674
  C     8.534844  3.076077  1.932788
  N    10.691861  0.175238  1.608287
  N    10.694001  4.003491  1.698360
  N     8.410487 -0.628483  0.677899
  N     8.622389  3.033369  0.605831
  N     8.289310 -0.639659  4.565512
  N     8.304156  2.997761  4.508528
  S     7.322664 -0.942998  3.247744
  S     7.324772  2.649070  3.157411
  S     9.897850 -0.006903  0.137150
  S    10.117966  3.672734  0.133300
  S     9.814012 -0.050780  4.254038
  S     9.700297  3.912391  4.252245
