16  
    
  C    11.330916  0.907925  2.996266
  C    11.234311  4.714540  3.408244
  C    10.172885  0.290553  2.330988
  C    10.146443  3.947412  2.876937
  N    12.404742  0.999750  2.275183
  N    12.232728  4.867955  2.540003
  N    10.336393  0.110901  1.041698
  N    10.337892  3.514603  1.608198
  N     9.588336  0.794682  4.836676
  N     9.445784  4.549211  5.361174
  S     8.914871  0.061740  3.515177
  S     8.753084  3.827270  4.008432
  S    11.995665  0.510922  0.774527
  S    11.780788  4.233988  1.122164
  S    11.175931  1.274163  4.697121
  S    10.974517  5.126641  5.079459
