16  
    
  C     9.981136 -0.052208  2.674733
  C     9.924983  3.855690  2.745313
  C     8.748656 -0.484541  2.030218
  C     9.002987  2.804720  2.258210
  N    11.003484  0.190640  1.832814
  N    10.916331  4.172424  1.921764
  N     8.876867 -0.679088  0.692432
  N     9.212767  2.471457  0.991855
  N     8.349218 -0.454208  4.586829
  N     8.459367  3.409353  4.714571
  S     7.509504 -0.722932  3.208066
  S     7.812904  2.497437  3.492230
  S    10.459877 -0.221365  0.327950
  S    10.586781  3.430890  0.473466
  S     9.932278  0.125751  4.396826
  S     9.571474  4.563725  4.314580
