16  
    
  C    10.198015 -0.267107  2.851219
  C    10.347255  3.844828  3.165261
  C     8.973410 -0.438455  2.156380
  C     9.121154  3.927836  2.447914
  N    11.241366 -0.027373  2.063788
  N    11.350353  3.801044  2.315449
  N     9.072046 -0.380876  0.834186
  N     9.156604  3.830645  1.113857
  N     8.392823 -0.564839  4.636980
  N     8.494181  3.958885  4.979427
  S     7.557206 -0.547355  3.202785
  S     7.745494  3.897165  3.495404
  S    10.649782 -0.027990  0.515679
  S    10.727400  3.671169  0.742512
  S    10.014860 -0.160008  4.614978
  S    10.203737  3.997763  4.945308
