16  
    
  C     8.427246 -0.891896  2.460960
  C     8.259095  2.508504  2.083797
  C     7.137107 -1.178738  1.857437
  C     7.092976  2.128087  1.338131
  N     9.425598 -0.912128  1.629080
  N     9.407047  2.565931  1.422736
  N     7.223016 -1.491856  0.595308
  N     7.322343  1.916135  0.040786
  N     6.607069 -0.553216  4.295804
  N     6.297816  2.079163  3.792522
  S     5.764526 -1.226217  3.032225
  S     5.611792  1.868399  2.294565
  S     8.834854 -1.396790  0.153343
  S     9.003911  2.182111 -0.101249
  S     8.313931 -0.500342  4.141958
  S     7.880641  2.619772  3.759942
