16  
    
  C     8.490413 -1.041557  2.363541
  C     8.229270  2.720026  2.032058
  C     7.248369 -1.286358  1.618521
  C     7.011064  2.296145  1.329249
  N     9.536428 -0.867924  1.591442
  N     9.315402  2.747003  1.281365
  N     7.414976 -1.420513  0.332256
  N     7.219444  2.161824  0.036333
  N     6.635025 -1.168790  4.160910
  N     6.435977  2.341632  3.841993
  S     5.990686 -1.667851  2.706522
  S     5.697096  1.966290  2.385341
  S     9.031178 -1.117583  0.050334
  S     8.779873  2.510288 -0.291331
  S     8.289841 -0.933697  4.089037
  S     8.038762  2.899793  3.747888
