16  
    
  C     9.820959 -0.223758  2.504480
  C     9.841027  3.623969  2.539542
  C     8.492309 -0.606259  2.036157
  C     8.602214  3.094634  1.973061
  N    10.673722  0.116818  1.533906
  N    10.782027  3.932283  1.613223
  N     8.470644 -0.657068  0.700598
  N     8.580427  3.130382  0.647421
  N     8.265399 -0.672584  4.543760
  N     8.224215  2.978154  4.484998
  S     7.290916 -0.972472  3.207294
  S     7.346194  2.677378  3.151457
  S     9.903904 -0.224014  0.092442
  S    10.038253  3.694241  0.190222
  S     9.823921 -0.081039  4.263214
  S     9.657913  3.700039  4.188818
