16  
    
  C    10.270537  0.339413  2.585075
  C    10.546938  4.262260  2.876917
  C     9.112812 -0.200297  1.956383
  C     9.302813  3.790246  2.370135
  N    11.305845  0.582104  1.777178
  N    11.588132  4.278913  2.025970
  N     9.366086 -0.607916  0.713049
  N     9.381846  3.425706  1.106034
  N     8.330541  0.533455  4.337255
  N     8.907365  4.193099  4.918499
  S     7.618772 -0.150243  3.019110
  S     7.962790  3.882046  3.588241
  S    10.847036 -0.025403  0.309858
  S    10.991640  3.764623  0.594836
  S     9.948461  0.927299  4.192316
  S    10.503136  4.607018  4.564087
