16  
    
  C    11.107023  0.505227  3.120177
  C    11.107701  4.277951  2.973115
  C     9.871089  0.001555  2.482826
  C     9.922920  3.724109  2.336962
  N    12.061592  0.796360  2.274498
  N    12.133133  4.517226  2.122903
  N     9.931055 -0.245254  1.190615
  N    10.077545  3.471261  1.050102
  N     9.309914  0.374016  4.993527
  N     9.161021  4.162624  4.734560
  S     8.600078 -0.182398  3.582684
  S     8.577781  3.400359  3.370774
  S    11.448310  0.375516  0.742766
  S    11.621191  3.983031  0.639317
  S    10.930609  0.674409  4.912629
  S    10.796727  4.522759  4.736693
