16  
    
  C    12.095508  1.256642  3.453712
  C    12.222658  5.143600  3.186118
  C    10.874341  0.758360  2.749771
  C    10.958125  4.759201  2.652197
  N    13.183148  1.108575  2.699025
  N    13.269300  5.119727  2.306333
  N    11.011044  0.536873  1.417139
  N    11.029580  4.341822  1.408799
  N    10.162097  1.434305  5.162098
  N    10.534885  5.291993  5.125461
  S     9.525660  0.748017  3.774053
  S     9.628635  4.901652  3.776318
  S    12.627094  0.794658  1.138101
  S    12.677091  4.470407  0.931538
  S    11.807027  1.669159  5.064158
  S    12.161810  5.533859  4.806401
