16  
    
  C     4.580535 -2.681830  1.547985
  C     5.099859  1.413890  1.685839
  C     3.303555 -2.758568  0.863760
  C     3.808885  1.258893  1.119257
  N     5.641590 -2.597476  0.780624
  N     6.130582  1.542576  0.842249
  N     3.387558 -2.874848 -0.433987
  N     3.851610  1.331417 -0.199379
  N     2.733454 -2.759024  3.420566
  N     3.451852  1.073654  3.639129
  S     1.930303 -2.809831  1.989244
  S     2.571225  0.721131  2.199981
  S     5.034703 -2.756518 -0.794689
  S     5.448068  1.478338 -0.651855
  S     4.374751 -2.434140  3.248568
  S     5.103120  1.399146  3.414201
