16  
    
  C     4.102204 -2.892321  1.615926
  C     4.168153  1.267903  1.560356
  C     2.878156 -3.287909  0.926225
  C     2.865401  0.998621  0.964802
  N     5.166988 -2.880356  0.830699
  N     5.195750  1.278626  0.714934
  N     2.969642 -3.425079 -0.371375
  N     2.906003  0.925534 -0.362139
  N     2.138983 -2.635780  3.349126
  N     2.448887  1.303363  3.515207
  S     1.510698 -3.389089  2.008064
  S     1.632390  0.994046  2.107312
  S     4.643929 -3.287927 -0.751270
  S     4.463266  1.039936 -0.793745
  S     3.791995 -2.308740  3.233167
  S     4.105679  1.654252  3.234854
