16  
    
  C     5.929259 -2.210126  1.669948
  C     5.330041  1.356790  1.719398
  C     4.627068 -2.624856  1.124968
  C     4.052729  0.886777  1.159680
  N     6.820876 -2.036034  0.717470
  N     6.334900  1.334507  0.843194
  N     4.502821 -2.673858 -0.186026
  N     4.104108  0.740833 -0.170748
  N     4.280701 -2.320233  3.668986
  N     3.645492  1.211691  3.675845
  S     3.383612 -2.558307  2.335226
  S     2.816383  0.623416  2.338696
  S     6.042695 -2.333973 -0.753037
  S     5.689421  0.856899 -0.611241
  S     5.864440 -1.866192  3.348097
  S     5.210492  1.640804  3.399672
