16  
    
  C     3.328751 -3.307052  1.310777
  C     3.557550  0.613997  1.355740
  C     2.095036 -3.372466  0.573823
  C     2.324166  0.293804  0.702934
  N     4.438877 -3.006362  0.596928
  N     4.607838  0.761748  0.554613
  N     2.253232 -3.108560 -0.739462
  N     2.445057  0.232025 -0.609011
  N     1.411551 -3.452524  3.081744
  N     1.751015  0.376405  3.142990
  S     0.694897 -3.509421  1.557206
  S     0.977937  0.038056  1.710428
  S     3.886064 -2.960298 -1.001801
  S     4.099456  0.437084 -0.971552
  S     3.059291 -3.334157  3.042783
  S     3.438373  0.661904  3.127939
