16  
    
  C     8.953692 -0.343017  2.574779
  C     8.916073  3.358758  2.659493
  C     7.768246 -0.842638  1.897564
  C     7.631273  2.978475  2.027622
  N     9.920411 -0.126865  1.742621
  N     9.860714  3.662693  1.794850
  N     7.810923 -0.830255  0.592596
  N     7.639093  2.892607  0.692334
  N     7.265153 -0.643678  4.465536
  N     7.249175  3.073575  4.646468
  S     6.434742 -1.038802  3.036997
  S     6.446788  2.774935  3.222525
  S     9.383459 -0.366779  0.180196
  S     9.205211  3.422903  0.301532
  S     8.928925 -0.303016  4.312771
  S     8.850448  3.465669  4.419302
