16  
    
  C     7.044268 -1.197783  2.254337
  C     7.112305  2.219020  2.077141
  C     5.861337 -1.743076  1.633827
  C     5.882917  1.800007  1.457994
  N     8.145736 -1.170847  1.462901
  N     8.173107  2.251154  1.296166
  N     6.006557 -2.003831  0.323816
  N     6.013306  1.569523  0.171156
  N     5.415544 -1.639399  4.121530
  N     5.383962  1.934462  3.980530
  S     4.530076 -2.000996  2.694004
  S     4.561219  1.637079  2.534797
  S     7.569632 -1.630268 -0.058475
  S     7.564913  1.912114 -0.295285
  S     7.012873 -1.271371  3.973709
  S     6.926384  2.601181  3.797057
