16  
    
  C    10.292669  0.162312  2.638216
  C    10.299378  4.246142  3.086960
  C     9.106954 -0.293649  1.955140
  C     9.049699  3.807664  2.510620
  N    11.404777  0.165793  1.884417
  N    11.349786  4.049761  2.290090
  N     9.373529 -0.774420  0.707657
  N     9.098712  3.439937  1.236369
  N     8.461128  0.495126  4.308910
  N     8.671737  4.211369  5.096519
  S     7.836333 -0.398634  3.090061
  S     7.744276  3.966655  3.717294
  S    10.985048 -0.549589  0.470844
  S    10.789906  3.581071  0.836662
  S    10.086679  0.822667  4.200827
  S    10.262398  4.736165  4.709583
