16  
    
  C     8.423107 -0.924733  2.469695
  C     8.168379  2.915943  2.321373
  C     7.124161 -1.407011  2.005178
  C     7.019862  2.287703  1.689237
  N     9.352440 -0.903800  1.500658
  N     9.282473  3.015695  1.557640
  N     7.174976 -1.909279  0.764184
  N     7.159625  2.013128  0.393229
  N     6.744139 -0.761969  4.528144
  N     6.236643  2.698911  4.121529
  S     5.847265 -1.418589  3.270143
  S     5.602591  2.047532  2.654276
  S     8.692888 -1.615154  0.119314
  S     8.756153  2.475928  0.053143
  S     8.325768 -0.411974  4.150465
  S     7.839670  3.171489  3.990419
