16  
    
  C     8.200537 -0.822465  2.478097
  C     8.217440  2.997014  2.346551
  C     7.016986 -1.405826  1.901183
  C     7.043357  2.369393  1.721291
  N     9.296429 -0.763091  1.660598
  N     9.217593  3.275338  1.519001
  N     7.174090 -1.635084  0.579390
  N     7.161315  2.125274  0.405370
  N     6.392146 -0.817545  4.382146
  N     6.428201  2.755624  4.169249
  S     5.674093 -1.452084  3.004477
  S     5.678038  2.095513  2.812949
  S     8.756313 -1.316371  0.172921
  S     8.740072  2.704958  0.042051
  S     7.948694 -0.430472  4.139825
  S     7.955799  3.291477  4.066569
