16  
    
  C     7.051219 -1.932483  1.669634
  C     6.689572  2.180974  1.965427
  C     5.747711 -2.238295  1.046238
  C     5.572954  1.480049  1.372922
  N     7.953922 -1.569111  0.773505
  N     7.612374  2.580779  1.101952
  N     5.756809 -2.306033 -0.268884
  N     5.575107  1.408291  0.046252
  N     5.314088 -1.922718  3.539221
  N     5.109002  1.679960  3.878142
  S     4.454100 -2.425036  2.201082
  S     4.334398  1.066426  2.541455
  S     7.268716 -1.919642 -0.746828
  S     7.120239  2.077357 -0.447748
  S     6.935690 -1.659237  3.387212
  S     6.634583  2.299460  3.705840
