16  
    
  C     5.492087 -2.307593  1.686647
  C     5.175358  1.616951  1.517169
  C     4.340536 -2.693686  0.879190
  C     4.157114  1.002329  0.741386
  N     6.564828 -2.078060  0.976189
  N     6.343997  1.636389  0.865716
  N     4.518972 -2.727901 -0.427559
  N     4.428837  0.855841 -0.550369
  N     3.532365 -2.499553  3.344132
  N     3.135842  1.569767  3.071646
  S     2.891525 -2.922948  1.868740
  S     2.767369  0.709021  1.713791
  S     6.136363 -2.404559 -0.648315
  S     6.036656  1.221605 -0.687821
  S     5.143354 -2.119622  3.400373
  S     4.775402  2.115020  3.168580
