16  
    
  C     9.269589 -0.603175  2.632475
  C     9.246967  3.269696  2.599841
  C     8.066303 -1.049807  2.059631
  C     8.027803  2.793323  1.947441
  N    10.306217 -0.401505  1.775872
  N    10.242862  3.302289  1.739513
  N     8.181801 -1.400506  0.755052
  N     8.116892  2.533100  0.640330
  N     7.599731 -0.569125  4.561788
  N     7.539156  3.359280  4.430912
  S     6.795211 -1.036924  3.238522
  S     6.702928  2.949897  3.048821
  S     9.736987 -0.889220  0.300422
  S     9.753850  2.781208  0.214256
  S     9.179534 -0.102486  4.310730
  S     9.215354  3.526179  4.366922
