16  
    
  C     8.887591 -0.367644  2.540384
  C     8.438789  3.214151  2.510591
  C     7.636792 -0.651800  1.863466
  C     7.338790  2.652299  1.868891
  N     9.882854 -0.002486  1.721686
  N     9.472836  3.511360  1.743246
  N     7.762063 -0.695293  0.537939
  N     7.433471  2.620367  0.540636
  N     7.160807 -0.745895  4.455218
  N     6.828693  2.786133  4.401814
  S     6.337605 -0.919005  3.049883
  S     6.206371  2.154706  3.037298
  S     9.314399 -0.185559  0.140809
  S     8.920924  3.313091  0.188259
  S     8.737594 -0.134844  4.309940
  S     8.358123  3.367584  4.276012
