16  
    
  C     6.257493 -1.789054  1.974573
  C     6.490996  2.148652  2.048164
  C     5.156991 -2.331521  1.244258
  C     5.297809  1.680096  1.419512
  N     7.302615 -1.456291  1.219597
  N     7.514655  2.422097  1.247047
  N     5.344403 -2.406177 -0.081459
  N     5.393205  1.410857  0.125152
  N     4.498355 -2.146424  3.773129
  N     4.751240  1.842916  3.887639
  S     3.830936 -2.715590  2.348267
  S     4.005561  1.463507  2.487348
  S     6.890780 -1.947507 -0.296401
  S     7.024720  1.821922 -0.277213
  S     5.987525 -1.477437  3.648985
  S     6.313581  2.398583  3.782900
