16  
    
  C     9.698172 -0.634795  2.724916
  C     9.640627  3.243581  2.579194
  C     8.440852 -0.974303  2.126000
  C     8.397905  3.086355  1.948020
  N    10.735948 -0.543973  1.916939
  N    10.702931  3.360467  1.760345
  N     8.545881 -1.031798  0.819516
  N     8.440392  3.054801  0.627155
  N     7.932575 -0.546273  4.574851
  N     7.719983  2.942644  4.428013
  S     7.053644 -0.962792  3.208198
  S     6.943546  3.029321  2.973331
  S    10.113389 -0.776481  0.390469
  S     9.991074  3.293080  0.267789
  S     9.567015 -0.409693  4.447515
  S     9.321745  3.282053  4.280491
