16  
    
  C    12.001269  1.404066  3.410265
  C    12.231524  5.233952  3.153724
  C    10.883689  0.835947  2.712975
  C    11.005368  4.792562  2.585273
  N    13.109772  1.509072  2.691856
  N    13.254723  4.992366  2.382497
  N    11.078657  0.493779  1.465529
  N    11.083273  4.355748  1.336391
  N    10.167172  1.244315  5.184535
  N    10.472442  5.344246  5.077621
  S     9.435677  0.707408  3.799503
  S     9.633929  4.852530  3.694260
  S    12.714139  0.745206  1.210154
  S    12.702690  4.437723  0.922974
  S    11.775247  1.605322  5.144745
  S    12.124446  5.651423  4.838344
