16  
    
  C     4.481564 -2.660648  1.554674
  C     5.185864  1.532597  1.639979
  C     3.231193 -2.799741  0.833841
  C     3.889434  1.215339  1.058171
  N     5.520279 -2.430957  0.729138
  N     6.133633  1.655355  0.742880
  N     3.294497 -2.848416 -0.501150
  N     3.897372  1.194657 -0.271509
  N     2.714138 -2.797642  3.334861
  N     3.514707  1.198348  3.682192
  S     1.896473 -2.888457  1.907144
  S     2.667436  0.936919  2.246490
  S     4.932161 -2.610349 -0.832903
  S     5.505248  1.392861 -0.767148
  S     4.389262 -2.647798  3.262218
  S     5.153545  1.474110  3.444489
