16  
    
  C    12.478248  1.730009  3.388337
  C    12.800148  5.405643  3.435306
  C    11.242159  1.247466  2.697923
  C    11.655922  5.023874  2.723067
  N    13.497710  1.950001  2.581353
  N    13.808323  5.638288  2.575066
  N    11.421006  1.260626  1.371140
  N    11.718382  4.890683  1.414355
  N    10.825896  1.106381  5.211034
  N    11.000803  4.977455  5.263955
  S    10.104106  0.653892  3.794420
  S    10.362035  4.503224  3.781039
  S    12.947037  1.686093  1.018972
  S    13.328939  5.247540  1.049169
  S    12.420305  1.550468  5.139030
  S    12.562983  5.577650  5.148297
