16  
    
  C     6.308094 -1.622009  1.821305
  C     6.413651  2.257768  1.966896
  C     5.133666 -2.159910  1.149556
  C     5.285097  1.621969  1.391358
  N     7.358341 -1.514172  1.056627
  N     7.531385  2.336318  1.209781
  N     5.337309 -2.519128 -0.087287
  N     5.475488  1.347525  0.101987
  N     4.537195 -2.177363  3.631734
  N     4.695277  1.853907  3.895055
  S     3.820526 -2.632924  2.208487
  S     3.917073  1.381852  2.470237
  S     6.916264 -1.986757 -0.502370
  S     7.029572  1.815931 -0.288668
  S     6.045918 -1.454203  3.547754
  S     6.234878  2.496922  3.687611
