16  
    
  C     9.971828 -0.049527  2.986847
  C    10.234152  3.466242  2.887688
  C     8.806401 -0.609337  2.266306
  C     8.869140  3.678432  2.382931
  N    11.035707  0.124575  2.246146
  N    11.224170  3.520778  1.976370
  N     8.950247 -0.665076  0.978725
  N     8.849156  3.776112  1.069157
  N     8.044999 -0.635942  4.666930
  N     8.544534  3.385839  4.892830
  S     7.430594 -0.997377  3.191401
  S     7.611527  3.622928  3.573482
  S    10.508097 -0.193246  0.654007
  S    10.450577  3.640486  0.526068
  S     9.643107 -0.212596  4.692855
  S    10.166199  3.404148  4.596248
