16  
    
  C    12.867172  1.691793  3.711522
  C    12.944769  5.469173  3.699477
  C    11.654213  1.344365  3.072257
  C    11.639849  5.008488  3.239066
  N    13.903776  1.765332  2.844022
  N    13.884663  5.529091  2.792272
  N    11.685478  1.184089  1.743575
  N    11.666123  4.644186  1.954401
  N    11.214371  1.553386  5.627557
  N    11.321051  5.558456  5.648951
  S    10.364507  1.260278  4.254293
  S    10.379495  5.031792  4.438562
  S    13.246244  1.492420  1.324902
  S    13.188116  4.920760  1.386231
  S    12.827951  1.918581  5.472701
  S    12.858290  6.028598  5.349384
