16  
    
  C     8.984739 -0.330066  2.350795
  C     9.490597  3.360346  2.719941
  C     7.787644 -0.853404  1.740183
  C     8.178979  2.993407  2.160788
  N    10.085791 -0.213503  1.557843
  N    10.547110  3.174981  1.906242
  N     8.053724 -1.312965  0.474347
  N     8.313026  2.716599  0.870340
  N     7.202337 -0.359727  4.151221
  N     7.755293  3.289142  4.638156
  S     6.460077 -1.097122  2.867904
  S     6.873172  2.911506  3.300413
  S     9.631018 -0.911627  0.140128
  S     9.873696  2.776874  0.418180
  S     8.748131  0.157880  3.966113
  S     9.341917  3.655762  4.374762
