16  
    
  C    11.217936  0.631274  2.958426
  C    11.161910  4.296302  3.355032
  C    10.071792 -0.127402  2.426818
  C     9.849197  4.194193  2.721951
  N    12.200127  0.771502  2.107836
  N    12.159110  4.281425  2.457911
  N    10.158924 -0.441986  1.160384
  N     9.886221  3.953366  1.404627
  N     9.409435  0.432225  4.834715
  N     9.469069  4.045530  5.288847
  S     8.755964 -0.285204  3.464261
  S     8.579286  4.233434  3.912268
  S    11.701022  0.035249  0.677741
  S    11.503381  4.062984  0.953663
  S    10.969995  1.064439  4.617084
  S    11.058758  4.546530  5.129830
