16  
    
  C     7.106615 -1.567324  2.182930
  C     7.070905  2.159813  2.075376
  C     5.899100 -1.818815  1.422239
  C     5.926579  1.693489  1.354852
  N     8.123073 -1.284632  1.389505
  N     8.158736  2.296656  1.303682
  N     6.049518 -1.903274  0.119710
  N     6.120471  1.611051  0.013232
  N     5.173977 -1.640556  3.915665
  N     5.195081  1.940153  3.779824
  S     4.502628 -2.118752  2.459894
  S     4.473759  1.611730  2.336593
  S     7.681102 -1.593733 -0.157826
  S     7.687843  1.956336 -0.209373
  S     6.779534 -1.528667  3.931177
  S     6.757936  2.429647  3.814444
