16  
    
  C    11.548059  1.223343  3.011432
  C    11.403482  4.877559  3.096566
  C    10.474177  0.430431  2.535840
  C    10.320799  4.331158  2.335640
  N    12.367099  1.738468  2.061483
  N    12.429793  5.271924  2.335615
  N    10.553176  0.169685  1.231264
  N    10.476638  4.247117  1.005417
  N     9.996070  0.751758  5.077047
  N     9.564141  4.477638  4.836487
  S     9.195182  0.082458  3.799088
  S     8.965505  3.905987  3.361661
  S    11.781758  1.148455  0.616719
  S    12.022383  4.905825  0.772326
  S    11.452913  1.504743  4.776714
  S    11.084955  5.118093  4.786303
