16  
    
  C     6.460113 -1.715903  2.071294
  C     6.542622  2.206850  2.129507
  C     5.193665 -2.032915  1.451868
  C     5.396746  1.636413  1.532434
  N     7.445714 -1.458482  1.239184
  N     7.532290  2.537023  1.294887
  N     5.295024 -2.181664  0.150500
  N     5.506044  1.476881  0.197075
  N     4.700020 -2.212006  3.981394
  N     4.941976  1.688495  4.049989
  S     3.923960 -2.492058  2.546463
  S     4.207749  1.068716  2.729609
  S     6.814613 -1.641439 -0.271425
  S     6.932536  2.137431 -0.207897
  S     6.280534 -1.819350  3.827990
  S     6.461174  2.291156  3.834793
