16  
    
  C     8.393890 -0.853419  2.422420
  C     8.239489  2.397873  2.129397
  C     7.158677 -1.155630  1.787780
  C     7.117355  1.999802  1.334542
  N     9.454989 -0.926461  1.643567
  N     9.374394  2.483747  1.460794
  N     7.264464 -1.441090  0.493177
  N     7.420433  1.848999  0.041946
  N     6.569691 -0.551318  4.296654
  N     6.263203  2.126474  3.760294
  S     5.819584 -1.104077  2.908497
  S     5.686611  1.750847  2.207408
  S     8.885083 -1.304021  0.100723
  S     8.965619  2.240689 -0.168574
  S     8.200156 -0.558756  4.228751
  S     7.881731  2.571189  3.820258
