16  
    
  C    10.286306  0.081731  2.779195
  C    10.220570  4.059589  3.082189
  C     9.032012 -0.395735  2.121569
  C     8.940318  3.669026  2.514683
  N    11.316519  0.077246  1.968749
  N    11.208127  4.052160  2.236479
  N     9.210074 -0.658915  0.837465
  N     8.933957  3.430837  1.188040
  N     8.556756  0.106645  4.620124
  N     8.599636  4.441507  4.992365
  S     7.750148 -0.608598  3.300759
  S     7.737250  3.937548  3.671621
  S    10.803000 -0.440760  0.500763
  S    10.623305  3.634679  0.774123
  S    10.248020  0.245815  4.538537
  S    10.259785  4.438925  4.836732
