16  
    
  C     8.963206 -0.352982  2.370848
  C     9.466260  3.270276  2.796055
  C     7.850286 -0.995453  1.730718
  C     8.188202  2.971520  2.089536
  N    10.101834 -0.309531  1.627940
  N    10.469103  3.273272  1.933940
  N     8.057848 -1.251460  0.398409
  N     8.275895  2.693861  0.768943
  N     7.034167 -0.263837  4.048601
  N     7.796871  3.298668  4.667118
  S     6.488698 -1.078189  2.703127
  S     6.922028  3.070311  3.247676
  S     9.673664 -0.879635  0.125824
  S     9.931242  2.879764  0.424697
  S     8.675791  0.097122  4.024943
  S     9.456715  3.740313  4.473819
