16  
    
  C     3.967916 -2.806701  1.510964
  C     4.123724  1.224429  1.515101
  C     2.799247 -3.371115  0.860620
  C     2.861694  0.882445  0.908013
  N     5.026018 -2.763406  0.708811
  N     5.137364  1.291089  0.669066
  N     2.917120 -3.807612 -0.379166
  N     2.945826  0.586731 -0.385410
  N     2.051603 -2.744035  3.215381
  N     2.351774  1.199187  3.436120
  S     1.421609 -3.495784  1.854164
  S     1.523137  0.619305  2.122586
  S     4.487133 -3.288676 -0.793246
  S     4.481226  0.913884 -0.877867
  S     3.709653 -2.405492  3.142678
  S     4.056051  1.473552  3.221481
