16  
    
  C     9.677109 -0.165149  2.486221
  C     9.775047  3.495525  2.589593
  C     8.409923 -0.591898  1.971742
  C     8.509845  3.130640  1.905208
  N    10.679601 -0.066528  1.575604
  N    10.675143  3.792606  1.675937
  N     8.416280 -0.801787  0.628057
  N     8.506614  3.198458  0.563119
  N     8.202431 -0.616767  4.529043
  N     8.111841  2.936064  4.467710
  S     7.338718 -1.017859  3.223868
  S     7.311583  2.735222  3.052749
  S    10.004177 -0.466712  0.118096
  S    10.033786  3.663219  0.133977
  S     9.785726 -0.200223  4.235147
  S     9.773983  3.456129  4.402908
