16  
    
  C     7.302507 -1.636588  2.249148
  C     7.441925  2.408556  2.135445
  C     6.107030 -2.090204  1.550033
  C     6.169315  1.961722  1.581638
  N     8.356185 -1.565265  1.456740
  N     8.461843  2.457800  1.277112
  N     6.206531 -2.170766  0.238937
  N     6.188737  1.690042  0.269142
  N     5.523286 -2.041564  4.027763
  N     5.725415  2.279590  4.084615
  S     4.709316 -2.266377  2.612463
  S     4.969156  1.657340  2.764199
  S     7.806522 -1.851441 -0.061693
  S     7.832476  2.000634 -0.218959
  S     7.153672 -1.594728  3.938048
  S     7.357798  2.579523  3.896092
