16  
    
  C    11.321801  1.088890  3.345668
  C    11.487302  4.744112  2.785283
  C    10.097101  0.543291  2.785075
  C    10.251693  4.247346  2.181785
  N    12.270984  1.215355  2.437151
  N    12.481704  5.003178  1.955101
  N    10.058348  0.458317  1.481791
  N    10.350820  4.120060  0.891822
  N     9.683796  0.676741  5.222656
  N     9.859513  4.363799  4.765807
  S     8.764670  0.427026  3.845138
  S     9.004852  3.992351  3.363747
  S    11.538451  0.872760  0.946270
  S    11.886251  4.522563  0.427125
  S    11.267003  1.268188  5.039541
  S    11.386732  5.016358  4.507257
