16  
    
  C     9.324387 -0.558407  2.642441
  C     9.302515  3.280094  2.579960
  C     8.102087 -1.082695  2.060076
  C     8.021127  2.863807  1.917443
  N    10.316843 -0.446692  1.820574
  N    10.267678  3.305001  1.698891
  N     8.234065 -1.320108  0.786680
  N     8.127243  2.568211  0.616475
  N     7.641278 -0.611180  4.589303
  N     7.510804  3.380661  4.418528
  S     6.824649 -1.016977  3.231252
  S     6.690390  2.933845  3.009797
  S     9.771857 -0.904254  0.328601
  S     9.752541  2.795941  0.219390
  S     9.214721 -0.144304  4.352775
  S     9.205266  3.522304  4.377464
