16  
    
  C     7.636834 -1.202085  1.886520
  C     7.669317  2.875304  2.184202
  C     6.342757 -1.569806  1.270797
  C     6.511260  2.347973  1.580320
  N     8.545624 -0.982498  0.980402
  N     8.682815  3.029998  1.343468
  N     6.345970 -1.685181 -0.043394
  N     6.710263  2.035978  0.275168
  N     5.937239 -1.138556  3.769700
  N     5.942963  2.631350  4.115214
  S     5.038645 -1.702326  2.420063
  S     5.217740  2.202838  2.661090
  S     7.860965 -1.242185 -0.505549
  S     8.182069  2.458559 -0.146165
  S     7.585391 -0.848741  3.572858
  S     7.500982  3.280389  3.889953
