16  
    
  C    12.534178  1.600394  3.381234
  C    12.898348  5.443537  3.595368
  C    11.384912  0.901959  2.752226
  C    11.825313  4.884722  2.861572
  N    13.454167  1.878087  2.484216
  N    13.970708  5.792334  2.900522
  N    11.458744  0.797836  1.426195
  N    12.073145  4.813969  1.588836
  N    10.914253  1.020817  5.251811
  N    10.858721  4.948212  5.162348
  S    10.089516  0.574025  3.872644
  S    10.314892  4.653971  3.682192
  S    12.869612  1.451105  0.961179
  S    13.584993  5.433593  1.296700
  S    12.418040  1.732505  5.101554
  S    12.361019  5.558338  5.328864
