16  
    
  C    12.453870  1.673270  3.364068
  C    12.816021  5.512479  3.682358
  C    11.323325  0.938967  2.757996
  C    11.736072  4.993595  2.846840
  N    13.483714  1.830108  2.569411
  N    13.884246  5.742804  3.000357
  N    11.534783  0.718009  1.473559
  N    12.022452  4.969329  1.561618
  N    10.866030  1.248340  5.312729
  N    10.913154  5.121650  5.258120
  S    10.201675  0.496010  3.986176
  S    10.336156  4.539114  3.860419
  S    13.048392  1.214589  1.092577
  S    13.643183  5.398112  1.443122
  S    12.407638  1.818626  5.122918
  S    12.458769  5.644309  5.333143
