16  
    
  C     4.631607 -2.208272  1.547727
  C     4.704099  1.545718  1.652509
  C     3.300363 -2.378626  0.978025
  C     3.470679  1.105422  1.018995
  N     5.603715 -2.061446  0.638376
  N     5.631770  1.948150  0.800888
  N     3.279845 -2.464055 -0.361604
  N     3.542611  0.968462 -0.292446
  N     3.002541 -2.286518  3.539754
  N     2.799635  1.400043  3.464884
  S     2.035008 -2.122598  2.202985
  S     2.095522  0.982866  1.962935
  S     4.888154 -2.342514 -0.852456
  S     5.054891  1.519819 -0.713334
  S     4.643973 -1.899645  3.254332
  S     4.437415  1.702861  3.362002
