16  
    
  C    12.064013  1.355275  3.442841
  C    12.182317  5.227300  3.115812
  C    10.836409  0.886112  2.721821
  C    10.955269  4.770836  2.557388
  N    13.129578  1.463058  2.667593
  N    13.229940  5.020635  2.387364
  N    11.098282  0.494203  1.465215
  N    11.105614  4.352832  1.297042
  N    10.167779  1.287448  5.172639
  N    10.507217  5.328358  5.062254
  S     9.406507  0.705128  3.818031
  S     9.644729  4.869986  3.708019
  S    12.715441  0.733513  1.186750
  S    12.687205  4.427592  0.931370
  S    11.781330  1.609090  5.128249
  S    12.148720  5.632143  4.839959
