16  
    
  C    12.592503  1.589335  3.788827
  C    12.412145  4.992002  3.434922
  C    11.376731  1.276051  3.125164
  C    11.203718  4.627006  2.806236
  N    13.600183  1.731278  2.917258
  N    13.498342  5.163128  2.564151
  N    11.450835  1.083451  1.793919
  N    11.297524  4.396672  1.514985
  N    10.881468  1.145766  5.682877
  N    10.497332  4.991319  5.235871
  S    10.039142  1.221718  4.219481
  S     9.807570  4.367831  3.838658
  S    13.068618  1.312832  1.465908
  S    12.849346  4.783553  1.084484
  S    12.461996  1.789043  5.545951
  S    12.145952  5.157405  5.164235
