16  
    
  C    12.060364  1.368715  3.472225
  C    12.269617  5.105255  3.357316
  C    10.873877  0.826584  2.780322
  C    11.046249  4.643857  2.688519
  N    13.150848  1.608525  2.736759
  N    13.311494  5.041022  2.527324
  N    11.209302  0.412870  1.533469
  N    11.173541  4.427051  1.357709
  N    10.161479  1.080236  5.181339
  N    10.380259  5.393267  5.073993
  S     9.461286  0.624569  3.756354
  S     9.672446  4.769062  3.719596
  S    12.707227  1.001011  1.192065
  S    12.764424  4.557643  1.015583
  S    11.703365  1.671408  5.153410
  S    12.007554  5.744845  4.941659
