16  
    
  C     4.244497 -2.408262  1.800031
  C     3.988204  1.240370  1.244134
  C     3.080325 -2.967230  1.222889
  C     2.913744  0.468727  0.698211
  N     5.279903 -2.187368  0.959147
  N     4.992950  1.506363  0.392163
  N     3.129282 -3.046300 -0.121429
  N     3.058382  0.173592 -0.592011
  N     2.636068 -2.822166  3.726031
  N     2.316095  0.964337  3.257842
  S     1.864165 -3.369443  2.342065
  S     1.688232  0.044869  1.958257
  S     4.690378 -2.757023 -0.541920
  S     4.608871  0.702067 -1.000652
  S     4.048222 -1.968220  3.455342
  S     3.769818  1.717781  2.914400
