16  
    
  C    12.878637  1.694189  3.428139
  C    12.304698  5.048952  3.347448
  C    11.630595  1.227214  2.836834
  C    11.154445  4.691804  2.590767
  N    13.814225  1.720187  2.520951
  N    13.449048  5.277257  2.691147
  N    11.637227  0.961002  1.538218
  N    11.434907  4.511888  1.341378
  N    11.188378  1.608509  5.349899
  N    10.378776  4.750221  5.145142
  S    10.263588  1.229544  4.014126
  S     9.729129  4.302339  3.654780
  S    13.261906  1.177489  1.100564
  S    13.001238  4.936862  1.100741
  S    12.825650  1.927148  5.166145
  S    12.043902  5.074895  5.052268
