16  
    
  C    10.467830  0.031062  2.730327
  C    10.347123  4.246712  3.073665
  C     9.248843 -0.506198  2.166694
  C     9.018747  3.850548  2.607663
  N    11.471023  0.051660  1.870268
  N    11.351375  4.029942  2.215819
  N     9.365062 -0.927255  0.933248
  N     9.001160  3.520330  1.318932
  N     8.485575  0.247513  4.518280
  N     8.608596  4.219744  5.086488
  S     7.793940 -0.429250  3.189050
  S     7.694554  3.919337  3.710231
  S    10.838852 -0.532399  0.411195
  S    10.618747  3.509448  0.819978
  S    10.103232  0.626695  4.349120
  S    10.210638  4.688362  4.757753
