16  
    
  C     9.542203 -0.439400  2.746001
  C     9.356491  3.239266  2.552693
  C     8.317017 -0.788818  2.109171
  C     8.085741  3.029842  1.802479
  N    10.578748 -0.553314  1.970905
  N    10.427906  3.236438  1.774167
  N     8.433033 -1.036728  0.831911
  N     8.289838  2.925409  0.478846
  N     7.803014 -0.642880  4.645773
  N     7.566728  3.173059  4.398909
  S     6.992797 -1.015871  3.237952
  S     6.745195  2.975336  2.932329
  S    10.018052 -0.968863  0.459234
  S     9.944219  3.024728  0.247517
  S     9.404324 -0.416902  4.502122
  S     9.218106  3.498368  4.308017
