16  
    
  C    11.994313  1.403100  3.463087
  C    12.307365  5.083630  3.269833
  C    10.923068  0.857692  2.738980
  C    11.067597  4.750222  2.659393
  N    13.064163  1.564476  2.702991
  N    13.375735  5.026093  2.456151
  N    11.150909  0.400194  1.526928
  N    11.153156  4.410336  1.389311
  N    10.143423  1.104378  5.230253
  N    10.412567  5.383782  5.044170
  S     9.505229  0.667020  3.740795
  S     9.654701  4.797374  3.716840
  S    12.702022  0.922879  1.239524
  S    12.713108  4.509350  0.971396
  S    11.728099  1.638025  5.138542
  S    12.002014  5.726163  4.905081
