16  
    
  C     7.645593 -1.176965  1.873083
  C     7.692195  2.957907  2.166938
  C     6.356163 -1.498417  1.271480
  C     6.518987  2.364949  1.554177
  N     8.568596 -0.938654  0.965874
  N     8.742328  3.007688  1.363901
  N     6.389552 -1.731468 -0.023416
  N     6.701198  2.053815  0.307238
  N     5.995542 -1.118298  3.767141
  N     5.949869  2.641646  4.120801
  S     5.067802 -1.663579  2.388804
  S     5.210443  2.191464  2.662031
  S     7.873112 -1.262716 -0.508769
  S     8.223644  2.483670 -0.130803
  S     7.617939 -0.834352  3.527257
  S     7.465829  3.268071  3.903345
