16  
    
  C     4.917870 -2.495088  1.626832
  C     4.880306  1.644928  1.969349
  C     3.678331 -2.910536  0.987421
  C     3.739225  1.057703  1.326782
  N     5.913650 -2.403180  0.775535
  N     5.931599  1.902787  1.202609
  N     3.841052 -3.317967 -0.228771
  N     3.946470  0.845990  0.014065
  N     3.167030 -2.369710  3.463977
  N     3.115510  1.185572  3.898726
  S     2.326648 -2.837694  2.059499
  S     2.438401  0.716748  2.440921
  S     5.415602 -2.971662 -0.673961
  S     5.482419  1.328630 -0.297740
  S     4.797889 -2.045827  3.305683
  S     4.764684  1.565611  3.755411
