16  
    
  C     7.324269 -1.613724  2.139820
  C     7.440947  2.395964  2.146278
  C     6.155134 -2.162127  1.489783
  C     6.187275  2.031394  1.535716
  N     8.380177 -1.362274  1.355908
  N     8.453440  2.481189  1.308537
  N     6.248064 -2.188028  0.170313
  N     6.198449  1.880950  0.211054
  N     5.523369 -2.068906  4.046233
  N     5.868535  2.082020  4.080297
  S     4.825648 -2.346961  2.620970
  S     4.974309  1.788093  2.734504
  S     7.795236 -1.635077 -0.194375
  S     7.821086  2.256327 -0.248602
  S     7.140765 -1.704366  3.933077
  S     7.418063  2.693845  3.828417
