16  
    
  C     9.074856 -0.474680  2.431023
  C     9.547030  3.310889  2.738436
  C     7.890196 -0.923759  1.693225
  C     8.309136  2.924696  2.182175
  N    10.156171 -0.353699  1.635748
  N    10.573324  3.332699  1.885362
  N     8.153079 -1.270072  0.413994
  N     8.343332  2.720242  0.872095
  N     6.985492 -0.208547  3.932389
  N     7.794307  3.381629  4.651338
  S     6.416315 -1.095661  2.667497
  S     6.967593  3.235404  3.259171
  S     9.706943 -0.849599  0.104200
  S     9.885883  2.932961  0.417629
  S     8.615991  0.018082  4.077962
  S     9.385070  3.726669  4.414757
