16  
    
  C     9.769403  0.147046  2.680183
  C     9.821714  3.841736  2.580736
  C     8.589739 -0.457781  2.134847
  C     8.587147  3.196788  2.079641
  N    10.652407  0.514655  1.757259
  N    10.738196  4.203181  1.673996
  N     8.510878 -0.365067  0.825290
  N     8.726446  2.929775  0.804204
  N     8.211631 -0.532985  4.642577
  N     8.153247  3.205326  4.549955
  S     7.384595 -1.068739  3.259432
  S     7.354974  2.699154  3.133895
  S     9.966716  0.150872  0.273574
  S    10.130093  3.531440  0.199005
  S     9.794595 -0.096541  4.429195
  S     9.679350  3.926565  4.312737
