16  
    
  C     3.207616 -2.714276  1.641578
  C     3.587782  0.807194  1.421425
  C     2.111773 -3.279288  0.869757
  C     2.345423  0.378787  0.823333
  N     4.298782 -2.351719  0.926874
  N     4.597097  1.088038  0.606509
  N     2.386391 -3.435150 -0.442243
  N     2.445146  0.369120 -0.494145
  N     1.351904 -3.509173  3.335366
  N     1.986787  0.158979  3.357884
  S     0.741178 -3.777490  1.785725
  S     1.136681 -0.014604  1.928674
  S     3.912129 -2.671233 -0.699888
  S     3.909023  0.862803 -0.950274
  S     2.948183 -2.945170  3.371634
  S     3.522371  0.645016  3.152090
