16  
    
  C     6.080707 -1.543638  2.408279
  C     6.608308  2.236250  2.218754
  C     5.036703 -2.298935  1.758165
  C     5.389747  1.745003  1.612996
  N     7.063607 -1.156561  1.634007
  N     7.619140  2.321459  1.345882
  N     5.271481 -2.535690  0.498211
  N     5.431586  1.607963  0.274308
  N     4.526342 -2.390513  4.280974
  N     4.950506  1.688747  4.178130
  S     3.750157 -2.781453  2.849357
  S     4.131130  1.417220  2.765399
  S     6.699518 -1.709260  0.136390
  S     6.982961  1.965923 -0.160801
  S     5.881321 -1.483733  4.135967
  S     6.526891  2.242354  3.933964
