16  
    
  C     5.434187 -2.212637  1.512601
  C     5.106195  1.587752  1.575360
  C     4.261184 -2.640815  0.745607
  C     4.120433  0.780848  0.985484
  N     6.521994 -1.983245  0.850031
  N     6.205058  1.780242  0.859547
  N     4.512934 -2.828668 -0.529804
  N     4.412097  0.398804 -0.253723
  N     3.505112 -2.468393  3.275925
  N     3.149150  1.841045  3.168458
  S     2.863220 -2.875472  1.786326
  S     2.635919  0.858157  1.846541
  S     6.134848 -2.485443 -0.743748
  S     5.970485  0.975722 -0.536725
  S     5.103927 -1.939453  3.271413
  S     4.728112  2.371243  3.062320
