16  
    
  C     8.455258 -1.002522  2.464915
  C     8.317500  2.279987  2.093027
  C     7.207282 -1.162601  1.790088
  C     7.198497  1.790167  1.310774
  N     9.485968 -0.851838  1.672234
  N     9.394721  2.604369  1.368886
  N     7.348468 -1.350881  0.522334
  N     7.387529  1.807210  0.000090
  N     6.515720 -0.779060  4.179132
  N     6.210892  2.237231  3.683117
  S     5.750676 -0.970792  2.690317
  S     5.681089  1.656543  2.223908
  S     8.923240 -1.162273  0.145976
  S     8.968846  2.315451 -0.173213
  S     8.201877 -0.647822  4.147315
  S     7.857761  2.512785  3.818856
