16  
    
  C     5.855707 -2.117916  1.880564
  C     6.106662  1.748905  1.925837
  C     4.644020 -2.475015  1.190518
  C     4.787454  1.698831  1.414461
  N     6.921488 -2.128408  1.065813
  N     7.044071  1.420288  1.019175
  N     4.659463 -2.546585 -0.159764
  N     4.714874  1.327277  0.136848
  N     4.033219 -2.364255  3.680147
  N     4.551988  2.020111  3.934846
  S     3.310551 -2.714723  2.234912
  S     3.541956  2.078973  2.619895
  S     6.337189 -2.379458 -0.494967
  S     6.221889  1.090332 -0.356053
  S     5.671574 -2.021519  3.560980
  S     6.186150  2.074829  3.633386
