16  
    
  C    12.515498  1.633071  3.357530
  C    12.778833  5.444489  3.627436
  C    11.325931  1.036706  2.774542
  C    11.733722  4.948080  2.808961
  N    13.485482  1.936790  2.495501
  N    13.965920  5.760748  3.041540
  N    11.466076  0.736174  1.446127
  N    12.045764  4.886404  1.536352
  N    10.857930  1.156135  5.355763
  N    10.843103  5.082086  5.288975
  S    10.156966  0.487756  3.981295
  S    10.325801  4.565075  3.734686
  S    13.014296  1.266040  1.048005
  S    13.624183  5.443038  1.407648
  S    12.397729  1.752741  5.045202
  S    12.469359  5.630505  5.340537
