16  
    
  C     8.373551 -0.852520  2.458361
  C     8.187014  2.519253  2.124560
  C     7.101487 -1.329852  1.947732
  C     7.023402  2.175392  1.326453
  N     9.457020 -0.936800  1.639118
  N     9.332324  2.651620  1.452634
  N     7.171542 -1.546983  0.617975
  N     7.357362  1.968841  0.059507
  N     6.694005 -0.589465  4.318728
  N     6.374954  2.100072  3.772512
  S     5.793354 -1.276375  3.065915
  S     5.597824  1.954591  2.335214
  S     8.767015 -1.435551  0.208482
  S     8.996656  2.137977 -0.140612
  S     8.360279 -0.466513  4.101895
  S     7.882075  2.675405  3.799794
