16  
    
  C    11.623185  1.219064  2.818442
  C    11.614265  4.976039  3.145639
  C    10.483436  0.527480  2.348265
  C    10.475043  4.507592  2.411491
  N    12.580469  1.453123  1.931639
  N    12.601544  5.389985  2.385148
  N    10.434992  0.399987  1.052139
  N    10.623597  4.382462  1.074265
  N    10.195753  0.722420  4.867486
  N     9.717619  4.525228  4.941090
  S     9.403648  0.069533  3.581636
  S     9.092917  4.018631  3.458845
  S    11.879512  1.028871  0.496511
  S    12.202947  4.948276  0.794390
  S    11.554809  1.589270  4.565768
  S    11.313022  4.990446  4.873472
