16  
    
  C    11.628264  1.147176  2.978059
  C    11.809212  5.158481  3.057075
  C    10.362489  0.814910  2.381214
  C    10.666641  4.407714  2.592376
  N    12.618918  1.297546  2.094164
  N    12.795954  5.200975  2.205778
  N    10.422739  0.547291  1.054504
  N    10.814148  4.001952  1.321767
  N    10.098855  0.611705  4.970804
  N    10.265219  4.806059  5.060386
  S     9.172866  0.379472  3.623303
  S     9.476222  4.183249  3.717522
  S    11.997183  0.881494  0.610973
  S    12.340154  4.422717  0.865481
  S    11.600047  1.248895  4.651869
  S    11.730916  5.547806  4.800873
