16  
    
  C     7.195962 -1.617114  1.860776
  C     6.988938  2.143709  1.914592
  C     5.996904 -2.058119  1.175858
  C     5.754098  1.683039  1.293268
  N     8.242751 -1.554918  1.025007
  N     8.004281  2.265892  1.067643
  N     6.134725 -2.369026 -0.130188
  N     5.867026  1.601236 -0.031015
  N     5.330073 -1.814703  3.613101
  N     5.313840  1.597418  3.815240
  S     4.592184 -2.204250  2.197256
  S     4.457182  1.431864  2.394643
  S     7.716682 -1.898719 -0.488668
  S     7.382948  2.028946 -0.393359
  S     6.882158 -1.261389  3.512712
  S     6.872339  2.100051  3.675517
