16  
    
  C    10.063443 -0.193564  2.917468
  C    10.316285  3.775903  3.136651
  C     8.820319 -0.320770  2.138878
  C     9.071775  3.928178  2.429826
  N    11.139964  0.113772  2.150376
  N    11.376373  3.560315  2.373875
  N     9.049650 -0.331696  0.803774
  N     9.253495  3.925202  1.104298
  N     8.216872 -0.490018  4.641905
  N     8.478043  3.663832  4.967565
  S     7.462770 -0.683736  3.163595
  S     7.691150  3.921691  3.532859
  S    10.678573 -0.000568  0.563485
  S    10.819787  3.709029  0.820641
  S     9.883626 -0.338701  4.636682
  S    10.181030  3.671316  4.806220
