16  
    
  C    10.198247 -0.238779  2.836331
  C    10.352259  3.826051  3.166236
  C     8.957755 -0.454394  2.140972
  C     9.126391  3.950371  2.452171
  N    11.242113 -0.033463  2.069095
  N    11.373008  3.792758  2.316734
  N     9.077229 -0.370759  0.835593
  N     9.150269  3.859333  1.122459
  N     8.380743 -0.566955  4.643711
  N     8.497672  3.931183  4.958392
  S     7.547928 -0.551661  3.209745
  S     7.730936  3.893068  3.499698
  S    10.647925 -0.016310  0.539715
  S    10.745431  3.662538  0.748394
  S     9.992803 -0.179738  4.591615
  S    10.198738  3.972285  4.935953
