16  
    
  C     7.108178 -1.709170  1.620746
  C     6.857047  2.083228  1.927403
  C     5.860961 -2.091571  0.974676
  C     5.617503  1.595553  1.328475
  N     8.121732 -1.539715  0.809619
  N     7.841093  2.336124  1.067836
  N     5.998000 -2.410685 -0.303399
  N     5.632533  1.496843  0.008558
  N     5.379870 -1.765078  3.544083
  N     5.205022  1.665139  3.821364
  S     4.589913 -2.371621  2.216637
  S     4.429400  1.174927  2.457887
  S     7.548524 -2.005903 -0.729455
  S     7.180160  2.085368 -0.495404
  S     6.992578 -1.504284  3.347323
  S     6.758400  2.224235  3.661175
