16  
    
  C     8.935681 -0.357870  2.582566
  C     8.853074  3.335550  2.624726
  C     7.726444 -0.762731  1.915174
  C     7.647529  2.915605  2.037197
  N     9.939975 -0.097013  1.746075
  N     9.803911  3.727531  1.760681
  N     7.812488 -0.836589  0.583700
  N     7.602437  2.910110  0.703533
  N     7.242732 -0.585495  4.457376
  N     7.230021  3.009199  4.623480
  S     6.424381 -1.043746  3.029227
  S     6.346199  2.733828  3.236740
  S     9.390230 -0.370398  0.223499
  S     9.150683  3.438028  0.280211
  S     8.925150 -0.300120  4.274401
  S     8.825388  3.422014  4.351125
