16  
    
  C     4.110288 -2.662874  1.573680
  C     4.174934  1.450809  1.583399
  C     2.882860 -3.172252  0.984152
  C     2.908852  1.217847  0.988807
  N     5.186684 -2.678063  0.772474
  N     5.220538  1.344332  0.754451
  N     3.009075 -3.535962 -0.293732
  N     2.947647  0.977335 -0.338667
  N     2.331595 -2.601761  3.415441
  N     2.497963  1.445574  3.613113
  S     1.560876 -3.200279  2.070966
  S     1.661143  1.409623  2.186644
  S     4.661433 -3.319853 -0.703062
  S     4.519511  1.033647 -0.774785
  S     3.995113 -2.315996  3.265205
  S     4.153046  1.601638  3.326766
