16  
    
  C     4.615390 -1.976956  1.539931
  C     4.634363  1.615235  1.714619
  C     3.348700 -2.355967  0.971235
  C     3.419082  1.207867  1.038593
  N     5.627388 -2.012225  0.649900
  N     5.723624  1.688378  0.942156
  N     3.382414 -2.671976 -0.347442
  N     3.594533  1.049347 -0.267411
  N     2.930100 -2.314688  3.510031
  N     2.906510  1.477656  3.575828
  S     2.045980 -2.342545  2.097874
  S     2.094000  1.129511  2.138747
  S     4.914070 -2.355992 -0.796341
  S     5.230182  1.458317 -0.627183
  S     4.587504 -2.037310  3.289738
  S     4.526040  1.692681  3.443855
