16  
    
  C     3.453931 -3.045158  1.039463
  C     3.791134  0.691082  1.389497
  C     2.207759 -3.514054  0.424552
  C     2.588151  0.182225  0.765700
  N     4.439646 -2.995704  0.184681
  N     4.845824  0.811964  0.596088
  N     2.285199 -3.684793 -0.878524
  N     2.700780  0.085080 -0.555283
  N     1.701738 -3.159634  2.899926
  N     1.987294  0.347784  3.290832
  S     0.916582 -3.735611  1.529661
  S     1.258567  0.069814  1.805608
  S     3.818545 -3.360160 -1.293037
  S     4.309467  0.465372 -0.896999
  S     3.364588 -2.797681  2.736854
  S     3.555527  0.933499  3.093525
