16  
    
  C     8.730865 -0.491514  2.422211
  C     8.549176  3.201045  2.628798
  C     7.537535 -0.935416  1.668541
  C     7.329150  2.736593  1.919234
  N     9.785944 -0.506037  1.677162
  N     9.523609  3.390067  1.790680
  N     7.719416 -1.265455  0.417362
  N     7.496568  2.483559  0.639034
  N     6.866281 -0.804379  4.105305
  N     6.844524  2.809894  4.457011
  S     6.101455 -0.940946  2.661261
  S     6.077321  2.493003  3.021512
  S     9.331915 -1.009099  0.164201
  S     9.020084  2.996755  0.202748
  S     8.489036 -0.278386  4.151772
  S     8.446736  3.222151  4.398481
