16  
    
  C     9.105199 -0.418446  2.417648
  C     9.586734  3.477529  2.721935
  C     7.936898 -0.928188  1.718006
  C     8.292719  3.255723  2.125970
  N    10.261793 -0.476191  1.762400
  N    10.619297  3.389208  1.903106
  N     8.173732 -1.154087  0.435101
  N     8.364124  2.897516  0.863013
  N     7.085317 -0.648339  4.159800
  N     7.804201  3.756705  4.649209
  S     6.439497 -1.065959  2.647598
  S     6.946589  3.392000  3.284936
  S     9.836103 -0.925224  0.203203
  S     9.966604  2.857955  0.442758
  S     8.697400 -0.234011  4.151172
  S     9.440383  3.926813  4.312795
