16  
    
  C     9.070154 -0.444841  2.405080
  C     9.493930  3.287783  2.736236
  C     7.906200 -0.940469  1.662975
  C     8.268919  2.917707  2.156003
  N    10.128234 -0.342948  1.640303
  N    10.526377  3.321575  1.919558
  N     8.109183 -1.268839  0.419754
  N     8.334640  2.727010  0.856889
  N     7.002095 -0.210996  3.966004
  N     7.797727  3.348373  4.653080
  S     6.431306 -1.095915  2.672262
  S     6.974581  3.194016  3.252064
  S     9.697435 -0.857244  0.107395
  S     9.899158  2.917021  0.413796
  S     8.625450  0.044329  4.075459
  S     9.405563  3.734258  4.436839
