16  
    
  C     6.080126 -1.558513  2.397504
  C     6.611751  2.241461  2.211619
  C     5.023462 -2.293125  1.755660
  C     5.403292  1.750427  1.608451
  N     7.066105 -1.154097  1.631501
  N     7.623110  2.307643  1.333343
  N     5.285146 -2.561706  0.507546
  N     5.445366  1.610525  0.274469
  N     4.528051 -2.385643  4.271670
  N     4.948096  1.699089  4.171567
  S     3.749028 -2.789030  2.849283
  S     4.126834  1.418228  2.766218
  S     6.711794 -1.703978  0.125723
  S     6.975323  1.966307 -0.157007
  S     5.880408 -1.485832  4.132430
  S     6.521074  2.240899  3.932794
