16  
    
  C     6.138503 -1.767165  1.584220
  C     6.357331  1.857468  1.880025
  C     4.995799 -2.460789  1.040380
  C     5.113434  1.768543  1.170116
  N     7.188047 -1.642096  0.788954
  N     7.435196  1.935744  1.118208
  N     5.156551 -2.721122 -0.241499
  N     5.182861  1.699149 -0.167646
  N     4.340538 -1.726878  3.459019
  N     4.508322  2.005588  3.647585
  S     3.676320 -2.444633  2.112438
  S     3.740315  1.716899  2.198467
  S     6.661570 -2.155300 -0.685912
  S     6.857357  1.877271 -0.496899
  S     5.987330 -1.431346  3.293573
  S     6.164995  1.970896  3.626082
