16  
    
  C     8.757769 -0.242656  2.522762
  C     8.647976  3.020050  2.589701
  C     7.598791 -0.780165  1.887167
  C     7.446182  2.724112  1.922636
  N     9.792282 -0.032408  1.699721
  N     9.710168  3.167064  1.801880
  N     7.675358 -0.877252  0.556235
  N     7.561211  2.589305  0.597314
  N     6.972541 -0.656840  4.287524
  N     6.728933  2.936737  4.347084
  S     6.206831 -0.988265  2.884175
  S     6.021099  2.460128  2.926964
  S     9.185217 -0.379346  0.198276
  S     9.140560  2.813582  0.257207
  S     8.516043 -0.077623  4.192191
  S     8.352839  3.247055  4.273322
