16  
    
  C     9.733276  0.128294  2.742905
  C     9.719967  3.651574  2.635789
  C     8.493416 -0.327745  2.109721
  C     8.543273  3.017160  1.987540
  N    10.650490  0.529509  1.907500
  N    10.701375  3.986311  1.830950
  N     8.543292 -0.484781  0.824381
  N     8.643194  2.996186  0.649794
  N     8.215361 -0.690631  4.710834
  N     8.177355  3.278646  4.584322
  S     7.429526 -1.034699  3.271271
  S     7.390536  2.819581  3.198963
  S    10.042288  0.168246  0.382974
  S    10.169005  3.647308  0.255822
  S     9.723692 -0.025469  4.517579
  S     9.709878  3.816490  4.395371
