16  
    
  C    12.352057  1.571114  3.306355
  C    12.373231  5.399196  3.618920
  C    11.169484  1.011454  2.619292
  C    11.186130  4.856613  3.032073
  N    13.391919  1.829423  2.494996
  N    13.395058  5.672035  2.799765
  N    11.319162  0.895151  1.295977
  N    11.346725  4.631411  1.718385
  N    10.486000  1.445330  5.153137
  N    10.536413  4.879611  5.448685
  S     9.898752  0.885747  3.696232
  S     9.926857  4.265179  4.024680
  S    12.886502  1.349480  0.935941
  S    12.769176  5.197740  1.274243
  S    12.125444  1.852407  5.002249
  S    12.070739  5.591354  5.350760
