16  
    
  C    11.346856  0.677447  2.989849
  C    11.063257  4.545143  3.550771
  C    10.343500 -0.077459  2.229014
  C     9.781884  4.131868  2.994536
  N    12.495297  0.900451  2.322969
  N    12.096801  4.595381  2.675466
  N    10.712560 -0.315450  0.943566
  N     9.901640  3.757731  1.738010
  N     9.397330  0.350904  4.605863
  N     9.397558  4.544947  5.557457
  S     8.774962 -0.132701  3.128000
  S     8.540833  4.105227  4.197347
  S    12.340761  0.256405  0.821999
  S    11.483141  4.078879  1.276955
  S    10.969488  0.890759  4.681913
  S    10.925721  5.115038  5.237158
