16  
    
  C    10.273822  0.009401  2.809263
  C    10.213093  3.984347  3.126843
  C     9.018280 -0.266416  2.189498
  C     8.950531  3.622003  2.499938
  N    11.346234  0.088224  2.008639
  N    11.223053  4.042401  2.264480
  N     9.162695 -0.601258  0.905629
  N     9.021410  3.451680  1.170288
  N     8.546122  0.000739  4.663251
  N     8.624543  4.433467  5.025331
  S     7.735938 -0.623263  3.312933
  S     7.662119  3.957372  3.673902
  S    10.787417 -0.384906  0.470448
  S    10.654651  3.685984  0.778346
  S    10.202861  0.132266  4.507532
  S    10.282455  4.356157  4.766367
