16  
    
  C    12.650736  1.556370  3.388189
  C    12.654554  5.313966  3.243482
  C    11.451339  1.214347  2.747503
  C    11.480574  4.718606  2.665489
  N    13.604241  1.906845  2.551138
  N    13.597106  5.635306  2.337585
  N    11.482606  1.171591  1.405178
  N    11.481584  4.662473  1.349148
  N    10.981826  1.061235  5.325436
  N    11.155453  5.006840  5.249823
  S    10.138050  0.897184  3.876898
  S    10.307165  4.462183  3.981188
  S    13.013002  1.766042  1.037913
  S    12.978748  5.243036  0.895268
  S    12.526321  1.658094  5.102137
  S    12.698240  5.532836  4.975488
