16  
    
  C     8.657465 -0.958624  2.356972
  C     8.347309  3.124960  2.174886
  C     7.526520 -1.672647  1.728250
  C     7.148922  2.494286  1.541661
  N     9.601551 -0.700086  1.481272
  N     9.263830  3.365800  1.271542
  N     7.633613 -1.823436  0.419760
  N     7.258441  2.189621  0.247657
  N     6.938043 -1.433414  4.226302
  N     6.701722  2.800419  4.048031
  S     6.233116 -1.911009  2.840918
  S     5.928692  2.196973  2.725227
  S     9.096685 -1.165638 -0.026799
  S     8.738636  2.781102 -0.179038
  S     8.546626 -0.899506  4.132896
  S     8.277791  3.356310  3.964957
