16  
    
  C     5.493516 -2.148192  1.933387
  C     5.274346  1.605793  1.766812
  C     4.361285 -2.770303  1.272674
  C     4.132736  0.999310  1.062907
  N     6.492799 -1.827772  1.096307
  N     6.205585  2.079739  0.948715
  N     4.453693 -2.792449 -0.085640
  N     4.172388  1.068272 -0.256536
  N     3.748065 -2.455308  3.732099
  N     3.535392  0.843295  3.497864
  S     2.991035 -2.864895  2.341943
  S     3.009875  0.194287  2.088183
  S     5.999857 -2.211069 -0.435698
  S     5.673551  1.726309 -0.613097
  S     5.266528 -1.901464  3.618586
  S     5.054829  1.556735  3.443836
