16  
    
  C     4.754603 -2.487539  1.614721
  C     5.055656  1.442059  1.904519
  C     3.512850 -2.747863  0.987497
  C     3.818774  0.971516  1.271818
  N     5.820927 -2.593865  0.809114
  N     6.081201  1.703492  1.089091
  N     3.642403 -3.040275 -0.342079
  N     3.894436  1.036370 -0.046850
  N     2.969329 -2.351618  3.431849
  N     3.303552  0.915413  3.744966
  S     2.160627 -2.860680  2.075368
  S     2.459283  0.740269  2.315541
  S     5.249598 -2.928629 -0.702395
  S     5.363593  1.554727 -0.432267
  S     4.574007 -2.230496  3.290514
  S     4.906431  1.466907  3.638913
