16  
    
  C    10.950092  0.693687  2.849431
  C    11.074273  4.161399  3.273040
  C     9.860397 -0.130841  2.383549
  C     9.781286  3.932465  2.630561
  N    11.893919  0.916831  1.949105
  N    12.138722  4.286437  2.512266
  N     9.954781 -0.389517  1.078944
  N     9.955365  3.860031  1.319919
  N     9.469021  0.616694  4.835961
  N     9.315049  4.374585  5.107775
  S     8.625877 -0.182888  3.610003
  S     8.515446  3.798626  3.758157
  S    11.410766  0.171616  0.605370
  S    11.517681  4.212021  0.927340
  S    11.023847  1.068170  4.494809
  S    10.990605  4.415093  5.009822
