16  
    
  C     8.786232 -0.980546  2.392871
  C     8.514695  3.252116  2.542246
  C     7.561843 -1.209457  1.669640
  C     7.329379  2.625789  1.954739
  N     9.912174 -0.841323  1.621286
  N     9.516660  3.506246  1.672608
  N     7.760790 -1.360046  0.329651
  N     7.438026  2.509459  0.640598
  N     6.854163 -0.776130  4.122169
  N     6.801514  2.846522  4.420666
  S     6.222819 -1.379419  2.708059
  S     6.061250  2.194270  3.063241
  S     9.374054 -1.121791  0.068527
  S     8.919943  3.068334  0.132862
  S     8.524710 -0.634134  4.072003
  S     8.313857  3.479781  4.229212
