16  
    
  C     4.668721 -2.088256  1.893769
  C     4.157615  1.060585  1.259322
  C     3.462899 -2.514130  1.201909
  C     2.895017  0.851550  0.589638
  N     5.743797 -1.990000  1.145226
  N     5.207456  1.176347  0.429847
  N     3.715088 -2.762983 -0.067707
  N     3.027136  0.732888 -0.731656
  N     2.865077 -2.360117  3.690586
  N     2.251100  1.091789  3.045335
  S     2.101193 -2.775105  2.264597
  S     1.586077  0.556304  1.622103
  S     5.286886 -2.411009 -0.352056
  S     4.655572  0.946211 -1.111633
  S     4.381057 -1.699231  3.587640
  S     3.867653  1.320413  2.994276
