16  
    
  C    11.687603  1.116744  2.856007
  C    11.629426  4.976189  3.185340
  C    10.464008  0.477571  2.345058
  C    10.492144  4.480016  2.414409
  N    12.575769  1.458969  1.928038
  N    12.664006  5.367169  2.390464
  N    10.460715  0.388464  1.035550
  N    10.658354  4.359665  1.099186
  N    10.188693  0.760335  4.850456
  N     9.728634  4.556990  4.937201
  S     9.386000  0.087407  3.564763
  S     9.108091  4.022071  3.483965
  S    11.861452  1.052246  0.498753
  S    12.200602  4.940467  0.773675
  S    11.578861  1.575545  4.542994
  S    11.334344  5.007348  4.859362
