16  
    
  C     5.460880 -2.142121  1.887536
  C     5.281644  1.555649  1.724363
  C     4.266855 -2.625038  1.195602
  C     4.199543  1.022262  0.937206
  N     6.524575 -1.926329  1.149171
  N     6.243530  2.071224  0.958711
  N     4.406004 -2.749536 -0.089605
  N     4.393932  1.001434 -0.384381
  N     3.662818 -2.602258  3.727440
  N     3.466083  0.875651  3.385562
  S     2.932464 -3.003330  2.267715
  S     2.936234  0.296691  1.964535
  S     5.960769 -2.221096 -0.411162
  S     5.819696  1.848764 -0.633339
  S     5.240241 -2.041070  3.628849
  S     4.988114  1.572316  3.430334
