16  
    
  C     9.787747 -0.057937  2.854009
  C     9.864699  3.541820  2.669267
  C     8.570254 -0.554640  2.208162
  C     8.582954  3.179896  2.125464
  N    10.707422  0.473278  2.001535
  N    10.879082  3.768058  1.821227
  N     8.622825 -0.566590  0.843478
  N     8.569523  3.293772  0.806937
  N     8.200477 -0.762457  4.747081
  N     8.164445  3.151611  4.597152
  S     7.294652 -0.982549  3.341722
  S     7.232395  2.872941  3.207923
  S    10.111852  0.143675  0.461993
  S    10.102401  3.677687  0.288746
  S     9.605432  0.135228  4.536514
  S     9.747134  3.637274  4.442004
