16  
    
  C     9.152504 -0.598568  2.536325
  C     9.524308  3.573609  2.777655
  C     7.950774 -1.079665  1.883046
  C     8.318927  3.165294  2.169800
  N    10.185235 -0.378459  1.704451
  N    10.588263  3.527393  1.970364
  N     8.010114 -1.130118  0.546662
  N     8.474799  2.686742  0.933646
  N     7.306984 -0.596611  4.363319
  N     7.793367  3.969780  4.575049
  S     6.594819 -1.163149  2.989368
  S     6.920234  3.287399  3.305324
  S     9.579972 -0.671825  0.195672
  S    10.050290  2.966123  0.471109
  S     8.935464 -0.415556  4.242254
  S     9.464626  3.977069  4.481616
