16  
    
  C     5.886094 -2.166954  1.832911
  C     6.116465  1.697353  1.894892
  C     4.645152 -2.484756  1.152269
  C     4.750718  1.723059  1.419549
  N     6.957699 -2.114955  1.049219
  N     7.051329  1.470911  0.975171
  N     4.700917 -2.480073 -0.173795
  N     4.711817  1.342194  0.149561
  N     4.096758 -2.349909  3.624994
  N     4.545858  2.038149  3.916649
  S     3.290794 -2.685424  2.252600
  S     3.533776  2.094376  2.616580
  S     6.341796 -2.423783 -0.499419
  S     6.227058  1.080052 -0.375875
  S     5.687717 -2.032063  3.578600
  S     6.192439  2.042574  3.624734
