16  
    
  C     4.263013 -2.664517  1.552060
  C     4.211512  1.155890  1.746749
  C     3.034622 -3.198639  1.077258
  C     2.911281  1.153776  1.149089
  N     5.281424 -2.641087  0.661326
  N     5.210992  0.994782  0.894272
  N     3.038939 -3.474123 -0.240226
  N     2.932988  1.062790 -0.179001
  N     2.544920 -2.513830  3.550044
  N     2.522239  1.304740  3.657235
  S     1.795780 -3.318030  2.288413
  S     1.569472  1.367961  2.271365
  S     4.616038 -3.175626 -0.757101
  S     4.517083  0.859317 -0.615031
  S     4.113533 -2.086408  3.226470
  S     4.203259  1.538316  3.421142
