16  
    
  C     4.719465 -2.285729  1.619659
  C     4.928535  1.322531  1.869430
  C     3.573362 -2.851280  0.919910
  C     3.596691  1.242456  1.291282
  N     5.741937 -1.939469  0.850706
  N     5.959525  1.444972  1.024851
  N     3.669088 -2.818883 -0.387345
  N     3.682560  1.198561 -0.051648
  N     2.849203 -2.686019  3.405644
  N     3.261336  1.603250  3.892168
  S     2.214942 -3.178074  1.908598
  S     2.330174  1.413354  2.515030
  S     5.228748 -2.311588 -0.742680
  S     5.288194  1.264364 -0.474631
  S     4.348018 -1.965657  3.294181
  S     4.976541  1.482730  3.625195
