16  
    
  C     4.276615 -2.541196  1.577134
  C     4.160305  1.157366  1.661170
  C     3.087622 -3.163953  1.061653
  C     2.852324  0.975725  1.098109
  N     5.254189 -2.348576  0.708576
  N     5.164579  1.207768  0.749737
  N     3.190943 -3.422868 -0.237731
  N     2.861519  0.740832 -0.209318
  N     2.642307 -2.793948  3.616763
  N     2.384882  1.348430  3.619217
  S     1.831538 -3.397874  2.285333
  S     1.546344  0.988972  2.210627
  S     4.724267 -3.079345 -0.669582
  S     4.491647  0.809431 -0.705748
  S     4.128536 -2.091015  3.280914
  S     4.055837  1.422690  3.469673
