16  
    
  C     8.422344 -0.919812  2.463478
  C     8.171340  2.910028  2.320118
  C     7.123953 -1.416614  2.004445
  C     7.017506  2.284697  1.682062
  N     9.344659 -0.906793  1.501584
  N     9.283581  3.005317  1.553736
  N     7.176140 -1.912561  0.769278
  N     7.159480  2.008217  0.388121
  N     6.743047 -0.760770  4.527096
  N     6.235707  2.706514  4.111450
  S     5.849623 -1.416479  3.273272
  S     5.601978  2.047458  2.655875
  S     8.693476 -1.615762  0.119316
  S     8.755488  2.476958  0.056502
  S     8.333590 -0.413300  4.151162
  S     7.839335  3.166419  3.987954
