16  
    
  C    12.065556  1.606609  3.364307
  C    12.255679  5.315678  3.525698
  C    10.956843  0.930631  2.717139
  C    11.173262  4.727772  2.846281
  N    13.209285  1.694104  2.667325
  N    13.322625  5.515177  2.716194
  N    11.248847  0.774545  1.416894
  N    11.319447  4.357557  1.567333
  N    10.143277  1.200184  5.075140
  N    10.292996  5.217017  5.252215
  S     9.577597  0.493983  3.651576
  S     9.741171  4.550767  3.793620
  S    12.813402  1.258574  1.149628
  S    12.943213  4.782863  1.262264
  S    11.718539  1.767583  5.093013
  S    11.920297  5.627213  5.259373
