16  
    
  C     6.116334 -1.882316  1.672524
  C     6.232670  1.888690  1.852250
  C     4.920750 -2.378773  1.038125
  C     4.980533  1.839019  1.171292
  N     7.169867 -2.055933  0.881418
  N     7.317256  1.838723  1.088520
  N     5.023278 -2.664415 -0.251251
  N     5.049482  1.630165 -0.143093
  N     4.289100 -1.961130  3.558832
  N     4.433153  1.745041  3.673012
  S     3.574504 -2.513320  2.167384
  S     3.581633  1.974608  2.233597
  S     6.576798 -2.384389 -0.618151
  S     6.736975  1.711593 -0.522977
  S     5.943842 -1.597976  3.382556
  S     6.089465  1.857736  3.572166
