16  
    
  C    11.342691  0.649383  2.993179
  C    11.087243  4.386132  3.571696
  C    10.295981  0.045323  2.193856
  C     9.758001  4.046101  3.058244
  N    12.513437  0.850326  2.331609
  N    12.102012  4.453965  2.717607
  N    10.729743 -0.413192  1.011693
  N     9.839322  3.891598  1.729788
  N     9.308109  0.371173  4.583343
  N     9.368366  4.706022  5.444835
  S     8.837772 -0.280554  3.110527
  S     8.487577  4.177380  4.144763
  S    12.272737  0.142142  0.873409
  S    11.381022  4.125969  1.259641
  S    10.902226  0.743618  4.655814
  S    11.000976  4.979443  5.218751
