16  
    
  C     9.681995  0.122781  2.803207
  C     9.843506  3.496455  2.662217
  C     8.570505 -0.500066  2.171658
  C     8.632661  3.124135  2.050244
  N    10.651014  0.471326  1.938181
  N    10.766920  3.922258  1.813257
  N     8.631938 -0.450675  0.826577
  N     8.634672  3.111705  0.703866
  N     8.239347 -0.762683  4.698466
  N     8.126100  3.212199  4.643581
  S     7.325276 -1.026716  3.321624
  S     7.328144  2.860160  3.257207
  S    10.092055  0.167501  0.419834
  S    10.148222  3.676637  0.298800
  S     9.698403  0.061527  4.532920
  S     9.689772  3.728136  4.326701
