16  
    
  C     9.782324 -0.198967  2.847748
  C     9.571967  3.873137  2.713719
  C     8.589180 -0.644541  2.090359
  C     8.343490  3.553728  1.998640
  N    10.828424 -0.060192  2.107576
  N    10.651355  3.902418  1.936294
  N     8.828338 -0.852872  0.821374
  N     8.516542  3.483808  0.682042
  N     7.862529 -0.393195  4.620305
  N     7.879336  3.473781  4.556432
  S     7.230864 -0.846492  3.149516
  S     7.101768  3.219177  3.117929
  S    10.397742 -0.379221  0.546063
  S    10.136767  3.692846  0.438427
  S     9.479647  0.063100  4.550927
  S     9.492681  3.763338  4.483053
