16  
    
  C     9.724449 -0.138394  2.561338
  C     9.679998  3.732186  2.511635
  C     8.513276 -0.632177  2.015316
  C     8.547032  3.121438  1.909058
  N    10.639782  0.241896  1.653797
  N    10.616972  4.082584  1.663853
  N     8.492421 -0.553067  0.672940
  N     8.631784  2.951559  0.580654
  N     8.268963 -0.569408  4.621757
  N     8.287059  3.030970  4.535014
  S     7.386146 -0.961878  3.273524
  S     7.431593  2.690421  3.145777
  S     9.905437  0.132780  0.200758
  S    10.145041  3.601320  0.179700
  S     9.815721 -0.055783  4.296100
  S     9.653865  3.995917  4.325672
