16  
    
  C    11.749569  1.166352  3.291670
  C    12.002605  5.019546  3.275306
  C    10.521370  0.583645  2.720598
  C    10.778631  4.430044  2.710760
  N    12.788946  1.292972  2.479316
  N    13.002346  5.053177  2.413433
  N    10.685637  0.341881  1.430034
  N    10.855133  4.061536  1.413475
  N     9.834687  1.147956  5.155124
  N    10.222020  5.114596  5.135808
  S     9.122165  0.551709  3.751144
  S     9.462990  4.361993  3.874920
  S    12.252938  0.638159  1.050133
  S    12.362115  4.498048  0.912543
  S    11.519247  1.329340  4.998171
  S    11.804914  5.525146  4.914890
