16  
    
  C    12.038416  1.338273  3.462645
  C    12.238799  5.271078  3.426533
  C    10.969335  0.869356  2.699320
  C    11.071951  4.698831  2.819396
  N    13.131046  1.676148  2.785962
  N    13.375290  5.315156  2.714707
  N    11.194429  0.638538  1.378506
  N    11.357506  4.363942  1.547798
  N    10.136380  1.180094  5.114954
  N    10.310755  5.316580  5.163567
  S     9.624128  0.518215  3.706060
  S     9.643293  4.619593  3.825802
  S    12.743874  1.222735  1.192517
  S    12.914477  4.738224  1.206282
  S    11.671528  1.752343  5.109999
  S    11.935247  5.646621  5.087717
