16  
    
  C     7.175877 -1.316024  2.311034
  C     7.789839  2.833905  2.350688
  C     6.116889 -1.867126  1.514058
  C     6.605305  2.337750  1.680561
  N     8.191929 -0.789625  1.613775
  N     8.850188  3.073209  1.579408
  N     6.415203 -1.996172  0.208941
  N     6.712931  2.288918  0.354469
  N     5.370753 -2.055992  3.965551
  N     6.003092  2.449222  4.161293
  S     4.804887 -2.563718  2.434803
  S     5.242345  2.027910  2.716693
  S     7.896123 -1.272403  0.063860
  S     8.336032  2.687119 -0.010011
  S     6.835869 -1.342782  3.976647
  S     7.541604  2.942107  4.043980
