16  
    
  C    11.978842  1.555542  3.480800
  C    12.129719  5.046779  3.784136
  C    10.884073  0.914643  2.812739
  C    10.894753  4.526245  3.292226
  N    12.911015  1.986991  2.674506
  N    13.007123  5.445936  2.846665
  N    11.088002  0.656177  1.531087
  N    10.734978  4.599510  2.014407
  N    10.355952  0.969878  5.330386
  N    10.551392  4.530366  5.828722
  S     9.767639  0.301262  3.950114
  S     9.638041  4.181254  4.444909
  S    12.536515  1.456082  1.117131
  S    12.218423  5.214518  1.405381
  S    11.847220  1.686568  5.297830
  S    12.148070  4.975356  5.530866
