16  
    
  C     9.023349 -0.423693  2.538531
  C     8.967476  3.441505  2.722826
  C     7.774315 -0.829274  1.925049
  C     7.776676  3.079178  2.090324
  N    10.010782 -0.107542  1.664313
  N     9.966950  3.554459  1.854426
  N     7.830362 -0.871967  0.589887
  N     7.801283  2.933863  0.778870
  N     7.301171 -0.760673  4.471703
  N     7.308882  3.189750  4.623621
  S     6.491720 -1.026540  3.070876
  S     6.513289  2.816306  3.226760
  S     9.339134 -0.368963  0.145856
  S     9.316387  3.376272  0.300197
  S     8.871799 -0.319428  4.337473
  S     8.916914  3.545627  4.501262
