16  
    
  C     7.230941 -1.401679  2.281189
  C     7.756984  2.793925  2.285785
  C     6.083784 -1.825215  1.491619
  C     6.590049  2.279494  1.609108
  N     8.239624 -0.904780  1.543313
  N     8.765817  2.967284  1.472694
  N     6.314839 -1.882021  0.156896
  N     6.711826  2.114197  0.302638
  N     5.339429 -1.813236  3.926944
  N     6.021188  2.506073  4.201559
  S     4.692556 -2.142336  2.414280
  S     5.290229  2.059550  2.751072
  S     7.797350 -1.167294 -0.008875
  S     8.267659  2.570533 -0.091425
  S     6.939390 -1.202751  3.965851
  S     7.585652  3.122682  4.010568
