16  
    
  C     7.797405 -0.846469  1.764670
  C     7.847941  2.933245  2.377039
  C     6.559267 -1.441245  1.249947
  C     6.725207  2.437301  1.628190
  N     8.828477 -0.874800  0.947803
  N     8.934442  3.120651  1.658265
  N     6.644017 -1.709622 -0.028360
  N     7.011748  2.191819  0.379717
  N     6.185021 -1.040627  3.686468
  N     5.928565  2.657055  4.070474
  S     5.281242 -1.469212  2.345588
  S     5.298645  2.149180  2.652101
  S     8.183285 -1.407332 -0.470165
  S     8.523453  2.721560  0.054269
  S     7.744964 -0.601254  3.466228
  S     7.459854  3.197436  4.059938
