16  
    
  C     5.915193 -2.195408  1.713433
  C     5.422893  1.181382  1.724362
  C     4.614875 -2.446419  1.158716
  C     4.177973  0.821155  1.118285
  N     6.836840 -2.079774  0.769355
  N     6.502943  1.096193  0.939369
  N     4.603403 -2.671524 -0.174670
  N     4.242346  0.579078 -0.183140
  N     4.298077 -2.318535  3.754593
  N     3.739731  1.216394  3.647251
  S     3.368226 -2.570611  2.381134
  S     2.908727  0.692664  2.283982
  S     6.150969 -2.258378 -0.704022
  S     5.879454  0.796509 -0.584407
  S     5.974245 -1.992444  3.407776
  S     5.312746  1.675624  3.404049
