16  
    
  C     8.753370 -0.265466  2.517721
  C     8.622649  3.014094  2.639941
  C     7.574378 -0.815770  1.881099
  C     7.402586  2.727269  1.908764
  N     9.822715 -0.100185  1.695151
  N     9.674877  3.106519  1.825713
  N     7.670413 -0.896037  0.542280
  N     7.545431  2.599301  0.593736
  N     6.923613 -0.621952  4.274442
  N     6.723058  2.962149  4.377938
  S     6.186788 -1.003315  2.845710
  S     6.076624  2.474135  2.913568
  S     9.181339 -0.428858  0.198621
  S     9.123146  2.839100  0.230860
  S     8.529125 -0.062910  4.209976
  S     8.365216  3.245200  4.298911
