16  
    
  C    11.980357  1.561026  3.473258
  C    12.134528  5.043153  3.774616
  C    10.907632  0.918809  2.816220
  C    10.889193  4.514590  3.303840
  N    12.919969  1.962799  2.667954
  N    13.024731  5.456693  2.851860
  N    11.082958  0.657008  1.527642
  N    10.738348  4.606334  2.007587
  N    10.347989  0.985233  5.327504
  N    10.553491  4.542266  5.833916
  S     9.771271  0.309409  3.942155
  S     9.639853  4.196262  4.450959
  S    12.536277  1.453116  1.117693
  S    12.227917  5.215877  1.404537
  S    11.841388  1.690808  5.287369
  S    12.147724  4.976253  5.527105
