16  
    
  C     9.052404 -0.472761  2.396628
  C     9.643073  3.348258  2.727376
  C     7.923102 -1.026656  1.690497
  C     8.318855  3.056344  2.191757
  N    10.165846 -0.392870  1.721989
  N    10.647694  3.361603  1.840062
  N     8.160263 -1.228086  0.438725
  N     8.334001  2.673612  0.934952
  N     6.958140 -0.223755  3.950849
  N     7.764509  3.522679  4.654658
  S     6.415295 -1.077587  2.628409
  S     6.917843  3.315731  3.229880
  S     9.752695 -0.833104  0.147939
  S     9.889085  2.966292  0.390877
  S     8.618930 -0.073521  4.042964
  S     9.426693  3.737287  4.417257
