16  
    
  C     9.118207 -0.544119  2.581013
  C     9.520761  3.584418  2.793454
  C     7.920835 -0.946726  1.928616
  C     8.317743  3.081832  2.187550
  N    10.082359 -0.270108  1.680095
  N    10.566282  3.634964  1.952953
  N     7.956852 -1.087691  0.599585
  N     8.390002  2.696330  0.907841
  N     7.358588 -0.676239  4.391370
  N     7.724566  3.868970  4.625909
  S     6.583942 -1.166058  2.961151
  S     7.021826  3.259566  3.238847
  S     9.475472 -0.628493  0.162630
  S    10.002357  3.018543  0.539310
  S     9.024748 -0.401148  4.305266
  S     9.384498  3.947130  4.541840
