16  
    
  C    12.738385  1.699620  3.653405
  C    12.909352  5.604213  3.769554
  C    11.562303  1.346531  2.992989
  C    11.717685  4.961237  3.242497
  N    13.846715  1.719815  2.869848
  N    13.820514  5.648455  2.802419
  N    11.728622  0.969655  1.733396
  N    11.744133  4.628170  1.954349
  N    10.870221  1.694053  5.476614
  N    11.167567  5.485363  5.735761
  S    10.227601  1.173237  4.029145
  S    10.420258  4.770558  4.337363
  S    13.317304  1.160153  1.369656
  S    13.251814  4.992380  1.433764
  S    12.541608  1.945191  5.427980
  S    12.767396  5.969738  5.443322
