16  
    
  C     8.441579 -1.009401  2.488081
  C     8.186722  2.607807  2.241252
  C     7.164681 -1.501206  2.103021
  C     7.033805  2.097637  1.549939
  N     9.322262 -0.878316  1.493742
  N     9.282785  2.780118  1.468044
  N     7.157860 -1.989831  0.864033
  N     7.167352  1.975183  0.213867
  N     6.800369 -0.698694  4.443232
  N     6.202296  2.777797  3.954296
  S     5.923150 -1.363162  3.251592
  S     5.550264  2.064810  2.527349
  S     8.612819 -1.593511  0.195522
  S     8.817450  2.372290 -0.034527
  S     8.440405 -0.443069  4.109090
  S     7.898627  2.961919  3.952698
