16  
    
  C     5.887323 -2.159203  1.707797
  C     5.501569  1.177048  1.734544
  C     4.584159 -2.503548  1.159119
  C     4.261121  0.738459  1.142043
  N     6.898585 -2.015603  0.858257
  N     6.530617  1.120062  0.892302
  N     4.584053 -2.560743 -0.166582
  N     4.383490  0.557137 -0.184295
  N     4.330043 -2.324607  3.734561
  N     3.742757  1.232929  3.649016
  S     3.385251 -2.574856  2.396595
  S     2.948692  0.718365  2.267282
  S     6.176415 -2.297075 -0.659890
  S     5.946652  0.783373 -0.592380
  S     5.953720 -2.049740  3.468254
  S     5.344296  1.625109  3.439464
