16  
    
  C     9.841440 -0.234112  2.501505
  C     9.827345  3.636348  2.520722
  C     8.487600 -0.606231  2.028287
  C     8.603398  3.085088  1.976233
  N    10.672369  0.129828  1.540705
  N    10.786746  3.939884  1.608279
  N     8.471933 -0.653207  0.712253
  N     8.592000  3.126035  0.652190
  N     8.261222 -0.675115  4.540903
  N     8.226324  2.977114  4.478305
  S     7.290991 -0.968510  3.212639
  S     7.338916  2.671680  3.161061
  S     9.900440 -0.200371  0.096050
  S    10.045440  3.694334  0.192077
  S     9.825779 -0.073466  4.262163
  S     9.661258  3.724147  4.187504
