16  
    
  C     5.915731 -2.148771  1.783883
  C     5.590311  1.146986  1.771367
  C     4.625226 -2.501792  1.192227
  C     4.367266  0.745386  1.145074
  N     6.880264 -1.988565  0.884724
  N     6.610191  1.239012  0.898817
  N     4.612693 -2.482150 -0.155722
  N     4.438615  0.503478 -0.159970
  N     4.331249 -2.350610  3.721708
  N     3.746693  1.232024  3.605134
  S     3.396767 -2.580133  2.418249
  S     2.987009  0.727921  2.254437
  S     6.191009 -2.326141 -0.591868
  S     6.020230  0.782910 -0.597028
  S     5.899001 -2.100110  3.503811
  S     5.384174  1.550331  3.446215
