16  
    
  C     7.235717 -1.395149  2.256519
  C     7.694093  2.798845  2.341337
  C     6.240498 -2.111208  1.483243
  C     6.523644  2.347150  1.627175
  N     8.223700 -0.868437  1.515821
  N     8.739175  2.909636  1.561408
  N     6.472395 -2.187626  0.167486
  N     6.639922  2.288837  0.323338
  N     5.441076 -2.097168  3.971402
  N     6.038829  2.286759  4.124816
  S     4.834088 -2.540978  2.459658
  S     5.227354  2.018708  2.711200
  S     7.851173 -1.287170 -0.063924
  S     8.196189  2.715777 -0.044883
  S     6.889417 -1.401638  4.004036
  S     7.510776  2.973806  4.057712
