16  
    
  C     4.707525 -1.999412  1.680533
  C     4.375920  1.389221  1.389738
  C     3.427924 -2.205944  1.109803
  C     3.149700  1.033105  0.741815
  N     5.743545 -2.035781  0.798465
  N     5.387219  1.632453  0.546257
  N     3.471278 -2.484654 -0.220522
  N     3.286695  0.780840 -0.552771
  N     3.035201 -1.826767  3.616698
  N     2.609886  0.714151  3.223637
  S     2.131115 -2.181611  2.291152
  S     1.817883  0.712494  1.764958
  S     5.050338 -2.273179 -0.657620
  S     4.843564  1.308925 -0.993768
  S     4.689095 -1.799140  3.408217
  S     4.185764  1.440647  3.179322
