16  
    
  C    10.920637  0.638602  3.048929
  C    10.953593  4.400233  3.406789
  C     9.713636  0.225220  2.389686
  C     9.812281  3.820384  2.775826
  N    11.880758  0.963577  2.206986
  N    11.981275  4.616122  2.621528
  N     9.873181 -0.017766  1.112072
  N     9.925999  3.654505  1.464079
  N     9.238755  0.179390  4.954132
  N     9.198625  4.063241  5.243380
  S     8.454621 -0.175344  3.511647
  S     8.461521  3.510882  3.855624
  S    11.410028  0.521666  0.666398
  S    11.433220  4.228606  1.076418
  S    10.798296  0.714827  4.838475
  S    10.722841  4.690261  5.100756
