16  
    
  C    12.665823  1.475971  3.588253
  C    12.895553  5.485255  3.753373
  C    11.492580  0.894206  2.927168
  C    11.776137  4.919976  3.081135
  N    13.721943  1.667778  2.770442
  N    13.915307  5.820517  2.962202
  N    11.668051  0.616428  1.647015
  N    11.922549  4.664009  1.734610
  N    10.813039  1.463251  5.364881
  N    11.076221  5.116751  5.537846
  S    10.148620  0.847542  3.981540
  S    10.362930  4.693594  4.084803
  S    13.234848  1.182601  1.263918
  S    13.440452  5.259122  1.423371
  S    12.373109  2.026251  5.248545
  S    12.617112  5.798446  5.440919
