16  
    
  C     4.362809 -2.523944  1.740911
  C     4.064030  1.152971  1.524708
  C     3.227209 -3.247845  1.210663
  C     2.871774  0.551274  0.966174
  N     5.247169 -2.091122  0.819156
  N     5.056965  1.430870  0.657819
  N     3.280819 -3.450277 -0.114083
  N     3.017781  0.356676 -0.333312
  N     2.585458 -2.782903  3.596742
  N     2.300809  1.121070  3.422280
  S     1.886947 -3.419171  2.215269
  S     1.519133  0.578871  2.095029
  S     4.748903 -2.789668 -0.626311
  S     4.518672  0.826052 -0.842285
  S     4.119080 -2.194587  3.436295
  S     3.915423  1.603195  3.239628
