16  
    
  C     7.863351 -0.782610  2.077405
  C     8.241099  2.872606  2.471282
  C     6.721797 -1.382497  1.392007
  C     6.972051  2.568003  1.832346
  N     8.791273 -0.412928  1.215603
  N     9.243861  3.053495  1.599179
  N     6.953927 -1.729351  0.134015
  N     6.923188  2.592830  0.494176
  N     6.058232 -1.207448  3.983349
  N     6.479677  2.862841  4.367520
  S     5.376551 -1.675149  2.518865
  S     5.735501  2.384215  2.946957
  S     8.457157 -1.077314 -0.300030
  S     8.577265  2.844039  0.106445
  S     7.578560 -0.606197  3.836085
  S     8.185964  2.970903  4.225422
