16  
    
  C    10.111504  0.594334  2.896096
  C    10.699621  4.376859  2.884654
  C     9.023032 -0.060162  2.259119
  C     9.525441  4.082501  2.093687
  N    11.047499  0.978200  2.053366
  N    11.769941  4.664905  2.172883
  N     9.080594 -0.040226  0.932200
  N     9.688167  4.163046  0.786562
  N     8.502380  0.140844  4.777814
  N     8.940563  3.872796  4.633381
  S     7.832733 -0.586981  3.425447
  S     8.165958  3.679549  3.159041
  S    10.507410  0.632161  0.530207
  S    11.358544  4.510963  0.578412
  S    10.135887  0.359327  4.661421
  S    10.540924  4.265139  4.606229
