16  
    
  C     9.792044  0.012686  2.637040
  C     9.793363  3.901913  2.574291
  C     8.523935 -0.483343  2.115424
  C     8.678460  3.203070  2.059080
  N    10.680557  0.486787  1.733401
  N    10.726864  4.207459  1.687556
  N     8.474277 -0.425784  0.780095
  N     8.692395  2.937881  0.780069
  N     8.227875 -0.513284  4.626661
  N     8.205640  3.156955  4.545778
  S     7.362435 -1.058241  3.267666
  S     7.396378  2.698613  3.146016
  S     9.958073  0.166652  0.237556
  S    10.116679  3.515565  0.186305
  S     9.820462 -0.083936  4.396272
  S     9.612726  3.934155  4.260771
