16  
    
  C     4.221383 -2.654235  1.564538
  C     4.226168  1.371314  1.621461
  C     2.991876 -3.225399  1.046891
  C     2.899862  1.242761  1.068665
  N     5.181452 -2.534852  0.632499
  N     5.245366  1.327747  0.759826
  N     3.094102 -3.673635 -0.186853
  N     2.917564  1.000634 -0.241465
  N     2.403099 -2.575072  3.461235
  N     2.554019  1.619096  3.527811
  S     1.640859 -3.085999  2.102176
  S     1.616427  1.561858  2.202901
  S     4.578051 -3.297924 -0.741474
  S     4.553682  0.987480 -0.667613
  S     4.023397 -2.294815  3.299487
  S     4.220656  1.502910  3.363164
