16  
    
  C    12.697282  1.626990  3.313452
  C    12.585981  5.373568  3.261503
  C    11.477416  1.261311  2.764239
  C    11.362972  4.826602  2.719329
  N    13.674106  1.906302  2.449610
  N    13.505090  5.567461  2.294123
  N    11.554606  1.080060  1.444474
  N    11.322972  4.698285  1.399642
  N    11.061359  1.518326  5.295573
  N    11.061771  4.794783  5.231969
  S    10.313802  0.848754  3.937046
  S    10.175869  4.441426  3.875516
  S    13.045827  1.561051  0.959501
  S    12.865854  5.113425  0.886748
  S    12.755839  1.662616  5.125973
  S    12.509830  5.488730  4.977531
