16  
    
  C     7.350537 -1.617446  2.144602
  C     7.593024  2.490226  2.137451
  C     6.106999 -1.975600  1.510147
  C     6.336484  1.979965  1.576383
  N     8.331200 -1.271450  1.338574
  N     8.548194  2.736897  1.240710
  N     6.224341 -2.030025  0.202252
  N     6.267521  1.936962  0.248439
  N     5.587939 -2.121898  3.923575
  N     5.897933  2.112999  4.075233
  S     4.845451 -2.542010  2.518260
  S     5.002536  1.925471  2.759584
  S     7.765584 -1.579179 -0.173282
  S     7.873637  2.425701 -0.261186
  S     7.223866 -1.612717  3.894603
  S     7.431403  2.678547  3.863472
