16  
    
  C     6.292966 -1.622902  1.822535
  C     6.420396  2.259364  1.970178
  C     5.131789 -2.180610  1.173787
  C     5.293622  1.628935  1.391308
  N     7.364278 -1.519348  1.069416
  N     7.529289  2.337458  1.200162
  N     5.327743 -2.505659 -0.077456
  N     5.487977  1.358271  0.098966
  N     4.528665 -2.185616  3.645619
  N     4.701023  1.851062  3.904002
  S     3.819707 -2.640261  2.212054
  S     3.920720  1.388633  2.472819
  S     6.918599 -1.984179 -0.489040
  S     7.024189  1.815111 -0.280188
  S     6.047840 -1.451903  3.553361
  S     6.237625  2.485867  3.690075
