16  
    
  C     4.547464 -2.504939  1.500763
  C     5.222906  1.485162  1.688042
  C     3.280623 -2.785108  0.851585
  C     3.943597  1.077318  1.134089
  N     5.543833 -2.407352  0.683030
  N     6.243394  1.648842  0.815975
  N     3.340821 -2.758722 -0.457570
  N     4.001272  1.006966 -0.188399
  N     2.724531 -2.755898  3.337975
  N     3.657213  1.331284  3.632047
  S     1.934912 -3.107376  1.941457
  S     2.635842  1.154862  2.358847
  S     4.937679 -2.473343 -0.886628
  S     5.496972  1.449353 -0.641398
  S     4.376280 -2.719655  3.225162
  S     5.222080  1.657941  3.362898
