16  
    
  C     7.328977 -1.758886  2.215806
  C     7.453668  2.419130  2.100587
  C     6.120849 -2.109664  1.506641
  C     6.171073  1.979264  1.548189
  N     8.290100 -1.382273  1.389256
  N     8.467176  2.480649  1.233612
  N     6.267247 -2.235765  0.177946
  N     6.170187  1.933651  0.224952
  N     5.563432 -2.041223  4.069717
  N     5.844298  2.173453  4.069141
  S     4.770236 -2.293335  2.621005
  S     4.941761  1.711363  2.756983
  S     7.825519 -1.691347 -0.158283
  S     7.823674  2.133787 -0.208965
  S     7.147079 -1.685102  3.923891
  S     7.384319  2.649372  3.843783
