16  
    
  C     4.170852 -2.670453  1.570803
  C     4.186819  1.417809  1.621423
  C     2.919596 -3.181852  0.979895
  C     2.907768  1.250961  0.972864
  N     5.179244 -2.623329  0.717455
  N     5.192669  1.370688  0.766975
  N     3.009511 -3.551113 -0.271723
  N     2.948996  0.978269 -0.345010
  N     2.336999 -2.594333  3.444587
  N     2.521799  1.484450  3.630924
  S     1.570149 -3.173254  2.076796
  S     1.672391  1.450062  2.192178
  S     4.652043 -3.331886 -0.714476
  S     4.528576  1.018887 -0.761429
  S     3.995324 -2.313506  3.288477
  S     4.152616  1.580491  3.328362
