16  
    
  C    11.728062  0.988082  3.219460
  C    11.942094  4.979498  3.171129
  C    10.457009  0.558796  2.587501
  C    10.752394  4.263913  2.677335
  N    12.723060  1.104576  2.363514
  N    12.933541  5.153156  2.292424
  N    10.508114  0.511883  1.254517
  N    10.838312  3.892765  1.398535
  N     9.852463  1.067806  5.075058
  N    10.259229  5.220128  5.042723
  S     9.102532  0.482294  3.679991
  S     9.548337  4.269248  3.892689
  S    12.075894  0.847782  0.866663
  S    12.337609  4.483484  0.863944
  S    11.504211  1.276767  4.856541
  S    11.864392  5.610474  4.824167
