16  
    
  C    12.506792  1.559121  3.455534
  C    12.347595  5.358864  3.479080
  C    11.319799  1.106791  2.830547
  C    11.120015  4.737126  2.956382
  N    13.450069  1.801705  2.525335
  N    13.372396  5.536810  2.609981
  N    11.345534  0.893773  1.497884
  N    11.256859  4.491520  1.628866
  N    10.892009  1.170137  5.412676
  N    10.654954  4.941144  5.400931
  S    10.056847  0.827101  4.041072
  S     9.805478  4.591512  4.049565
  S    12.915233  1.328865  1.074796
  S    12.734543  5.054862  1.152979
  S    12.363541  1.832100  5.194706
  S    12.213224  5.485588  5.209325
