16  
    
  C    12.053203  1.367763  3.471070
  C    12.271326  5.104821  3.358574
  C    10.879090  0.837814  2.780326
  C    11.050431  4.652077  2.685118
  N    13.143008  1.606203  2.735514
  N    13.319746  5.038856  2.517962
  N    11.205637  0.406632  1.530635
  N    11.176057  4.426900  1.356404
  N    10.160910  1.081479  5.185037
  N    10.383293  5.392119  5.069022
  S     9.464884  0.628560  3.754897
  S     9.671340  4.772536  3.720116
  S    12.705551  0.993204  1.196496
  S    12.756358  4.551796  1.010225
  S    11.705655  1.668148  5.151839
  S    12.006193  5.743422  4.937603
