16  
    
  C    11.534265  1.208241  3.095082
  C    11.393156  4.903531  3.029032
  C    10.478903  0.334655  2.603016
  C    10.279533  4.300172  2.355180
  N    12.321917  1.675979  2.134435
  N    12.424604  5.240613  2.272456
  N    10.423332  0.271874  1.251718
  N    10.522598  4.153571  1.088486
  N     9.914148  0.819239  5.109622
  N     9.541115  4.567868  4.766220
  S     9.200961  0.099144  3.798520
  S     8.956144  3.877908  3.345098
  S    11.728984  1.134855  0.642854
  S    11.957169  4.863800  0.753780
  S    11.410212  1.451404  4.845956
  S    11.132143  5.117525  4.722021
