16  
    
  C     7.143895 -1.588089  1.848038
  C     6.991321  2.118722  1.952739
  C     5.973249 -2.125091  1.189737
  C     5.792206  1.730253  1.278664
  N     8.239820 -1.532579  1.083442
  N     8.028085  2.296635  1.135751
  N     6.175326 -2.289368 -0.120006
  N     5.884492  1.599579 -0.039442
  N     5.317362 -1.802622  3.676546
  N     5.278729  1.631687  3.841768
  S     4.563294 -2.177912  2.218934
  S     4.460146  1.456706  2.360801
  S     7.752902 -1.876315 -0.463076
  S     7.420052  2.005777 -0.415720
  S     6.872270 -1.261221  3.581499
  S     6.893353  2.111691  3.720568
