16  
    
  C     4.226166 -2.266196  1.754280
  C     3.973830  1.206160  1.185192
  C     3.074600 -2.917884  1.230192
  C     2.986385  0.311633  0.721082
  N     5.252668 -2.139462  0.876721
  N     4.983845  1.456448  0.340254
  N     3.219922 -3.250300 -0.052813
  N     3.163945 -0.044962 -0.548597
  N     2.605143 -2.762511  3.767205
  N     2.327674  0.936666  3.100701
  S     1.787451 -3.213906  2.400673
  S     1.720532  0.033872  1.824721
  S     4.668339 -2.688362 -0.551304
  S     4.565159  0.744380 -1.083367
  S     4.057608 -1.973095  3.532898
  S     3.723529  1.676060  2.826625
