16  
    
  C    10.964716  0.725336  2.848491
  C    11.140566  4.143169  3.310928
  C     9.859010 -0.055223  2.374307
  C     9.870588  4.007310  2.671288
  N    11.918261  0.919192  1.961993
  N    12.163198  4.230441  2.472070
  N     9.995517 -0.470518  1.103948
  N     9.908450  3.916410  1.340597
  N     9.435370  0.632498  4.860249
  N     9.382421  4.362484  5.119945
  S     8.649031 -0.218550  3.606241
  S     8.512891  3.863281  3.770354
  S    11.501211  0.111382  0.582401
  S    11.504313  4.191214  0.959977
  S    11.047415  1.065647  4.549194
  S    11.022981  4.417735  4.971595
