16  
    
  C    11.782996  1.096383  3.402687
  C    11.903936  5.084747  3.327448
  C    10.563212  0.635472  2.679107
  C    10.718160  4.518620  2.687955
  N    12.846684  1.164907  2.580407
  N    12.978291  5.092283  2.526552
  N    10.799762  0.203683  1.436195
  N    10.809615  4.208774  1.376490
  N     9.990005  0.928248  5.169785
  N    10.174919  4.901750  5.192600
  S     9.244117  0.592616  3.709526
  S     9.350743  4.425098  3.824161
  S    12.368371  0.677388  1.088096
  S    12.473347  4.463846  1.056579
  S    11.548617  1.597767  5.098033
  S    11.759395  5.384756  4.986597
