16  
    
  C    12.688283  1.730639  3.547182
  C    12.867761  5.532665  3.741315
  C    11.523906  1.169145  2.990842
  C    11.716158  4.843277  3.096872
  N    13.788983  1.714624  2.851634
  N    13.856608  5.743174  2.895681
  N    11.696136  0.842800  1.724349
  N    11.895860  4.541803  1.835029
  N    10.838906  1.608210  5.366149
  N    11.192297  5.316709  5.619608
  S    10.119992  1.016760  4.004178
  S    10.347120  4.760193  4.308095
  S    13.337658  1.086412  1.391994
  S    13.393219  5.187943  1.432728
  S    12.462192  1.954134  5.293377
  S    12.683220  5.841697  5.419122
