16  
    
  C     6.817274 -1.822946  1.734075
  C     6.606317  2.276085  2.023136
  C     5.540320 -2.188374  1.156002
  C     5.520969  1.487569  1.451470
  N     7.821698 -1.685524  0.875064
  N     7.538094  2.610703  1.146555
  N     5.560978 -2.248089 -0.174811
  N     5.617648  1.290245  0.139100
  N     5.156689 -2.107910  3.712576
  N     5.061911  1.517970  3.977453
  S     4.298263 -2.475496  2.335643
  S     4.268573  1.097187  2.576507
  S     7.113129 -1.799993 -0.639449
  S     7.018191  2.113741 -0.327939
  S     6.726272 -1.765652  3.450218
  S     6.493010  2.348110  3.715537
