16  
    
  C     3.670068 -2.708910  1.165264
  C     4.013892  1.037294  1.451058
  C     2.589869 -3.487720  0.662017
  C     2.857414  0.364674  0.901875
  N     4.686623 -2.605332  0.326575
  N     5.007503  1.226793  0.579696
  N     2.806707 -3.995023 -0.544835
  N     2.960389  0.121520 -0.409291
  N     1.963058 -2.968447  3.118100
  N     2.304904  0.694782  3.470650
  S     1.247909 -3.663329  1.757011
  S     1.448951  0.302108  2.007815
  S     4.249277 -3.454249 -1.043508
  S     4.445381  0.751442 -0.895201
  S     3.519071 -2.446651  2.889458
  S     3.888673  1.235987  3.236265
