16  
    
  C     8.712796 -1.010913  2.329214
  C     8.304524  3.209364  2.201967
  C     7.535359 -1.553350  1.730167
  C     7.202089  2.516163  1.650040
  N     9.698428 -0.629121  1.467715
  N     9.262516  3.498611  1.334254
  N     7.687658 -1.823316  0.420685
  N     7.289983  2.263544  0.360464
  N     6.983402 -1.483153  4.309117
  N     6.722986  2.815307  4.133993
  S     6.190895 -1.903849  2.875113
  S     5.977216  2.219040  2.796556
  S     9.179119 -1.193499 -0.053242
  S     8.785973  2.807063 -0.161580
  S     8.548009 -0.879763  4.102104
  S     8.279090  3.386608  3.934401
