16  
    
  C     7.187275 -1.280691  2.345894
  C     7.802357  2.862025  2.325281
  C     6.079370 -1.763366  1.526333
  C     6.621416  2.344423  1.652102
  N     8.255558 -0.920237  1.608344
  N     8.849316  3.080082  1.563315
  N     6.350312 -1.820323  0.201247
  N     6.761530  2.088525  0.368613
  N     5.249585 -1.883952  3.990560
  N     6.000746  2.505297  4.187599
  S     4.771295 -2.508119  2.452761
  S     5.291612  2.062190  2.677106
  S     7.886746 -1.212610  0.001332
  S     8.345013  2.679460  0.005785
  S     6.773810 -1.277278  4.061467
  S     7.588761  2.966175  4.065268
