16  
    
  C     8.376888 -0.908035  2.465722
  C     8.107078  2.650957  2.318918
  C     7.122616 -1.549957  2.025455
  C     6.961346  2.194821  1.572149
  N     9.298739 -0.882515  1.548002
  N     9.176135  2.845073  1.577063
  N     7.119047 -2.020060  0.786080
  N     7.220553  1.983691  0.292801
  N     6.865519 -0.698312  4.458492
  N     6.241416  2.834956  3.944106
  S     5.932059 -1.385030  3.236358
  S     5.601949  2.052211  2.614779
  S     8.624580 -1.605062  0.230434
  S     8.786217  2.431975 -0.018644
  S     8.438565 -0.444009  4.123175
  S     7.882846  3.062061  3.982741
