16  
    
  C     6.028590 -2.250406  1.741995
  C     6.106722  1.679524  1.846054
  C     4.757139 -2.437930  1.101740
  C     4.802060  1.782395  1.215577
  N     7.084821 -2.257384  0.950740
  N     7.096717  1.441015  0.983724
  N     4.868901 -2.814038 -0.153860
  N     4.778105  1.663040 -0.115505
  N     4.263527 -2.116083  3.603342
  N     4.442007  2.066218  3.780373
  S     3.471532 -2.470669  2.230316
  S     3.511104  1.940494  2.384953
  S     6.484648 -2.495012 -0.576713
  S     6.408190  1.497362 -0.543242
  S     5.898677 -2.000617  3.475917
  S     6.083374  1.886968  3.555702
