16  
    
  C    12.816879  1.687250  3.343253
  C    12.493007  5.220884  3.260450
  C    11.534777  1.197570  2.743775
  C    11.242424  4.790188  2.616938
  N    13.749639  1.851559  2.461190
  N    13.481632  5.511411  2.431777
  N    11.533806  1.050782  1.427360
  N    11.338263  4.683733  1.330112
  N    11.139226  1.516831  5.297282
  N    10.947618  4.768907  5.279173
  S    10.347544  0.866154  4.010499
  S    10.072961  4.451832  3.852854
  S    13.067788  1.488497  0.952780
  S    12.889241  5.131022  0.897719
  S    12.749096  1.724237  5.030880
  S    12.481314  5.481089  4.967099
