16  
    
  C     4.644470 -2.190649  1.529789
  C     4.680705  1.579207  1.654203
  C     3.311596 -2.377136  0.958411
  C     3.507245  1.091888  0.999452
  N     5.598362 -2.106404  0.630679
  N     5.607865  1.937166  0.775243
  N     3.292324 -2.418365 -0.355797
  N     3.522211  0.960851 -0.297763
  N     2.999519 -2.244798  3.560548
  N     2.789688  1.371268  3.455835
  S     2.030194 -2.110630  2.216103
  S     2.105488  0.948283  1.963589
  S     4.876613 -2.334309 -0.841333
  S     5.040342  1.525961 -0.743434
  S     4.651268 -1.883954  3.249399
  S     4.406976  1.693629  3.333159
