16  
    
  C    10.167188  0.597116  2.690065
  C    10.747353  4.312069  2.766547
  C     8.953445  0.105804  2.104304
  C     9.465255  3.845792  2.261787
  N    11.211265  0.749462  1.850418
  N    11.800908  4.253278  1.943162
  N     9.045963 -0.172216  0.801135
  N     9.540167  3.712572  0.938581
  N     8.361785  0.371225  4.564887
  N     8.952504  4.164114  4.744443
  S     7.736709 -0.438461  3.217832
  S     8.159455  3.641871  3.394691
  S    10.644026  0.135764  0.381449
  S    11.049603  3.938009  0.431161
  S     9.963235  0.810864  4.404098
  S    10.545399  4.637945  4.471472
