16  
    
  C    12.061988  1.360472  3.316349
  C    12.264172  5.054566  3.514992
  C    10.867487  0.948244  2.604624
  C    10.992454  4.736327  2.991805
  N    13.137842  1.428922  2.529179
  N    13.326922  5.141951  2.693046
  N    11.092168  0.527780  1.361817
  N    11.048016  4.569696  1.667507
  N    10.292260  1.294004  5.129063
  N    10.553479  5.251187  5.412440
  S     9.572697  0.840543  3.695526
  S     9.656818  4.729739  4.107826
  S    12.721526  0.836758  1.054507
  S    12.686487  4.816466  1.197727
  S    11.911016  1.623634  5.044028
  S    12.167257  5.496369  5.177875
