16  
    
  C    11.829274  1.157339  3.391039
  C    11.912217  5.020968  3.338187
  C    10.679163  0.552777  2.706141
  C    10.660477  4.598580  2.760644
  N    12.924352  1.151313  2.621430
  N    12.977919  5.096583  2.556293
  N    10.864000  0.347262  1.389996
  N    10.915636  4.258402  1.477012
  N    10.018503  0.941621  5.199966
  N    10.098917  4.841146  5.162459
  S     9.248387  0.571410  3.747285
  S     9.312464  4.437368  3.784465
  S    12.444382  0.702854  1.095323
  S    12.458739  4.475579  1.107732
  S    11.567496  1.652426  5.033248
  S    11.697639  5.276177  5.036602
