16  
    
  C     4.574471 -2.685826  1.558851
  C     5.099317  1.406393  1.689863
  C     3.304046 -2.763542  0.877316
  C     3.800969  1.217574  1.101924
  N     5.647183 -2.594216  0.781644
  N     6.118653  1.529876  0.856079
  N     3.397054 -2.858601 -0.417344
  N     3.854936  1.340539 -0.221428
  N     2.747390 -2.740089  3.410756
  N     3.454016  1.054400  3.652219
  S     1.943653 -2.811738  1.987104
  S     2.560205  0.717896  2.211506
  S     5.045707 -2.775312 -0.791805
  S     5.446451  1.493640 -0.642514
  S     4.383933 -2.417653  3.254930
  S     5.095527  1.401957  3.429263
