16  
    
  C    10.235198  0.466355  2.874686
  C    10.751051  4.461451  2.876830
  C     9.013733 -0.052909  2.263892
  C     9.592616  4.040757  2.114111
  N    11.094395  0.956325  1.992370
  N    11.763507  4.723244  2.049041
  N     9.036279 -0.190328  0.948246
  N     9.720231  3.912537  0.797514
  N     8.485941  0.072409  4.775389
  N     8.889248  3.872872  4.623616
  S     7.740557 -0.517194  3.375428
  S     8.229423  3.700255  3.119722
  S    10.441513  0.606836  0.485219
  S    11.249336  4.348235  0.486758
  S    10.104875  0.488170  4.651872
  S    10.506958  4.305746  4.642693
