16  
    
  C     7.246740 -1.371306  2.223560
  C     7.319454  2.163117  2.121527
  C     6.061797 -1.949221  1.637849
  C     6.149647  1.570659  1.553335
  N     8.253495 -1.300145  1.414802
  N     8.319607  2.342076  1.262441
  N     6.120385 -2.209837  0.358020
  N     6.261948  1.318320  0.249611
  N     5.457924 -1.366037  4.068574
  N     5.591074  2.060371  4.007565
  S     4.747881 -2.098920  2.768621
  S     4.838403  1.637663  2.635808
  S     7.706275 -1.878777 -0.070680
  S     7.735091  1.787135 -0.207527
  S     7.020415 -0.903033  3.849978
  S     7.198949  2.488897  3.823438
