16  
    
  C    10.508951  0.755265  3.022209
  C    10.579570  4.607109  2.791792
  C     9.339231  0.107547  2.477867
  C     9.455453  3.940561  2.222594
  N    11.547135  0.808186  2.166080
  N    11.594890  4.711604  1.941733
  N     9.335081 -0.119322  1.138252
  N     9.564470  3.449963  1.000066
  N     8.794530  0.576849  4.951742
  N     8.828176  4.452468  4.714776
  S     8.045471 -0.120692  3.609288
  S     8.175596  3.690973  3.370227
  S    10.912920  0.313969  0.688101
  S    11.094874  3.862593  0.524619
  S    10.366102  1.142954  4.713086
  S    10.415512  4.961127  4.552400
