16  
    
  C     7.867056 -0.925681  1.961769
  C     8.100835  3.051836  2.453859
  C     6.659620 -1.355373  1.350133
  C     6.918185  2.526168  1.779228
  N     8.899480 -0.704520  1.175277
  N     9.168854  3.205910  1.698981
  N     6.830739 -1.677193  0.095078
  N     7.044730  2.341069  0.482508
  N     6.036316 -0.875441  3.734138
  N     6.283837  2.428109  4.284162
  S     5.383463 -1.712734  2.417354
  S     5.482855  2.319862  2.854626
  S     8.361532 -1.212963 -0.287420
  S     8.668857  2.880336  0.129108
  S     7.668912 -0.583008  3.600492
  S     7.878042  3.017150  4.191757
