16  
    
  C    10.060149 -0.112411  2.981174
  C    10.341682  3.514085  3.134420
  C     8.873773 -0.396774  2.222486
  C     9.055768  3.668568  2.455157
  N    11.123465  0.167271  2.228533
  N    11.365339  3.529217  2.264052
  N     9.005577 -0.421366  0.910342
  N     9.160118  3.902081  1.156623
  N     8.077479 -0.544328  4.625464
  N     8.457349  3.561406  4.918895
  S     7.476701 -0.791175  3.102780
  S     7.726087  3.998805  3.517703
  S    10.596311 -0.021462  0.620244
  S    10.720781  3.782950  0.734304
  S     9.716782 -0.325110  4.652300
  S    10.127689  3.409861  4.880631
