16  
    
  C     4.727069 -1.972807  1.761047
  C     4.309874  1.327694  1.369858
  C     3.481831 -2.386081  1.168089
  C     3.130783  0.853080  0.676483
  N     5.759106 -1.891753  0.919649
  N     5.360256  1.514591  0.552029
  N     3.559480 -2.615033 -0.140083
  N     3.245591  0.817586 -0.675988
  N     3.014994 -1.866184  3.624413
  N     2.515475  0.863934  3.199308
  S     2.163627 -2.260849  2.251665
  S     1.706524  0.741667  1.728985
  S     5.132122 -2.270235 -0.604974
  S     4.774396  1.237170 -1.022693
  S     4.695786 -1.818869  3.481516
  S     4.099508  1.330201  3.149073
