16  
    
  C     8.297211 -0.893633  2.500718
  C     8.120467  3.040616  2.315536
  C     7.086619 -1.381679  1.933018
  C     7.007240  2.363502  1.662627
  N     9.293469 -0.960906  1.678295
  N     9.181805  3.213568  1.547560
  N     7.115768 -1.726781  0.675249
  N     7.172538  2.029868  0.390957
  N     6.617326 -0.813366  4.391712
  N     6.417846  2.491516  4.183945
  S     5.806917 -1.484878  3.047753
  S     5.673334  2.096812  2.729439
  S     8.685016 -1.480693  0.232945
  S     8.785658  2.566104  0.092487
  S     8.216285 -0.336072  4.143517
  S     7.841349  3.284210  4.084950
