16  
    
  C    10.327472  0.000406  2.811277
  C    10.248213  3.874214  3.067854
  C     9.055135 -0.287069  2.197271
  C     8.956791  3.689697  2.524547
  N    11.357573  0.053047  1.994007
  N    11.299011  4.025513  2.286938
  N     9.137733 -0.530186  0.907206
  N     9.129304  3.471416  1.210968
  N     8.508098 -0.141577  4.691380
  N     8.616596  4.369489  5.002838
  S     7.739901 -0.598460  3.316767
  S     7.623036  3.970636  3.685187
  S    10.736687 -0.316822  0.478443
  S    10.661503  3.718128  0.772426
  S    10.130607  0.044383  4.508353
  S    10.263212  4.286378  4.732813
