16  
    
  C     3.219802 -2.748756  1.665466
  C     3.609637  0.913718  1.452044
  C     2.232564 -3.438369  0.923566
  C     2.406487  0.435147  0.800567
  N     4.181077 -2.222460  0.882010
  N     4.535636  1.243821  0.558922
  N     2.444473 -3.479689 -0.390455
  N     2.408480  0.356371 -0.535663
  N     1.396226 -3.450334  3.311926
  N     1.972291  0.189228  3.375300
  S     0.793697 -3.869850  1.797393
  S     1.142424 -0.020391  1.967502
  S     3.765018 -2.636602 -0.653813
  S     3.982876  0.892266 -0.945338
  S     2.951730 -2.824576  3.388239
  S     3.584393  0.694637  3.172696
