16  
    
  C     4.831626 -2.050778  1.828478
  C     4.252477  1.113033  1.347644
  C     3.572741 -2.454821  1.192417
  C     3.005907  0.852492  0.650318
  N     5.758607 -1.776694  0.936595
  N     5.263176  1.438230  0.563309
  N     3.645624 -2.659429 -0.100752
  N     3.118073  0.812578 -0.680096
  N     2.956079 -1.935945  3.640484
  N     2.400145  1.074474  3.117522
  S     2.175158 -2.392087  2.240572
  S     1.676561  0.711213  1.710858
  S     5.196078 -2.315886 -0.536904
  S     4.757388  1.180754 -0.959467
  S     4.616233 -1.810570  3.562016
  S     4.055205  1.259112  3.009790
