16  
    
  C     7.051745 -1.925051  1.673091
  C     6.693737  2.182774  1.957610
  C     5.757556 -2.236430  1.047926
  C     5.578508  1.479574  1.374234
  N     7.960903 -1.568485  0.770971
  N     7.618160  2.573709  1.094671
  N     5.758529 -2.309913 -0.270759
  N     5.574854  1.414418  0.049092
  N     5.319936 -1.917045  3.534796
  N     5.106620  1.681886  3.874676
  S     4.458497 -2.423969  2.198776
  S     4.337588  1.066966  2.539409
  S     7.275857 -1.921742 -0.747037
  S     7.121325  2.077296 -0.446108
  S     6.938941 -1.656861  3.381284
  S     6.638574  2.296587  3.702665
