16  
    
  C    11.727909  0.841472  3.134859
  C    11.927481  5.093960  3.116002
  C    10.457938  0.614210  2.594536
  C    10.807724  4.321538  2.676530
  N    12.753884  1.115142  2.284949
  N    12.884544  5.131647  2.220897
  N    10.478304  0.584802  1.269575
  N    10.861117  3.870733  1.393078
  N     9.905880  0.909111  5.049895
  N    10.256163  5.151809  5.090513
  S     9.089878  0.461322  3.643019
  S     9.527404  4.253009  3.908469
  S    12.036122  0.883049  0.776494
  S    12.362912  4.465800  0.845740
  S    11.498573  1.325025  4.821322
  S    11.823196  5.582097  4.778786
