16  
    
  C     3.120113 -2.691141  1.550747
  C     3.624964  0.981453  1.437815
  C     2.123632 -3.506721  0.856744
  C     2.439422  0.429737  0.842385
  N     4.077115 -2.206223  0.768866
  N     4.619772  1.244250  0.594133
  N     2.368745 -3.517063 -0.431145
  N     2.455051  0.377647 -0.481278
  N     1.413223 -3.381564  3.419030
  N     1.968670  0.292349  3.371165
  S     0.888044 -4.102997  1.976838
  S     1.188746  0.039138  1.942192
  S     3.665356 -2.607306 -0.766189
  S     3.972989  0.968533 -0.893563
  S     2.925200 -2.666422  3.310248
  S     3.559338  0.946208  3.180162
