16  
    
  C     4.568246 -2.680185  1.571890
  C     5.099167  1.397722  1.702869
  C     3.303439 -2.773777  0.901395
  C     3.796002  1.175651  1.083125
  N     5.649992 -2.594913  0.778604
  N     6.106786  1.518563  0.870686
  N     3.410317 -2.842847 -0.411423
  N     3.855679  1.345951 -0.244013
  N     2.766936 -2.718106  3.402707
  N     3.456239  1.034542  3.661021
  S     1.956241 -2.814482  1.982247
  S     2.551525  0.716911  2.226848
  S     5.055835 -2.793228 -0.786906
  S     5.445578  1.509562 -0.636005
  S     4.394585 -2.402290  3.263764
  S     5.084234  1.404969  3.444821
