16  
    
  C    11.770244  1.144766  3.342332
  C    11.881160  4.985271  3.266028
  C    10.630196  0.618162  2.753798
  C    10.690533  4.522915  2.650080
  N    12.832810  1.263366  2.547361
  N    12.924405  5.036751  2.423438
  N    10.732556  0.277347  1.476287
  N    10.864687  4.126328  1.426227
  N     9.913743  1.027634  5.152178
  N    10.190908  5.002589  5.203094
  S     9.185552  0.584890  3.743817
  S     9.446122  4.401484  3.842734
  S    12.290552  0.626772  1.081740
  S    12.445338  4.489832  0.973324
  S    11.496993  1.438090  5.012216
  S    11.795401  5.486323  4.985222
