16  
    
  C    11.015691  0.643462  3.295120
  C    11.199002  4.280442  3.259581
  C     9.812516  0.290170  2.564339
  C     9.926859  3.866647  2.718350
  N    12.066447  0.950318  2.549966
  N    12.153799  4.555243  2.387153
  N    10.032037  0.188566  1.276692
  N     9.938348  3.756792  1.394129
  N     9.119557  0.072398  4.989992
  N     9.578822  3.816617  5.231957
  S     8.512791 -0.359682  3.513938
  S     8.723249  3.506283  3.848944
  S    11.571946  0.561337  1.002726
  S    11.426397  4.151429  0.873466
  S    10.717334  0.605620  5.019866
  S    11.172168  4.250284  5.016919
