16  
    
  C    12.541480  1.582716  3.443158
  C    12.868890  5.533502  3.666675
  C    11.447732  0.952683  2.824369
  C    11.689237  5.066599  2.932455
  N    13.554884  1.763931  2.600607
  N    14.000539  5.789278  2.999652
  N    11.515605  0.631611  1.552217
  N    11.999863  4.936454  1.608877
  N    10.835941  1.317767  5.290599
  N    10.891403  5.121314  5.401114
  S    10.183641  0.528754  3.973844
  S    10.356548  4.535580  3.908977
  S    13.080478  1.206545  1.136080
  S    13.591779  5.346425  1.406925
  S    12.394048  1.894246  5.152820
  S    12.468484  5.674157  5.375128
