16  
    
  C     5.462118 -2.237796  1.855261
  C     5.245852  1.614479  1.618719
  C     4.300957 -2.700204  1.097032
  C     4.190213  1.019234  0.787551
  N     6.468814 -1.981046  1.075037
  N     6.266806  2.098443  0.900788
  N     4.434555 -2.693296 -0.212643
  N     4.482128  0.858078 -0.491118
  N     3.638476 -2.706183  3.590665
  N     3.379815  0.999259  3.241187
  S     2.907105 -3.021029  2.107274
  S     2.823551  0.644583  1.726259
  S     6.034323 -2.301565 -0.482669
  S     5.988644  1.625966 -0.711893
  S     5.210717 -2.196527  3.594092
  S     4.875847  1.672292  3.369348
