16  
    
  C    10.048298 -0.179383  2.962687
  C    10.349329  3.473242  3.071243
  C     8.863315 -0.411205  2.216782
  C     9.063677  3.646024  2.496415
  N    11.112785  0.159154  2.231658
  N    11.411041  3.513256  2.236794
  N     9.044788 -0.485736  0.910303
  N     9.137202  3.872018  1.199402
  N     8.059527 -0.594129  4.628593
  N     8.412774  3.563822  4.956768
  S     7.453909 -0.829923  3.135749
  S     7.718024  3.986421  3.522285
  S    10.583608 -0.009303  0.667261
  S    10.655262  3.799052  0.718859
  S     9.676788 -0.275830  4.634004
  S    10.119035  3.341598  4.818663
