16  
    
  C     8.649893 -1.101610  2.372854
  C     8.359064  2.969803  2.117338
  C     7.469457 -1.629884  1.739153
  C     7.145241  2.395636  1.566108
  N     9.587555 -0.689947  1.523420
  N     9.347504  3.148607  1.249178
  N     7.546725 -1.781333  0.416599
  N     7.231448  2.214716  0.249405
  N     6.903061 -1.318331  4.195276
  N     6.606160  2.725224  4.061912
  S     6.193855 -1.914023  2.788325
  S     5.840012  2.155927  2.649973
  S     8.992743 -1.130700  0.042220
  S     8.725313  2.748586 -0.272648
  S     8.496705 -0.917118  4.078826
  S     8.189057  3.239155  3.823962
