16  
    
  C     8.407860 -1.000278  2.511361
  C     8.200823  2.654322  2.139153
  C     7.109440 -1.376952  1.978945
  C     7.029782  2.195268  1.389135
  N     9.348297 -0.973154  1.557917
  N     9.326268  2.644570  1.416343
  N     7.141961 -1.845709  0.716541
  N     7.223104  1.894488  0.096184
  N     6.734621 -0.672024  4.427313
  N     6.271356  2.268468  3.909685
  S     5.916420 -1.318372  3.192262
  S     5.618275  2.080699  2.338942
  S     8.684171 -1.509836  0.142089
  S     8.893444  2.218191 -0.087095
  S     8.379510 -0.406417  4.164052
  S     7.902279  2.788180  3.875376
