16  
    
  C    12.577818  1.639338  3.422047
  C    12.732114  5.215046  3.270661
  C    11.349111  1.181747  2.706425
  C    11.535434  4.742697  2.727512
  N    13.596307  1.892859  2.599696
  N    13.713143  5.632325  2.433795
  N    11.458303  1.255960  1.358487
  N    11.565276  4.695105  1.401119
  N    10.970243  0.944238  5.216466
  N    11.141532  5.088687  5.276556
  S    10.074375  0.851645  3.847432
  S    10.300335  4.459280  3.955280
  S    13.004900  1.766660  1.018598
  S    13.058898  5.311200  0.916786
  S    12.485383  1.668643  5.179492
  S    12.694144  5.554709  4.938997
