16  
    
  C     3.451761 -3.046891  1.034593
  C     3.797565  0.694545  1.387565
  C     2.205549 -3.512672  0.424177
  C     2.586089  0.191355  0.767243
  N     4.440698 -3.005180  0.186534
  N     4.854320  0.812619  0.592061
  N     2.294906 -3.691673 -0.877279
  N     2.703746  0.086025 -0.550911
  N     1.705077 -3.149954  2.900177
  N     1.995126  0.351265  3.295763
  S     0.922532 -3.741484  1.533606
  S     1.262612  0.065111  1.809473
  S     3.819930 -3.357639 -1.289935
  S     4.312154  0.467582 -0.896935
  S     3.366961 -2.786927  2.731194
  S     3.554928  0.936520  3.096596
