16  
    
  C     4.655897 -2.121237  1.560916
  C     4.526273  1.617248  1.506222
  C     3.314213 -2.132691  0.988422
  C     3.347705  1.089455  0.839258
  N     5.607277 -2.276043  0.693576
  N     5.557547  1.880428  0.692044
  N     3.251121 -2.310247 -0.295821
  N     3.503975  0.916470 -0.459252
  N     3.022874 -1.949276  3.553328
  N     2.798125  1.211537  3.383333
  S     2.088984 -2.139884  2.215777
  S     2.038111  0.718900  1.986981
  S     4.864311 -2.295110 -0.827966
  S     4.997010  1.506812 -0.853689
  S     4.651477 -1.833703  3.265785
  S     4.383507  1.672215  3.304638
