16  
    
  C     8.716054 -0.954624  2.385933
  C     8.371488  3.283223  2.392533
  C     7.537207 -1.413833  1.671454
  C     7.226743  2.590087  1.773259
  N     9.783969 -0.794893  1.592613
  N     9.339169  3.515002  1.524443
  N     7.684143 -1.624691  0.342332
  N     7.394882  2.327234  0.469854
  N     7.062309 -1.353912  4.192639
  N     6.819077  2.817231  4.266644
  S     6.264400 -1.703951  2.733346
  S     6.023407  2.210882  2.949899
  S     9.276448 -1.217091  0.078873
  S     8.851726  2.996670 -0.033812
  S     8.597852 -0.744495  4.064598
  S     8.303637  3.561786  4.095851
