16  
    
  C     6.182678 -1.547843  1.491833
  C     6.397810  2.148007  1.884637
  C     4.995007 -2.065573  0.833045
  C     5.191326  1.678627  1.198767
  N     7.272251 -1.427902  0.759990
  N     7.429986  2.184855  1.058603
  N     5.274699 -2.491590 -0.379833
  N     5.344792  1.414402 -0.103886
  N     4.503426 -1.920749  3.378727
  N     4.635288  1.771025  3.714973
  S     3.792221 -2.469862  2.039809
  S     3.848926  1.452426  2.266810
  S     6.822401 -2.054006 -0.703880
  S     6.933978  1.754766 -0.462781
  S     5.960372 -1.159656  3.211543
  S     6.202297  2.322014  3.608345
