16  
    
  C    10.319031 -0.013374  2.825783
  C    10.325617  3.877945  3.118913
  C     9.065139 -0.391809  2.197998
  C     8.989317  3.737194  2.513964
  N    11.366274  0.006208  1.960378
  N    11.365064  3.956432  2.260979
  N     9.126052 -0.453327  0.856489
  N     9.093858  3.507403  1.217648
  N     8.477776 -0.292078  4.715962
  N     8.593822  4.273529  4.960503
  S     7.726347 -0.563238  3.277975
  S     7.641652  3.972149  3.674985
  S    10.680230 -0.243921  0.484591
  S    10.690615  3.740234  0.764072
  S    10.088323 -0.016666  4.567682
  S    10.221534  4.217984  4.751522
