16  
    
  C     7.217329 -1.193132  2.176233
  C     7.762878  2.849376  2.218204
  C     6.105294 -1.775400  1.467998
  C     6.541479  2.326431  1.621775
  N     8.280285 -0.895851  1.447236
  N     8.797637  2.907593  1.411774
  N     6.327614 -1.832667  0.168521
  N     6.633162  2.102637  0.328824
  N     5.418327 -1.813941  3.940668
  N     6.056656  2.609864  4.112856
  S     4.675229 -2.038604  2.466003
  S     5.272905  2.022641  2.782584
  S     7.840308 -1.210715 -0.146074
  S     8.197871  2.537579 -0.079430
  S     6.976498 -1.221280  3.932655
  S     7.578046  3.145890  3.928929
