16  
    
  C     9.002797 -0.397154  2.543318
  C     9.225471  3.517740  2.795798
  C     7.732901 -0.771311  1.876843
  C     8.052453  3.128050  2.130645
  N     9.965985 -0.121137  1.675841
  N    10.298003  3.556626  2.039688
  N     7.810720 -0.919259  0.561478
  N     8.196439  2.952721  0.820455
  N     7.446734 -0.891920  4.427796
  N     7.557965  3.425366  4.676872
  S     6.495876 -1.120561  3.078246
  S     6.806233  3.031933  3.293054
  S     9.384539 -0.482770  0.188512
  S     9.807733  3.199383  0.503859
  S     9.030490 -0.361240  4.278595
  S     9.137201  3.837420  4.527812
