16  
    
  C    10.066428  0.067198  2.629088
  C     9.875768  4.103074  2.744644
  C     8.893336 -0.559432  2.062725
  C     8.912154  3.153718  2.231345
  N    11.054433  0.249167  1.783367
  N    10.875673  4.400808  1.920153
  N     8.964064 -0.716756  0.787422
  N     9.197233  2.677460  1.036651
  N     8.244293 -0.386454  4.505939
  N     8.124170  3.544179  4.606118
  S     7.524094 -0.875556  3.116997
  S     7.782584  2.518462  3.374840
  S    10.459155 -0.200310  0.282062
  S    10.668223  3.321592  0.584876
  S     9.842589  0.181886  4.430374
  S     9.448591  4.519107  4.375005
