16  
    
  C    11.654519  1.088776  3.308740
  C    12.026030  4.988096  3.195938
  C    10.486269  0.683957  2.625593
  C    10.812084  4.334127  2.777061
  N    12.691378  1.256508  2.477428
  N    13.050243  5.084722  2.332187
  N    10.624677  0.304138  1.347571
  N    10.815266  4.063142  1.487701
  N     9.872117  1.204745  5.097983
  N    10.217981  5.178141  5.090192
  S     9.099513  0.522091  3.739606
  S     9.472435  4.329372  3.873334
  S    12.233487  0.690471  0.988221
  S    12.343490  4.506387  0.914489
  S    11.542428  1.290331  5.033472
  S    11.829599  5.547911  4.866054
