16  
    
  C     4.215127 -2.315607  1.829013
  C     4.054282  1.120948  1.190724
  C     3.107196 -3.004916  1.270888
  C     2.993121  0.297821  0.661435
  N     5.177172 -1.959632  0.966531
  N     4.984528  1.510707  0.291320
  N     3.252744 -3.311213 -0.016378
  N     3.214969 -0.077806 -0.600990
  N     2.566454 -2.549586  3.751417
  N     2.219587  0.917055  3.017166
  S     1.792898 -3.130362  2.385066
  S     1.661561  0.047949  1.712971
  S     4.727424 -2.637253 -0.509696
  S     4.538433  0.711078 -1.118321
  S     4.138429 -2.003302  3.494734
  S     3.785643  1.674106  2.857833
