16  
    
  C     4.722998 -2.534615  1.607693
  C     5.091564  1.319301  1.857233
  C     3.442981 -2.678163  0.911623
  C     3.853758  1.033221  1.225363
  N     5.779443 -2.640727  0.838447
  N     6.089630  1.619917  1.007280
  N     3.553163 -2.999220 -0.335725
  N     3.875361  1.086870 -0.110275
  N     2.872700 -2.412761  3.433197
  N     3.352422  0.875152  3.796493
  S     2.109095 -2.869377  2.024563
  S     2.487138  0.744943  2.320639
  S     5.188879 -2.895610 -0.718021
  S     5.395717  1.606812 -0.500041
  S     4.565335 -2.259936  3.307284
  S     4.896507  1.448401  3.558406
