16  
    
  C     6.862859 -1.807651  1.721482
  C     6.602862  2.243642  2.004040
  C     5.586574 -2.234465  1.132920
  C     5.517337  1.504566  1.426895
  N     7.821725 -1.700445  0.846345
  N     7.537403  2.607409  1.111615
  N     5.571460 -2.255385 -0.189236
  N     5.649734  1.296675  0.111013
  N     5.167974 -2.082998  3.705828
  N     5.053784  1.529065  3.983221
  S     4.323201 -2.465850  2.318134
  S     4.278677  1.094018  2.577055
  S     7.138332 -1.807865 -0.661018
  S     7.025536  2.111479 -0.327614
  S     6.751944 -1.757466  3.440692
  S     6.512490  2.348245  3.716970
