16  
    
  C     8.969504 -0.392343  2.506194
  C     9.372649  3.584523  2.842935
  C     7.737228 -0.758321  1.913823
  C     8.137479  3.124214  2.136589
  N     9.990724 -0.122870  1.673201
  N    10.433630  3.525341  2.029798
  N     7.838937 -0.934825  0.583978
  N     8.263865  2.816136  0.835347
  N     7.411082 -0.854843  4.508203
  N     7.616567  3.462332  4.700876
  S     6.552509 -1.142927  3.099295
  S     6.807553  3.103140  3.267534
  S     9.433956 -0.528891  0.157711
  S     9.901030  3.195517  0.505614
  S     9.007867 -0.395583  4.237819
  S     9.224315  3.916086  4.567119
