16  
    
  C     8.479179 -0.971072  2.473725
  C     8.219762  2.599588  2.227199
  C     7.182572 -1.540926  2.094422
  C     7.037089  2.119555  1.540481
  N     9.336565 -0.909260  1.486602
  N     9.295042  2.759227  1.447910
  N     7.167690 -1.962609  0.861227
  N     7.207768  1.968484  0.229435
  N     6.790685 -0.690690  4.461862
  N     6.211616  2.719430  3.918015
  S     5.899907 -1.357802  3.262051
  S     5.550596  2.075005  2.511661
  S     8.617279 -1.588104  0.167994
  S     8.809461  2.350221 -0.044649
  S     8.428879 -0.439271  4.125951
  S     7.887842  2.930001  3.930576
