16  
    
  C    12.053073  1.436807  3.349357
  C    12.257332  5.141319  3.768753
  C    10.923242  0.770354  2.658507
  C    10.927581  4.839437  3.212390
  N    13.134850  1.574035  2.599559
  N    13.225915  5.335656  2.857542
  N    11.135526  0.654085  1.328553
  N    10.997147  4.746125  1.933222
  N    10.299451  1.139656  5.240794
  N    10.584951  4.799576  5.709756
  S     9.625789  0.635911  3.786744
  S     9.666390  4.561477  4.346370
  S    12.676312  1.234896  1.036815
  S    12.471285  4.990315  1.400760
  S    11.868397  1.773514  5.071029
  S    12.172209  5.248536  5.501584
