16  
    
  C     9.883167 -0.070557  2.792837
  C     9.716096  3.811533  2.804287
  C     8.795355 -0.664920  2.065108
  C     8.573618  3.333930  2.081025
  N    11.008591  0.077402  2.015895
  N    10.770993  4.103793  2.063194
  N     8.955763 -0.791829  0.720278
  N     8.759872  3.058639  0.789702
  N     7.966049 -0.352800  4.457519
  N     7.825527  3.601622  4.540740
  S     7.409662 -0.919023  3.016923
  S     7.228463  3.187607  3.048845
  S    10.528439 -0.303172  0.453383
  S    10.325285  3.694148  0.476055
  S     9.567746  0.042503  4.528487
  S     9.390057  4.239270  4.529804
