16  
    
  C     7.549958 -1.213104  1.881326
  C     7.732604  2.825360  2.155473
  C     6.290834 -1.657095  1.300096
  C     6.494941  2.217006  1.596281
  N     8.517225 -1.050340  1.010469
  N     8.690098  3.049677  1.292370
  N     6.287765 -1.583396 -0.007297
  N     6.529253  1.967559  0.297286
  N     5.795809 -1.217813  3.843942
  N     6.033023  2.671276  4.036453
  S     5.023494 -1.773886  2.521960
  S     5.153738  2.187297  2.697116
  S     7.871218 -1.223598 -0.520089
  S     8.153730  2.455175 -0.140901
  S     7.409705 -0.926500  3.637539
  S     7.557557  3.271591  3.842697
