16  
    
  C    10.250618  0.525902  2.934283
  C    10.806194  4.197667  2.910486
  C     9.113284 -0.071472  2.281257
  C     9.573482  4.103836  2.203548
  N    11.221123  0.850697  2.101632
  N    11.805985  4.558546  2.098539
  N     9.116640  0.053461  0.954594
  N     9.594648  4.387533  0.905785
  N     8.681898 -0.228215  4.840545
  N     8.979314  3.643028  4.678373
  S     7.885699 -0.610480  3.417942
  S     8.237732  3.827047  3.205885
  S    10.568100  0.724233  0.587077
  S    11.202845  4.739804  0.598798
  S    10.176624  0.487956  4.739990
  S    10.548293  4.264349  4.763529
