16  
    
  C    12.146222  1.594048  3.398162
  C    12.244130  5.390000  3.592247
  C    10.984527  1.069486  2.592702
  C    11.193139  4.731516  2.885020
  N    13.195099  1.877920  2.648343
  N    13.320767  5.583425  2.806355
  N    11.278621  0.808667  1.301885
  N    11.432252  4.370660  1.636397
  N    10.174959  1.200002  5.087213
  N    10.383867  5.041443  5.276295
  S     9.633387  0.599593  3.619888
  S     9.767053  4.485430  3.854274
  S    12.863639  1.246740  1.074369
  S    12.946896  4.909728  1.309501
  S    11.741470  1.786212  5.069406
  S    11.932864  5.619249  5.292860
