16  
    
  C    11.546782  1.224576  3.010989
  C    11.400027  4.877149  3.089425
  C    10.474222  0.444394  2.532397
  C    10.319382  4.326554  2.332810
  N    12.366033  1.740818  2.062875
  N    12.436588  5.276911  2.343756
  N    10.558624  0.164918  1.225555
  N    10.475637  4.257952  1.008323
  N    10.002567  0.747053  5.076125
  N     9.565454  4.470249  4.837564
  S     9.196731  0.080899  3.795534
  S     8.966788  3.908883  3.363886
  S    11.784057  1.145838  0.618071
  S    12.026173  4.907090  0.770342
  S    11.457213  1.508968  4.768997
  S    11.082350  5.117305  4.792581
