16  
    
  C     4.247822 -2.426398  1.605367
  C     4.081613  1.219405  1.609923
  C     3.153356 -3.217939  1.087393
  C     2.863189  0.706515  1.084906
  N     5.240845 -2.239541  0.767025
  N     5.109508  1.280461  0.794492
  N     3.321797 -3.644016 -0.138448
  N     2.923398  0.474797 -0.210025
  N     2.665128 -2.892166  3.622858
  N     2.335569  1.284229  3.490014
  S     1.824426 -3.348727  2.253181
  S     1.544399  0.844317  2.127396
  S     4.770164 -2.899001 -0.674121
  S     4.446822  0.879889 -0.701690
  S     4.130116 -2.177576  3.365724
  S     4.016050  1.448962  3.320187
