16  
    
  C    12.058251  1.612481  3.348315
  C    12.265468  5.314235  3.525044
  C    10.979459  0.961660  2.712736
  C    11.156214  4.733691  2.855324
  N    13.218697  1.716841  2.655403
  N    13.316661  5.541493  2.729784
  N    11.255189  0.789264  1.413897
  N    11.349761  4.358808  1.564008
  N    10.141307  1.202190  5.087079
  N    10.297613  5.190215  5.248521
  S     9.572898  0.498102  3.642558
  S     9.756553  4.543315  3.797055
  S    12.824796  1.257398  1.135213
  S    12.935231  4.793412  1.272703
  S    11.725698  1.771489  5.091861
  S    11.921814  5.627645  5.282115
