16  
    
  C     9.779437  0.185388  2.716901
  C     9.812734  3.813930  2.592122
  C     8.587496 -0.425315  2.118777
  C     8.592212  3.186106  2.051955
  N    10.630908  0.518660  1.775328
  N    10.713668  4.163850  1.667969
  N     8.531725 -0.365266  0.831294
  N     8.728209  2.923691  0.758261
  N     8.190159 -0.559903  4.653664
  N     8.138648  3.227279  4.543637
  S     7.408866 -1.063593  3.260368
  S     7.340838  2.708222  3.143027
  S     9.969786  0.146320  0.297078
  S    10.136083  3.550127  0.222850
  S     9.780966 -0.095211  4.441895
  S     9.710347  3.919352  4.350974
