16  
    
  C    12.599577  1.548742  3.597644
  C    12.371031  5.205396  3.464990
  C    11.339116  1.062164  3.013653
  C    11.109595  4.778983  2.840050
  N    13.530176  1.790949  2.695479
  N    13.338425  5.370006  2.533185
  N    11.405100  0.862884  1.692458
  N    11.137321  4.542885  1.571339
  N    10.816390  1.416056  5.523337
  N    10.675983  4.895723  5.391440
  S    10.051291  0.746616  4.124497
  S     9.863214  4.641609  3.978938
  S    12.860503  1.395728  1.222814
  S    12.754757  4.884618  1.090882
  S    12.458908  1.751564  5.270195
  S    12.231240  5.487597  5.229196
