16  
    
  C     6.142713 -1.587906  2.402215
  C     6.638294  2.104051  2.213411
  C     5.004332 -2.162829  1.739799
  C     5.425733  1.631449  1.609608
  N     7.204911 -1.334034  1.594234
  N     7.563758  2.450966  1.323772
  N     5.112026 -2.206837  0.400304
  N     5.457124  1.441219  0.308062
  N     4.377860 -2.047889  4.237082
  N     4.976109  1.661195  4.186567
  S     3.722554 -2.608041  2.808946
  S     4.155173  1.292060  2.770445
  S     6.620955 -1.594761  0.051775
  S     6.940759  2.117502 -0.165190
  S     6.003199 -1.647166  4.091895
  S     6.495616  2.251957  3.938004
