16  
    
  C     4.614290 -2.151647  1.560538
  C     5.035473  1.391210  1.924373
  C     3.542863 -2.831903  0.824236
  C     3.703944  1.241654  1.379293
  N     5.659568 -1.861746  0.800172
  N     5.995250  1.379365  1.029132
  N     3.807451 -3.055315 -0.447985
  N     3.653063  1.153708  0.051214
  N     2.888249 -2.836207  3.356512
  N     3.445610  1.774532  3.825934
  S     2.262492 -3.368453  1.922109
  S     2.487544  1.422994  2.508993
  S     5.278944 -2.354740 -0.715846
  S     5.249859  1.330146 -0.455875
  S     4.363511 -2.085241  3.307271
  S     5.047291  1.462039  3.669767
