16  
    
  C     5.134416 -2.284671  1.551108
  C     4.950048  1.524298  2.040897
  C     3.990680 -2.969361  0.990035
  C     3.851131  0.864291  1.411055
  N     6.211678 -2.221406  0.731929
  N     6.044663  1.626928  1.283882
  N     4.114173 -3.321995 -0.310902
  N     4.025397  0.627111  0.122363
  N     3.404061 -2.361472  3.397143
  N     3.080648  1.387523  3.751896
  S     2.645893 -3.031948  2.106719
  S     2.432079  0.805288  2.330221
  S     5.690329 -2.924423 -0.697645
  S     5.613567  1.062857 -0.235976
  S     4.977629 -1.797928  3.248714
  S     4.518308  2.146867  3.665056
