16  
    
  C     6.336000 -1.605255  1.619466
  C     6.409381  2.137625  1.939974
  C     5.255985 -2.314350  0.965114
  C     5.263559  1.511351  1.322230
  N     7.375502 -1.462165  0.843586
  N     7.423438  2.371073  1.080982
  N     5.405177 -2.577681 -0.325155
  N     5.531038  1.142279  0.057579
  N     4.412289 -1.717888  3.365286
  N     4.575889  2.006249  3.720834
  S     3.821240 -2.515765  2.024186
  S     3.894977  1.240704  2.402194
  S     6.880262 -1.852967 -0.709949
  S     6.950255  1.771598 -0.354505
  S     6.072850 -1.342388  3.325257
  S     6.121189  2.564475  3.613067
