16  
    
  C    12.710647  1.501103  3.579170
  C    12.897332  5.533889  3.734528
  C    11.564304  0.819405  2.976961
  C    11.757634  4.942546  3.025040
  N    13.696787  1.663039  2.720161
  N    13.921252  5.778860  2.912945
  N    11.654657  0.637080  1.644450
  N    11.937128  4.740391  1.761404
  N    10.806038  1.423910  5.346637
  N    11.083778  5.106593  5.449150
  S    10.140216  0.774797  3.995002
  S    10.395279  4.662893  4.014516
  S    13.183490  1.190931  1.208240
  S    13.455837  5.281912  1.425810
  S    12.333631  2.000529  5.199507
  S    12.554392  5.768581  5.486315
