16  
    
  C     7.094546 -1.449232  2.122296
  C     7.055065  2.084212  2.075411
  C     5.904382 -1.825652  1.397806
  C     5.852087  1.758713  1.322501
  N     8.205642 -1.324805  1.376815
  N     8.132679  2.252090  1.344926
  N     6.106691 -2.017629  0.085011
  N     6.074408  1.556333  0.031774
  N     5.133322 -1.650645  3.833992
  N     5.183418  1.910819  3.799252
  S     4.499413 -2.129039  2.367903
  S     4.466636  1.574624  2.317241
  S     7.692373 -1.659674 -0.212670
  S     7.678493  2.013016 -0.257501
  S     6.834079 -1.520349  3.883256
  S     6.813519  2.369208  3.766908
