16  
    
  C    12.586003  1.450579  3.364479
  C    12.826757  5.443974  3.535235
  C    11.378824  0.921508  2.718976
  C    11.750770  4.947188  2.747225
  N    13.449530  1.894105  2.466736
  N    13.871773  5.799201  2.863359
  N    11.410080  0.854126  1.414135
  N    12.019093  4.792626  1.451812
  N    10.865840  1.025362  5.272359
  N    10.883511  4.850279  5.254667
  S    10.080775  0.642258  3.833690
  S    10.300297  4.650093  3.653341
  S    12.850212  1.632076  0.975180
  S    13.559582  5.365151  1.278459
  S    12.384067  1.676641  5.062977
  S    12.447722  5.567945  5.270512
