16  
    
  C     8.827087 -0.159648  2.567154
  C     8.585943  3.182037  2.568891
  C     7.607195 -0.538877  1.928725
  C     7.437334  2.558798  1.930655
  N     9.789032  0.201908  1.702714
  N     9.602049  3.475186  1.732770
  N     7.680178 -0.714879  0.613662
  N     7.563493  2.431620  0.609277
  N     7.121910 -0.762298  4.375970
  N     6.715921  2.908929  4.313563
  S     6.329987 -0.966140  2.952117
  S     6.040798  2.225142  2.943669
  S     9.174712 -0.195851  0.200053
  S     9.086384  2.976921  0.219335
  S     8.683718 -0.148568  4.231926
  S     8.306308  3.316114  4.253265
