16  
    
  C     7.879517 -0.822442  2.250686
  C     8.318865  2.800494  2.385326
  C     6.725767 -1.384753  1.539512
  C     7.019918  2.553081  1.847553
  N     8.864208 -0.408782  1.467279
  N     9.300789  2.915286  1.463545
  N     6.989443 -1.563686  0.249465
  N     6.953711  2.509569  0.495473
  N     6.099392 -1.153033  4.016159
  N     6.710106  3.092782  4.442803
  S     5.414575 -1.801848  2.561577
  S     5.776080  2.585486  3.128549
  S     8.447605 -0.840569 -0.066114
  S     8.566098  2.751407 -0.004265
  S     7.642569 -0.551016  3.949742
  S     8.378858  3.020600  4.115377
