16  
    
  C     5.579398 -2.061027  1.874278
  C     5.200414  1.617808  1.744215
  C     4.415194 -2.608623  1.264609
  C     4.124746  0.888078  1.094279
  N     6.546776 -1.844868  0.984747
  N     6.136030  2.007151  0.888329
  N     4.553224 -2.878479 -0.026466
  N     4.140161  0.807731 -0.235105
  N     3.848426 -2.411524  3.771504
  N     3.564441  0.878761  3.638058
  S     3.046638 -2.768485  2.316490
  S     2.890028  0.342518  2.190660
  S     6.015521 -2.263317 -0.503589
  S     5.574750  1.613682 -0.662529
  S     5.396638 -1.819498  3.579302
  S     5.129484  1.520747  3.501310
