16  
    
  C    12.592585  1.687238  3.370534
  C    12.813900  5.355647  3.344785
  C    11.310641  1.316903  2.758451
  C    11.638789  4.838321  2.707448
  N    13.594452  2.007094  2.555769
  N    13.844570  5.557542  2.511814
  N    11.390287  1.322646  1.439888
  N    11.640617  4.805964  1.399514
  N    10.864313  0.967210  5.281409
  N    11.070603  5.057846  5.193314
  S    10.076174  0.733640  3.802060
  S    10.342988  4.474956  3.838029
  S    12.987461  1.693555  1.046303
  S    13.133350  5.296947  0.955617
  S    12.389814  1.590176  5.092721
  S    12.646192  5.593328  5.129859
