16  
    
  C     6.148644 -1.591520  2.494951
  C     6.573378  2.169136  2.197516
  C     4.988809 -2.094190  1.806359
  C     5.399907  1.604770  1.608731
  N     7.107194 -1.233750  1.610663
  N     7.577997  2.416586  1.365511
  N     5.112618 -2.286591  0.478406
  N     5.483739  1.528755  0.296544
  N     4.443459 -2.196927  4.261764
  N     5.006928  1.623531  4.153557
  S     3.712877 -2.704262  2.843395
  S     4.102751  1.365896  2.799792
  S     6.610671 -1.672117  0.093372
  S     6.969462  2.055735 -0.132827
  S     5.928515 -1.543139  4.210764
  S     6.559122  2.256315  3.941758
