16  
    
  C    12.070149  1.329760  3.488223
  C    12.257467  5.156694  3.420641
  C    10.960166  0.710507  2.727782
  C    11.035387  4.716141  2.708018
  N    13.110042  1.622290  2.711285
  N    13.336069  5.200219  2.700889
  N    11.204928  0.611872  1.444030
  N    11.294641  4.327582  1.450986
  N    10.095359  1.142674  5.217423
  N    10.359771  5.366447  5.120316
  S     9.563679  0.546499  3.727391
  S     9.608432  4.668191  3.810998
  S    12.748175  1.175698  1.191722
  S    12.880009  4.708491  1.179705
  S    11.669818  1.737839  5.137793
  S    11.977409  5.693092  5.008194
