16  
    
  C    10.051334 -0.062927  2.914643
  C    10.258594  3.582655  3.124127
  C     8.878990 -0.398624  2.139010
  C     9.045669  3.883213  2.411823
  N    11.098702  0.149384  2.169173
  N    11.340888  3.549044  2.342789
  N     9.025720 -0.312403  0.838857
  N     9.121722  3.892925  1.085683
  N     8.151960 -0.485095  4.607490
  N     8.513734  3.585212  4.922936
  S     7.440907 -0.743112  3.108634
  S     7.731060  3.966129  3.512042
  S    10.635141 -0.030940  0.584156
  S    10.830594  3.748414  0.784089
  S     9.828066 -0.368312  4.724524
  S    10.165488  3.539618  4.903102
