16  
    
  C     4.540979 -2.100971  1.540710
  C     5.133776  1.408088  1.928620
  C     3.539056 -2.889760  0.877134
  C     3.816394  1.255329  1.391863
  N     5.645254 -1.789102  0.826096
  N     6.086509  1.376333  0.974065
  N     3.820141 -3.099758 -0.428296
  N     3.698557  1.168168  0.083513
  N     2.900044 -2.893092  3.364881
  N     3.447589  1.735149  3.861181
  S     2.254922 -3.470654  1.900241
  S     2.546066  1.444115  2.560544
  S     5.304469 -2.380440 -0.741327
  S     5.229569  1.329516 -0.461867
  S     4.394809 -2.157666  3.272147
  S     5.068223  1.510258  3.670246
