16  
    
  C     7.461516 -1.195286  1.928194
  C     7.695768  2.824625  2.146118
  C     6.173771 -1.463354  1.324835
  C     6.498765  2.261160  1.599406
  N     8.490759 -1.005968  1.113425
  N     8.669683  2.938821  1.292579
  N     6.276104 -1.618266  0.024973
  N     6.655422  1.957096  0.320131
  N     5.681809 -1.385140  3.894019
  N     5.970099  2.742838  4.110250
  S     4.938124 -1.875582  2.505231
  S     5.186319  2.134992  2.764057
  S     7.827846 -1.262725 -0.397369
  S     8.077002  2.456241 -0.188627
  S     7.331816 -1.019443  3.674180
  S     7.589555  3.221812  3.781115
