16  
    
  C     7.249229 -1.687793  2.257267
  C     7.487921  2.226906  2.186819
  C     6.024287 -2.030500  1.621647
  C     6.297657  1.610234  1.632102
  N     8.326157 -1.608182  1.487206
  N     8.487899  2.418118  1.302020
  N     6.184510 -2.160551  0.301469
  N     6.418028  1.388140  0.321987
  N     5.473850 -1.738651  4.031156
  N     5.795997  2.127792  4.097095
  S     4.695356 -2.299953  2.649293
  S     4.917931  1.743806  2.748730
  S     7.792819 -1.984354 -0.023015
  S     7.929829  1.900597 -0.120231
  S     7.082507 -1.453840  3.969972
  S     7.321763  2.646079  3.882648
