16  
    
  C     5.701578 -2.041210  1.971560
  C     6.004483  1.750084  2.080516
  C     4.605431 -2.689172  1.361853
  C     4.758428  1.397661  1.429288
  N     6.727265 -1.861981  1.113344
  N     7.043768  1.805516  1.267356
  N     4.753387 -2.935503  0.046230
  N     4.793700  1.228421  0.109834
  N     3.918597 -2.398092  3.796919
  N     4.232635  1.872616  3.911636
  S     3.214626 -3.038002  2.382126
  S     3.408564  1.496240  2.531769
  S     6.230857 -2.340876 -0.379259
  S     6.437837  1.489294 -0.304268
  S     5.500101 -1.867439  3.691464
  S     5.905783  1.954593  3.802438
