16  
    
  C    12.616497  1.576282  3.355751
  C    12.702725  5.304910  3.259600
  C    11.416912  1.199646  2.716892
  C    11.484574  4.688394  2.653835
  N    13.608175  1.890818  2.564441
  N    13.624092  5.640324  2.394032
  N    11.456561  1.177107  1.400411
  N    11.503960  4.676570  1.330592
  N    10.991636  1.021769  5.300246
  N    11.166238  5.032100  5.231107
  S    10.124730  0.892709  3.865249
  S    10.309827  4.468523  3.996812
  S    13.017904  1.778758  1.042571
  S    12.991253  5.258759  0.906579
  S    12.511370  1.664561  5.137613
  S    12.693342  5.535001  4.956452
