16  
    
  C     7.650590 -1.194411  1.887268
  C     7.676636  2.909529  2.172478
  C     6.350078 -1.535009  1.260306
  C     6.511536  2.354981  1.568423
  N     8.549676 -0.964260  0.978526
  N     8.703863  3.018760  1.352789
  N     6.365394 -1.707140 -0.034983
  N     6.716439  2.046503  0.289784
  N     5.966827 -1.127618  3.769377
  N     5.943997  2.635044  4.122878
  S     5.048140 -1.687540  2.404202
  S     5.217753  2.199375  2.659734
  S     7.862498 -1.250440 -0.504831
  S     8.196826  2.467933 -0.141023
  S     7.601463 -0.841787  3.552303
  S     7.485278  3.275391  3.896510
