16  
    
  C     7.835750 -0.791651  2.230576
  C     8.345976  2.783624  2.375250
  C     6.753168 -1.412986  1.561668
  C     7.022207  2.587225  1.853116
  N     8.860584 -0.413573  1.460249
  N     9.328481  2.913331  1.468831
  N     6.978579 -1.596831  0.248022
  N     6.936011  2.506847  0.515656
  N     6.119253 -1.178994  3.976516
  N     6.675966  3.092129  4.420834
  S     5.398394 -1.782023  2.541710
  S     5.751452  2.553546  3.140399
  S     8.431807 -0.857973 -0.064652
  S     8.576712  2.781867  0.000020
  S     7.650070 -0.556508  3.903375
  S     8.364556  3.006604  4.120282
