16  
    
  C     7.203357 -1.346367  2.224545
  C     7.451862  2.193966  2.178033
  C     6.105135 -2.060305  1.687626
  C     6.231036  1.752235  1.529028
  N     8.249164 -1.321118  1.364233
  N     8.497075  2.205690  1.370133
  N     6.215850 -2.468087  0.420373
  N     6.362546  1.411541  0.247215
  N     5.475899 -1.557554  4.075717
  N     5.705126  2.121316  4.126534
  S     4.733528 -2.134681  2.679721
  S     4.947336  1.591135  2.697138
  S     7.719094 -2.006877 -0.020141
  S     8.006905  1.736491 -0.080806
  S     7.066111 -1.104101  3.884137
  S     7.265777  2.648830  3.849795
