16  
    
  C    10.288883  0.042138  2.794199
  C    10.218245  4.032489  3.120606
  C     9.002235 -0.318987  2.146496
  C     8.939951  3.621925  2.499473
  N    11.325419  0.087277  1.999105
  N    11.202613  4.044822  2.249471
  N     9.187117 -0.625286  0.885156
  N     8.964271  3.441853  1.166425
  N     8.555646  0.056915  4.646792
  N     8.615486  4.445230  5.015077
  S     7.738556 -0.622650  3.307449
  S     7.697187  3.948490  3.670201
  S    10.798219 -0.412995  0.482255
  S    10.646755  3.665001  0.779517
  S    10.231163  0.183000  4.522890
  S    10.277915  4.392994  4.799313
