16  
    
  C     9.706973 -0.277740  2.488417
  C     9.737638  3.525278  2.565350
  C     8.419693 -0.582247  1.936615
  C     8.518023  3.133652  1.917877
  N    10.652174 -0.105554  1.609307
  N    10.704591  3.737940  1.660062
  N     8.486496 -0.837556  0.657269
  N     8.513532  3.216879  0.578164
  N     8.195151 -0.578503  4.546153
  N     8.125553  2.921949  4.458454
  S     7.284083 -1.043825  3.234451
  S     7.216954  2.751871  3.079263
  S    10.026931 -0.536228  0.149321
  S    10.061422  3.634716  0.169688
  S     9.769467 -0.226536  4.211049
  S     9.759439  3.361783  4.378600
