16  
    
  C     9.032831 -0.234378  2.371728
  C     9.425704  3.176618  2.697866
  C     7.871156 -0.940078  1.832542
  C     8.151101  2.855217  2.066920
  N    10.045126 -0.214626  1.523543
  N    10.410777  3.171256  1.814266
  N     8.030899 -1.343582  0.603812
  N     8.186999  2.581889  0.757820
  N     7.279305 -0.357242  4.308576
  N     7.672847  3.251042  4.626641
  S     6.623676 -1.135589  3.001269
  S     6.868822  2.881589  3.205986
  S     9.540027 -0.965313  0.128432
  S     9.784961  2.724524  0.374284
  S     8.862536  0.142598  4.093836
  S     9.309041  3.659712  4.475214
