16  
    
  C     6.234821 -1.805588  2.293760
  C     6.591510  2.147265  2.213435
  C     5.016346 -2.182975  1.618326
  C     5.428410  1.516126  1.573607
  N     7.211656 -1.292492  1.495536
  N     7.520320  2.499113  1.343957
  N     5.172112 -2.139819  0.276361
  N     5.429262  1.534366  0.260272
  N     4.509488 -2.049312  4.078561
  N     4.936857  1.728813  4.110141
  S     3.745497 -2.522688  2.703434
  S     4.174085  1.182141  2.731075
  S     6.688093 -1.599556 -0.018651
  S     6.923385  2.113985 -0.209092
  S     6.124398 -1.707517  4.030251
  S     6.517983  2.276582  3.964598
