16  
    
  C    10.921923  0.571219  2.959878
  C    10.736685  4.396109  2.781166
  C     9.701295  0.149351  2.346855
  C     9.743397  3.582923  2.156493
  N    11.963605  0.456331  2.174823
  N    11.883594  4.636492  2.109125
  N     9.796321 -0.071113  1.051704
  N    10.120871  3.210527  0.947558
  N     9.233186  0.457551  4.887628
  N     8.927228  4.148240  4.551618
  S     8.407289  0.083880  3.493752
  S     8.332757  3.460555  3.191373
  S    11.387353  0.116075  0.669053
  S    11.634725  3.815770  0.608666
  S    10.768416  1.078436  4.635943
  S    10.430504  4.879475  4.447856
