16  
    
  C    11.078381  0.570040  3.058427
  C    10.974699  4.377988  2.936374
  C     9.880486  0.011033  2.496985
  C     9.933052  3.675736  2.257129
  N    12.033396  0.723113  2.165740
  N    12.006963  4.573165  2.140615
  N     9.941633 -0.100147  1.183242
  N    10.145394  3.298277  0.997406
  N     9.270761  0.478304  4.955754
  N     9.078743  4.187069  4.640937
  S     8.532739 -0.147877  3.607378
  S     8.506559  3.456936  3.248050
  S    11.451183  0.241754  0.689019
  S    11.604726  3.927237  0.613901
  S    10.919098  0.718377  4.788885
  S    10.683154  4.577767  4.649814
