16  
    
  C     3.267517 -3.021498  1.559968
  C     3.579577  0.526579  1.426159
  C     2.072095 -3.133809  0.734955
  C     2.316040  0.307179  0.764878
  N     4.412603 -2.884493  0.863292
  N     4.588525  0.706115  0.586938
  N     2.280350 -3.069839 -0.589824
  N     2.354076  0.376787 -0.562949
  N     1.392508 -3.545010  3.162228
  N     1.840953  0.150406  3.283151
  S     0.652947 -3.603072  1.607216
  S     1.032985  0.005165  1.867557
  S     3.937079 -2.849531 -0.754702
  S     3.967896  0.697361 -0.966418
  S     3.011342 -3.165266  3.226607
  S     3.389297  0.683408  3.128951
