16  
    
  C     4.586219 -2.113987  1.940205
  C     4.133573  1.119006  1.229556
  C     3.451417 -2.634290  1.239110
  C     2.938128  0.779250  0.537434
  N     5.675950 -1.973247  1.188878
  N     5.200852  1.213145  0.445286
  N     3.612214 -2.743819 -0.078202
  N     3.029605  0.690557 -0.778179
  N     2.823000 -2.435780  3.699409
  N     2.241978  0.994309  3.065368
  S     2.071938 -2.862786  2.270563
  S     1.578476  0.501353  1.595997
  S     5.254996 -2.497181 -0.344001
  S     4.593794  0.845731 -1.102218
  S     4.314619 -1.706298  3.565092
  S     3.837630  1.371997  2.931163
