16  
    
  C    12.120313  1.278708  3.335408
  C    12.312905  5.068436  3.473762
  C    10.886967  0.875399  2.641383
  C    11.028751  4.621367  2.892640
  N    13.208588  1.267884  2.578217
  N    13.282757  5.132263  2.606874
  N    11.091740  0.534506  1.375830
  N    11.090879  4.501678  1.536664
  N    10.264526  1.360880  5.123377
  N    10.529566  5.338161  5.345030
  S     9.519837  0.847863  3.764306
  S     9.687061  4.783401  4.002401
  S    12.702452  0.833402  1.067928
  S    12.621494  4.737189  1.119757
  S    11.876804  1.634098  4.982893
  S    12.169144  5.510098  5.103725
