16  
    
  C    11.953632  1.460625  3.397149
  C    12.288361  5.194971  3.219424
  C    10.861376  0.784394  2.762388
  C    11.000464  4.821092  2.630358
  N    13.081619  1.528145  2.687483
  N    13.345529  4.981382  2.360768
  N    11.081754  0.475914  1.464129
  N    11.063093  4.362722  1.391003
  N    10.146607  1.186791  5.218695
  N    10.443329  5.363905  5.078501
  S     9.496959  0.708468  3.760378
  S     9.632781  4.830443  3.686800
  S    12.714566  0.790108  1.241236
  S    12.719859  4.458159  0.924114
  S    11.765084  1.606432  5.149804
  S    12.075989  5.676897  4.846192
