16  
    
  C    12.104126  1.501372  3.291946
  C    12.260208  5.120164  3.646259
  C    10.963773  0.894726  2.661031
  C    10.988263  4.835277  2.966284
  N    13.173810  1.550646  2.519007
  N    13.250618  5.111764  2.759987
  N    11.101398  0.604487  1.361838
  N    11.076546  4.615899  1.685662
  N    10.274884  1.222622  5.138328
  N    10.561231  5.134965  5.522521
  S     9.524178  0.803102  3.663882
  S     9.681197  4.694054  4.172697
  S    12.700041  0.859908  1.032215
  S    12.659298  4.864421  1.248642
  S    11.945122  1.633557  5.059312
  S    12.169119  5.477684  5.319512
