16  
    
  C     5.916149 -2.196707  1.651036
  C     5.400187  1.205392  1.750059
  C     4.603795 -2.509738  1.149784
  C     4.105668  0.915820  1.125180
  N     6.866377 -2.109383  0.716261
  N     6.429913  1.147936  0.929483
  N     4.614742 -2.709048 -0.159289
  N     4.173763  0.631388 -0.179071
  N     4.333921 -2.309418  3.703820
  N     3.701491  1.187818  3.619632
  S     3.375961 -2.558984  2.369459
  S     2.868509  0.662586  2.320782
  S     6.091883 -2.256644 -0.727476
  S     5.798089  0.811978 -0.566891
  S     5.923138 -1.940035  3.377384
  S     5.276726  1.692161  3.356982
