16  
    
  C     6.268739 -1.557973  1.550314
  C     6.402072  2.134970  1.892186
  C     5.107433 -2.185717  0.927279
  C     5.230456  1.576494  1.234211
  N     7.354835 -1.408256  0.777816
  N     7.396604  2.385533  1.023728
  N     5.276845 -2.359523 -0.383906
  N     5.469121  1.229021 -0.041184
  N     4.442488 -1.810507  3.364461
  N     4.642782  1.799955  3.724911
  S     3.803817 -2.534353  1.994719
  S     3.863597  1.372477  2.337513
  S     6.894535 -1.985768 -0.729464
  S     6.957338  1.720574 -0.389068
  S     5.983356 -1.158719  3.230863
  S     6.146277  2.424376  3.570506
