16  
    
  C     8.482516 -0.962696  2.472419
  C     8.225671  2.598193  2.226167
  C     7.186954 -1.548343  2.093354
  C     7.036155  2.126117  1.538779
  N     9.341811 -0.915387  1.485404
  N     9.295697  2.755079  1.447162
  N     7.168401 -1.957979  0.857291
  N     7.217546  1.966690  0.233461
  N     6.791275 -0.688377  4.466359
  N     6.215103  2.706293  3.909887
  S     5.895117 -1.356890  3.263280
  S     5.552032  2.077057  2.508352
  S     8.618212 -1.586963  0.162304
  S     8.807537  2.345362 -0.048237
  S     8.425910 -0.438304  4.130131
  S     7.885172  2.923640  3.925456
