16  
    
  C     5.494293 -2.280140  1.652438
  C     5.233193  1.597380  1.559931
  C     4.297868 -2.598907  0.866744
  C     4.137641  1.019036  0.784254
  N     6.617079 -2.091255  0.947987
  N     6.352187  1.604999  0.865347
  N     4.528365 -2.768502 -0.441020
  N     4.420297  0.748450 -0.489040
  N     3.498074 -2.466746  3.344410
  N     3.118230  1.664197  3.098378
  S     2.897842 -2.921390  1.820541
  S     2.737374  0.719322  1.736589
  S     6.124287 -2.414837 -0.649700
  S     6.040530  1.189338 -0.714601
  S     5.137212 -2.098671  3.345876
  S     4.740573  2.174465  3.131687
