16  
    
  C    11.056775  0.512802  3.020891
  C    10.910265  4.384504  2.884037
  C     9.784770  0.114672  2.448294
  C     9.849859  3.580805  2.251896
  N    12.073597  0.695943  2.158601
  N    11.992136  4.633992  2.149341
  N     9.893251 -0.106144  1.139211
  N    10.150700  3.261586  1.003882
  N     9.290329  0.486610  4.939829
  N     9.034947  4.154342  4.597957
  S     8.485742 -0.121888  3.606723
  S     8.446906  3.493252  3.213686
  S    11.461040  0.199388  0.691605
  S    11.622437  3.907379  0.615752
  S    10.906560  0.785369  4.729297
  S    10.637531  4.629434  4.564872
