16  
    
  C    11.526954  1.310507  3.018227
  C    11.413457  4.926746  3.080461
  C    10.405595  0.495779  2.479937
  C    10.296796  4.303313  2.351951
  N    12.342173  1.745844  2.088819
  N    12.475240  5.301001  2.392647
  N    10.571757  0.188275  1.199220
  N    10.512599  4.382560  1.033386
  N    10.090205  0.695828  5.058545
  N     9.576298  4.381511  4.838515
  S     9.252143  0.072789  3.721755
  S     8.969662  3.937357  3.386498
  S    11.820924  1.092845  0.642864
  S    12.060507  4.924292  0.753663
  S    11.501407  1.552022  4.679090
  S    11.068265  5.095919  4.832910
