16  
    
  C     6.090769 -1.586097  2.405151
  C     6.640453  2.165072  2.171963
  C     5.030306 -2.321545  1.722429
  C     5.372052  1.782303  1.605749
  N     7.068510 -1.139639  1.612707
  N     7.649202  2.281580  1.301719
  N     5.369586 -2.653829  0.462181
  N     5.445218  1.597754  0.293875
  N     4.462413 -2.351467  4.225146
  N     4.953131  1.782536  4.121575
  S     3.752112 -2.827755  2.826112
  S     4.097538  1.424082  2.738442
  S     6.754048 -1.708431  0.060266
  S     6.970518  1.975912 -0.165053
  S     5.904274 -1.498513  4.100643
  S     6.503100  2.244801  3.935795
