16  
    
  C     4.746285 -2.280319  1.616006
  C     4.920796  1.456924  1.887171
  C     3.541952 -2.743584  0.921274
  C     3.628792  1.286784  1.287060
  N     5.770559 -2.053614  0.813724
  N     5.920109  1.364164  1.038235
  N     3.652276 -2.728659 -0.374276
  N     3.625990  1.190048 -0.054308
  N     2.822861 -2.533473  3.371059
  N     3.224423  1.335722  3.829304
  S     2.136394 -3.063245  1.960401
  S     2.317126  1.409982  2.464112
  S     5.174004 -2.255295 -0.715282
  S     5.268201  1.255623 -0.496718
  S     4.381707 -1.929544  3.300489
  S     4.801268  1.561961  3.585618
