16  
    
  C     3.419715 -3.073926  1.015529
  C     3.833065  0.705015  1.402727
  C     2.199551 -3.498402  0.434295
  C     2.607751  0.279439  0.767300
  N     4.474784 -3.051271  0.191907
  N     4.899924  0.826430  0.589476
  N     2.337150 -3.739877 -0.872140
  N     2.735768  0.087023 -0.536218
  N     1.734586 -3.081741  2.902377
  N     2.052869  0.379470  3.309785
  S     0.965157 -3.779624  1.573848
  S     1.276838  0.027185  1.844874
  S     3.846494 -3.340888 -1.277743
  S     4.324101  0.480581 -0.910130
  S     3.368745 -2.716486  2.694491
  S     3.560676  0.960908  3.122262
