16  
    
  C     7.957057 -0.701521  2.406155
  C     8.314133  3.036405  2.330910
  C     6.805219 -1.259778  1.694747
  C     7.035197  2.590526  1.814700
  N     9.013393 -0.427848  1.650638
  N     9.261985  3.015199  1.423471
  N     7.036602 -1.432978  0.393220
  N     7.056160  2.293394  0.546175
  N     6.116608 -1.126062  4.103064
  N     6.745151  2.752828  4.337469
  S     5.499936 -1.747646  2.676476
  S     5.791082  2.652841  3.043018
  S     8.568699 -0.877083  0.134357
  S     8.580927  2.539333 -0.040159
  S     7.738317 -0.483297  4.101219
  S     8.317226  3.249803  4.027839
