16  
    
  C     4.632475 -1.992841  1.524698
  C     4.666070  1.571757  1.708949
  C     3.346713 -2.359475  0.953872
  C     3.433951  1.289493  1.047209
  N     5.645497 -1.967692  0.687897
  N     5.762987  1.651668  0.960277
  N     3.390920 -2.658079 -0.309131
  N     3.588399  1.077428 -0.247888
  N     2.905446 -2.289730  3.511738
  N     2.900079  1.457700  3.665280
  S     2.028771 -2.421107  2.081123
  S     2.126464  1.154813  2.176565
  S     4.947956 -2.368359 -0.801071
  S     5.245428  1.422275 -0.602710
  S     4.577793 -2.055427  3.291158
  S     4.526127  1.686696  3.434230
