16  
    
  C     8.968542 -0.385006  2.511201
  C     9.386794  3.585417  2.848390
  C     7.745855 -0.762541  1.916351
  C     8.145505  3.125998  2.140931
  N     9.995094 -0.126302  1.670634
  N    10.445079  3.527506  2.027210
  N     7.842273 -0.934980  0.583979
  N     8.272094  2.809279  0.842235
  N     7.408538 -0.851491  4.513699
  N     7.619037  3.465805  4.702052
  S     6.555500 -1.144242  3.100932
  S     6.805120  3.108109  3.265553
  S     9.435464 -0.532200  0.155264
  S     9.905594  3.193257  0.503685
  S     9.004387 -0.398579  4.233719
  S     9.230266  3.920645  4.566755
