16  
    
  C    12.649609  1.500641  3.575475
  C    12.890512  5.488347  3.747128
  C    11.502892  1.020250  2.906564
  C    11.719495  4.845058  3.073306
  N    13.704004  1.677375  2.841679
  N    13.892770  5.809773  2.956619
  N    11.712170  0.635880  1.637129
  N    11.940007  4.642095  1.819249
  N    10.819823  1.510738  5.392994
  N    11.053784  5.144208  5.622288
  S    10.135999  0.898166  3.970981
  S    10.347802  4.719960  4.152804
  S    13.258078  1.154446  1.315939
  S    13.445577  5.247553  1.416461
  S    12.419791  2.024869  5.268184
  S    12.666061  5.814882  5.397332
