16  
    
  C    12.182445  1.375639  3.474781
  C    12.100195  5.093001  3.794292
  C    10.958925  0.854914  2.800389
  C    10.813426  4.671662  3.204914
  N    13.119029  1.797922  2.613953
  N    13.057111  5.347399  2.911434
  N    11.103334  0.758872  1.490303
  N    10.849551  4.622006  1.890589
  N    10.321069  1.129985  5.206203
  N    10.617472  4.704680  5.798120
  S     9.615405  0.443867  3.861518
  S     9.673001  4.442723  4.442388
  S    12.617719  1.338564  1.057838
  S    12.436762  5.173435  1.421402
  S    11.833295  1.781768  5.078501
  S    12.221445  5.102795  5.545217
