16  
    
  C     6.091438 -1.575388  2.336373
  C     6.633205  2.063677  2.209932
  C     5.164165 -2.446785  1.676857
  C     5.360375  1.740491  1.576217
  N     7.069781 -1.126921  1.556427
  N     7.617115  2.297684  1.354673
  N     5.395634 -2.606836  0.370679
  N     5.370759  1.591327  0.267556
  N     4.398940 -2.276252  4.210576
  N     4.904420  1.846839  4.095252
  S     3.783759 -2.840035  2.745526
  S     4.078698  1.442098  2.694443
  S     6.748534 -1.759202  0.052490
  S     6.990288  1.981651 -0.205621
  S     5.923135 -1.521725  4.081912
  S     6.527971  2.265489  3.921353
