16  
    
  C     4.668887 -2.583961  1.544202
  C     5.271675  1.639367  1.794129
  C     3.469260 -2.987448  0.861859
  C     3.951192  1.319335  1.332361
  N     5.681245 -2.165701  0.744994
  N     6.231264  1.634537  0.855908
  N     3.491731 -2.852198 -0.464492
  N     3.895320  1.181564 -0.003357
  N     2.868432 -2.979112  3.333831
  N     3.628995  1.618126  3.825552
  S     2.120604 -3.402296  1.909572
  S     2.672143  1.311623  2.523211
  S     5.028327 -2.298052 -0.808487
  S     5.461711  1.286577 -0.584375
  S     4.398303 -2.423645  3.241349
  S     5.247753  1.773821  3.575128
