16  
    
  C     5.417939 -2.104818  1.905069
  C     5.307754  1.606558  1.674598
  C     4.266140 -2.615827  1.247118
  C     4.238686  0.947022  0.944978
  N     6.505477 -1.980795  1.102276
  N     6.313642  2.126089  0.985426
  N     4.425267 -2.720082 -0.088978
  N     4.424211  0.971011 -0.361883
  N     3.674113 -2.638580  3.675719
  N     3.458748  0.894347  3.367994
  S     2.950670 -3.020036  2.251447
  S     2.876439  0.377673  1.880596
  S     5.974365 -2.233505 -0.435040
  S     5.844916  1.825080 -0.637805
  S     5.194172 -2.108233  3.617572
  S     4.964377  1.575757  3.377670
