16  
    
  C     9.752328 -0.242023  2.856376
  C     9.579814  3.850104  2.739892
  C     8.587222 -0.618590  2.129460
  C     8.354341  3.491514  2.022623
  N    10.823893 -0.037030  2.080768
  N    10.645001  3.882237  1.952407
  N     8.815448 -0.863061  0.840819
  N     8.526083  3.442523  0.685972
  N     7.848958 -0.430295  4.635901
  N     7.884471  3.439358  4.550427
  S     7.253345 -0.821313  3.151028
  S     7.091797  3.241702  3.118284
  S    10.365880 -0.381389  0.551688
  S    10.117847  3.719100  0.411946
  S     9.463976  0.071161  4.554908
  S     9.513016  3.733134  4.489535
