16  
    
  C    12.066855  1.370319  3.473205
  C    12.267587  5.104968  3.354176
  C    10.870588  0.814424  2.779401
  C    11.042282  4.636602  2.691473
  N    13.157812  1.610226  2.737606
  N    13.303681  5.043482  2.536820
  N    11.212131  0.419952  1.536615
  N    11.170346  4.426781  1.360257
  N    10.161678  1.079295  5.178203
  N    10.377425  5.394408  5.079105
  S     9.457941  0.620651  3.757743
  S     9.673295  4.765470  3.719089
  S    12.709129  1.008788  1.187874
  S    12.772806  4.563692  1.021194
  S    11.701150  1.674609  5.154877
  S    12.008938  5.746152  4.945791
