16  
    
  C    10.463556  0.021698  2.735916
  C    10.350677  4.248462  3.068617
  C     9.250941 -0.496609  2.171806
  C     9.022381  3.852862  2.615091
  N    11.467830  0.055654  1.873533
  N    11.358536  4.027706  2.209473
  N     9.360214 -0.927603  0.934861
  N     8.998844  3.520885  1.330238
  N     8.487779  0.244322  4.523701
  N     8.601053  4.225946  5.089612
  S     7.797937 -0.431724  3.192440
  S     7.692221  3.917279  3.708290
  S    10.836577 -0.531855  0.409906
  S    10.615194  3.509346  0.813731
  S    10.101636  0.616661  4.352059
  S    10.208633  4.682545  4.758850
