16  
    
  C     9.730478 -0.323055  2.527563
  C     9.723654  3.491703  2.539765
  C     8.425792 -0.674477  1.981769
  C     8.457511  3.165661  1.963176
  N    10.686420 -0.146021  1.624723
  N    10.759324  3.723107  1.706473
  N     8.501284 -0.858233  0.651519
  N     8.519380  3.203680  0.645618
  N     8.180337 -0.554011  4.552893
  N     8.134275  2.909029  4.482459
  S     7.225709 -1.052466  3.229863
  S     7.173171  2.776603  3.097423
  S    10.046885 -0.575029  0.168516
  S    10.086487  3.605355  0.192510
  S     9.761572 -0.240533  4.208666
  S     9.709536  3.296361  4.293202
