16  
    
  C    11.188825  0.967988  3.313713
  C    11.586669  4.658228  2.761544
  C    10.007970  0.438262  2.743982
  C    10.330799  4.316592  2.189811
  N    12.182774  1.191202  2.487490
  N    12.619793  4.798869  1.947846
  N    10.034849  0.370156  1.417195
  N    10.379697  4.146033  0.896151
  N     9.562003  1.047785  5.289770
  N     9.914295  4.472849  4.713785
  S     8.756137  0.533420  3.986806
  S     9.063105  3.960941  3.341118
  S    11.591471  0.792190  0.953485
  S    11.904854  4.540223  0.408680
  S    11.182830  1.085268  5.075133
  S    11.533076  4.870251  4.467934
