16  
    
  C     5.016382 -2.348517  1.585030
  C     4.886001  1.669684  2.035484
  C     3.824231 -2.995896  1.018728
  C     3.731425  1.051379  1.389558
  N     6.075156 -2.380841  0.777285
  N     5.960912  1.809337  1.265386
  N     3.935350 -3.430310 -0.215633
  N     3.955643  0.761240  0.110405
  N     3.233991 -2.450372  3.451339
  N     3.127642  1.261369  3.828673
  S     2.430387 -2.836374  2.089724
  S     2.391847  0.716926  2.458858
  S     5.456461 -2.958493 -0.669735
  S     5.537406  1.257944 -0.257783
  S     4.830386 -1.971029  3.260329
  S     4.673173  1.720838  3.714551
