16  
    
  C     9.049802 -0.489009  2.411819
  C     9.657551  3.344623  2.755273
  C     7.902146 -0.972895  1.705382
  C     8.317650  2.996431  2.207857
  N    10.183248 -0.378744  1.675047
  N    10.644008  3.351702  1.833035
  N     8.180987 -1.242620  0.444195
  N     8.334460  2.683810  0.900509
  N     6.958010 -0.214186  3.921326
  N     7.774304  3.464561  4.659153
  S     6.408617 -1.085739  2.647264
  S     6.933384  3.294875  3.249401
  S     9.733474 -0.837190  0.121276
  S     9.882256  2.960122  0.409515
  S     8.613552 -0.039993  4.061212
  S     9.391493  3.725202  4.397574
