16  
    
  C     7.106712 -1.396726  2.105803
  C     7.036331  2.081364  2.051931
  C     5.953906 -1.878260  1.347752
  C     5.846860  1.757230  1.332721
  N     8.201463 -1.361352  1.375933
  N     8.158643  2.258735  1.362566
  N     6.134800 -2.055497  0.065941
  N     6.037051  1.560013  0.031484
  N     5.148315 -1.666500  3.787303
  N     5.160357  1.885799  3.814789
  S     4.505210 -2.127464  2.332390
  S     4.474788  1.562086  2.329115
  S     7.688039 -1.695630 -0.221746
  S     7.657081  2.021329 -0.290740
  S     6.849704 -1.499869  3.818030
  S     6.824992  2.320461  3.730755
