16  
    
  C     4.552964 -2.598874  1.534093
  C     5.308233  1.535825  1.786275
  C     3.364877 -2.975498  0.839945
  C     4.001135  1.230212  1.237516
  N     5.583495 -2.267135  0.730998
  N     6.211878  1.675717  0.829562
  N     3.415007 -2.721758 -0.477386
  N     3.941189  1.103008 -0.088148
  N     2.803684 -2.896508  3.337433
  N     3.627150  1.608950  3.776260
  S     2.093518 -3.329296  1.905479
  S     2.706838  1.269921  2.453593
  S     5.002542 -2.343723 -0.814331
  S     5.456087  1.341915 -0.647230
  S     4.445164 -2.515971  3.226140
  S     5.239703  1.773566  3.608030
