16  
    
  C     7.236611 -1.360085  2.281864
  C     7.713025  2.828068  2.274289
  C     6.103393 -1.786969  1.469895
  C     6.568136  2.277438  1.625826
  N     8.242459 -0.899144  1.510256
  N     8.766692  2.923966  1.455431
  N     6.321664 -1.888053  0.138921
  N     6.737333  2.126093  0.296549
  N     5.346503 -1.821777  3.908757
  N     6.020850  2.525708  4.146411
  S     4.674243 -2.105017  2.434541
  S     5.298562  2.055492  2.774880
  S     7.804663 -1.176523 -0.045645
  S     8.233620  2.558847 -0.097702
  S     6.968245 -1.201082  3.960114
  S     7.584177  3.133645  3.988413
