16  
    
  C    11.979784  1.579773  3.531389
  C    12.117775  5.045670  3.829481
  C    10.855644  0.867109  2.827798
  C    10.859117  4.592177  3.289167
  N    12.894331  2.079029  2.686170
  N    12.921791  5.399937  2.850123
  N    11.107393  0.679544  1.527771
  N    10.754286  4.575798  1.945052
  N    10.383305  0.893559  5.367217
  N    10.553965  4.476938  5.794770
  S     9.725410  0.262631  3.989710
  S     9.643380  4.117327  4.424968
  S    12.527156  1.466198  1.136154
  S    12.168313  5.194516  1.410138
  S    11.873387  1.658014  5.303495
  S    12.143406  4.978375  5.552690
