16  
    
  C     7.175887 -1.310702  2.312962
  C     7.783830  2.835383  2.350820
  C     6.117194 -1.862232  1.508003
  C     6.606725  2.331233  1.678531
  N     8.190834 -0.791460  1.618899
  N     8.847053  3.077053  1.579913
  N     6.409260 -1.988713  0.207580
  N     6.723709  2.291945  0.354604
  N     5.372043 -2.050883  3.963570
  N     6.005063  2.454548  4.156436
  S     4.808363 -2.562780  2.433775
  S     5.244136  2.029743  2.719085
  S     7.893028 -1.273535  0.070610
  S     8.338252  2.684776 -0.012725
  S     6.833004 -1.341374  3.975982
  S     7.542003  2.940510  4.047946
