16  
    
  C    11.039736  0.517996  3.211420
  C    11.153148  4.139476  3.088132
  C     9.902357 -0.060660  2.568584
  C     9.932304  3.793171  2.442449
  N    12.099331  0.875703  2.456960
  N    12.165178  4.350147  2.241985
  N     9.999916 -0.044295  1.237998
  N     9.999096  3.664542  1.118073
  N     9.331236  0.007812  5.095757
  N     9.471106  3.922910  5.004143
  S     8.499600 -0.225276  3.644357
  S     8.668764  3.413259  3.631415
  S    11.581081  0.519137  0.886113
  S    11.609725  4.119208  0.774762
  S    10.844842  0.695734  4.897634
  S    11.035217  4.456416  4.768381
