16  
    
  C     8.772198 -0.249045  2.513313
  C     8.668762  3.057272  2.549545
  C     7.577419 -0.731055  1.855344
  C     7.421201  2.687061  1.900233
  N     9.743160  0.040611  1.707094
  N     9.748743  3.217473  1.761989
  N     7.684611 -0.867000  0.570607
  N     7.563143  2.568913  0.604804
  N     7.015484 -0.689311  4.344101
  N     6.741778  2.912544  4.329676
  S     6.233596 -0.972590  2.918207
  S     5.979118  2.445895  2.935037
  S     9.206798 -0.331646  0.178133
  S     9.167817  2.799624  0.282102
  S     8.506290 -0.090494  4.195114
  S     8.344174  3.251425  4.265287
