16  
    
  C     7.088014 -1.428309  2.303634
  C     7.042287  2.240524  2.107023
  C     5.888430 -1.836600  1.586986
  C     5.846477  1.810186  1.420354
  N     8.118611 -1.278091  1.489092
  N     8.110174  2.424266  1.347567
  N     5.934870 -1.778773  0.258438
  N     6.076873  1.575913  0.111394
  N     5.278358 -1.836034  4.165874
  N     5.252696  2.014203  3.936171
  S     4.528798 -2.038638  2.669639
  S     4.521063  1.673571  2.449315
  S     7.537131 -1.533860 -0.097248
  S     7.656289  1.901474 -0.188359
  S     6.840414 -1.353003  4.031341
  S     6.826586  2.565934  3.786873
