16  
    
  C    10.063770  0.053358  2.633170
  C     9.859295  4.136336  2.743960
  C     8.881484 -0.550097  2.050947
  C     8.933724  3.173893  2.227470
  N    11.051576  0.252190  1.802644
  N    10.875529  4.400123  1.913891
  N     8.965395 -0.738083  0.774712
  N     9.173531  2.670139  1.030932
  N     8.229148 -0.374498  4.498236
  N     8.100040  3.562957  4.581068
  S     7.519743 -0.894374  3.113206
  S     7.767022  2.533237  3.357160
  S    10.469237 -0.193688  0.280535
  S    10.667862  3.327870  0.590739
  S     9.847007  0.184120  4.438802
  S     9.445240  4.512375  4.401260
