16  
    
  C     4.253371 -2.305545  1.783526
  C     3.998470  1.185081  1.195965
  C     3.066598 -2.886756  1.243583
  C     2.935937  0.350966  0.699531
  N     5.259742 -2.153173  0.867931
  N     4.983790  1.487234  0.353369
  N     3.171440 -3.213372 -0.063784
  N     3.161912  0.009312 -0.539716
  N     2.621657 -2.797823  3.759036
  N     2.315774  0.918632  3.128092
  S     1.801680 -3.247589  2.390376
  S     1.729288  0.043785  1.879961
  S     4.679450 -2.708045 -0.558980
  S     4.576794  0.733454 -1.073858
  S     4.038929 -1.966437  3.522528
  S     3.717791  1.678906  2.822380
