16  
    
  C     9.672670 -0.650835  2.748732
  C     9.622213  3.251695  2.573901
  C     8.410848 -0.935999  2.136308
  C     8.394822  3.066971  1.952331
  N    10.732257 -0.534282  1.919068
  N    10.693444  3.337788  1.765906
  N     8.558326 -1.026167  0.814821
  N     8.424213  3.051236  0.623519
  N     7.931991 -0.548816  4.578773
  N     7.716221  2.952477  4.423319
  S     7.044093 -0.969098  3.212964
  S     6.930369  3.032808  2.971347
  S    10.117419 -0.797889  0.400734
  S     9.990676  3.277093  0.272627
  S     9.560193 -0.417219  4.451910
  S     9.295353  3.298327  4.262903
