16  
    
  C     8.506915 -0.888667  2.384048
  C     8.283033  2.658268  2.024457
  C     7.290091 -1.261387  1.686998
  C     7.074120  2.290786  1.313590
  N     9.586187 -0.885458  1.629407
  N     9.362094  2.820868  1.237871
  N     7.418562 -1.256166  0.395415
  N     7.217251  2.099097  0.018742
  N     6.617808 -1.166037  4.093694
  N     6.374240  2.294915  3.777961
  S     5.848558 -1.530150  2.630556
  S     5.682730  1.898170  2.348367
  S     9.011154 -1.163451  0.079704
  S     8.838511  2.392438 -0.278560
  S     8.238360 -0.916621  4.078497
  S     7.920315  2.726434  3.720444
