16  
    
  C     7.254049 -1.600617  2.262582
  C     7.516428  2.294237  2.176086
  C     6.097088 -2.207055  1.618276
  C     6.302977  1.774217  1.617938
  N     8.246446 -1.483415  1.417705
  N     8.563012  2.310171  1.329668
  N     6.230303 -2.435818  0.324272
  N     6.418410  1.453769  0.325952
  N     5.400732 -1.468509  4.055443
  N     5.751749  2.139060  4.075396
  S     4.686593 -2.198570  2.735995
  S     4.943261  1.618080  2.701362
  S     7.781454 -1.947015 -0.113437
  S     7.999073  1.739776 -0.071639
  S     7.033890 -1.325960  3.994380
  S     7.303559  2.666157  3.902993
