16  
    
  C     8.846205 -0.148976  2.533832
  C     8.586906  3.135519  2.550483
  C     7.658981 -0.664103  1.885568
  C     7.444858  2.586380  1.939709
  N     9.845854  0.092252  1.682022
  N     9.552438  3.536140  1.718952
  N     7.675922 -0.641530  0.574195
  N     7.535546  2.545648  0.625923
  N     7.138825 -0.741939  4.433307
  N     6.709435  2.887080  4.350313
  S     6.363322 -0.943257  2.984218
  S     6.065922  2.132025  2.977892
  S     9.213752 -0.192004  0.166567
  S     8.999032  3.107659  0.184867
  S     8.692311 -0.164348  4.301137
  S     8.322275  3.358048  4.261268
