16  
    
  C    12.448253  1.697975  3.293126
  C    12.237987  5.337325  3.526129
  C    11.257719  1.122032  2.746127
  C    11.129518  4.717121  2.881869
  N    13.477393  1.745960  2.487942
  N    13.255357  5.695106  2.752571
  N    11.338434  0.917024  1.451632
  N    11.288846  4.614673  1.580146
  N    10.784939  1.257514  5.203795
  N    10.585958  4.988871  5.497623
  S     9.906516  0.826630  3.861234
  S     9.888785  4.428656  4.086510
  S    12.898673  1.323213  0.994820
  S    12.783631  5.168675  1.238664
  S    12.316194  1.856033  5.040978
  S    12.202900  5.523677  5.308039
