16  
    
  C    11.158868  0.726781  2.901454
  C    11.177396  4.239920  3.375277
  C    10.073104 -0.076470  2.444530
  C     9.901193  4.121321  2.689043
  N    12.176387  0.796639  2.035832
  N    12.148918  4.274031  2.482797
  N    10.169969 -0.440619  1.175943
  N     9.903819  3.999412  1.363130
  N     9.411503  0.476953  4.847051
  N     9.446224  4.092269  5.285963
  S     8.748636 -0.262854  3.520880
  S     8.579659  4.166392  3.880676
  S    11.638953  0.024529  0.638541
  S    11.493182  4.067415  0.909614
  S    10.942811  1.039622  4.606721
  S    11.056919  4.526104  5.104231
