16  
    
  C     7.945102 -0.688263  2.318355
  C     8.377602  2.894136  2.362910
  C     6.830062 -1.371268  1.626531
  C     7.032676  2.636234  1.845664
  N     8.992042 -0.440751  1.545578
  N     9.292054  2.981770  1.419496
  N     6.969663 -1.365247  0.330775
  N     6.923007  2.362374  0.539845
  N     6.027744 -1.073758  4.090165
  N     6.766530  2.907967  4.352392
  S     5.532058 -1.809139  2.705506
  S     5.802965  2.707315  3.056872
  S     8.517302 -0.812941 -0.034193
  S     8.531820  2.603148  0.001063
  S     7.569241 -0.577719  4.047009
  S     8.418721  3.138434  4.091127
