16  
    
  C    11.318493  1.122240  3.207792
  C    11.380903  4.906910  2.815236
  C    10.074368  0.736994  2.633556
  C    10.242942  4.223918  2.250410
  N    12.280123  1.351751  2.347554
  N    12.441599  5.127072  2.048730
  N    10.107870  0.558734  1.295082
  N    10.396844  3.990304  0.935191
  N     9.774598  0.632261  5.336013
  N     9.744515  4.505419  4.739335
  S     8.918631  0.233972  3.967998
  S     8.967227  3.938613  3.369424
  S    11.696679  0.912953  0.852361
  S    11.890161  4.604391  0.528873
  S    11.254053  1.344986  4.960576
  S    11.304068  5.041395  4.560754
