16  
    
  C     4.482433 -2.580830  1.506563
  C     5.166125  1.562046  1.666564
  C     3.227858 -2.836093  0.837972
  C     3.886709  1.297108  1.070855
  N     5.527255 -2.590030  0.721522
  N     6.180766  1.609046  0.777186
  N     3.368493 -2.898551 -0.460719
  N     3.875595  1.269927 -0.252849
  N     2.737503 -2.814256  3.383240
  N     3.500695  1.173265  3.580874
  S     1.885408 -2.828957  1.941367
  S     2.667186  0.823206  2.224735
  S     4.975341 -2.641181 -0.822566
  S     5.436640  1.396363 -0.725815
  S     4.367728 -2.567771  3.273505
  S     5.092767  1.400152  3.425193
