16  
    
  C    12.537027  1.521525  3.673834
  C    12.361305  5.161932  3.406250
  C    11.319672  0.926965  3.051436
  C    11.069607  4.761918  2.807257
  N    13.511560  1.804283  2.844752
  N    13.423097  5.183193  2.613930
  N    11.372522  0.898850  1.728023
  N    11.223169  4.580381  1.525331
  N    10.822426  1.458743  5.530844
  N    10.681299  4.931147  5.404887
  S    10.092969  0.836707  4.238681
  S     9.781118  4.577166  4.014543
  S    12.910127  1.411053  1.288851
  S    12.783524  4.842918  1.088181
  S    12.435589  1.717171  5.424586
  S    12.265336  5.423748  5.088896
