16  
    
  C     5.190443 -2.229629  1.550765
  C     4.998707  1.549830  1.985601
  C     4.042253 -2.818685  0.972508
  C     3.878586  0.956063  1.314348
  N     6.252828 -2.213334  0.736747
  N     6.116689  1.655803  1.227081
  N     4.240914 -3.293607 -0.288148
  N     4.152927  0.487259  0.103980
  N     3.405292 -2.250500  3.400233
  N     3.005158  1.505162  3.716044
  S     2.764578 -3.122723  2.083325
  S     2.404840  0.816058  2.351892
  S     5.772845 -2.821198 -0.706263
  S     5.679616  0.977805 -0.229424
  S     5.006048 -1.801200  3.164263
  S     4.519553  2.223387  3.500959
