16  
    
  C     8.398270 -0.868075  2.450196
  C     8.225207  2.508672  2.103593
  C     7.133029 -1.256736  1.910263
  C     7.052518  2.160224  1.338293
  N     9.447487 -0.920675  1.642026
  N     9.375342  2.617149  1.443129
  N     7.192013 -1.510695  0.607421
  N     7.333349  1.946234  0.051699
  N     6.641994 -0.572098  4.298822
  N     6.346851  2.086074  3.772871
  S     5.769611 -1.253938  3.053328
  S     5.600994  1.911722  2.320508
  S     8.800931 -1.418375  0.183465
  S     9.007268  2.155555 -0.122963
  S     8.345009 -0.483035  4.115601
  S     7.877278  2.645435  3.772996
