16  
    
  C    11.978660  1.555061  3.499653
  C    12.126961  5.050009  3.802054
  C    10.855192  0.901204  2.811429
  C    10.895831  4.548209  3.281816
  N    12.903554  2.022874  2.679888
  N    12.975819  5.428319  2.843478
  N    11.096317  0.659864  1.532459
  N    10.736193  4.590085  2.006468
  N    10.366416  0.945446  5.338273
  N    10.550323  4.512399  5.818549
  S     9.757975  0.288676  3.962728
  S     9.637104  4.159136  4.437099
  S    12.535296  1.459690  1.119138
  S    12.202582  5.210384  1.407048
  S    11.856240  1.678914  5.307218
  S    12.147818  4.975297  5.537106
