16  
    
  C     6.114125 -1.881134  1.676299
  C     6.237249  1.881328  1.849385
  C     4.925800 -2.381261  1.042744
  C     4.979360  1.839604  1.172914
  N     7.169584 -2.046057  0.878175
  N     7.325010  1.845629  1.091452
  N     5.023385 -2.664408 -0.253574
  N     5.052145  1.630436 -0.142026
  N     4.292816 -1.954162  3.549797
  N     4.435767  1.748920  3.670570
  S     3.572911 -2.513355  2.168789
  S     3.582194  1.971418  2.233508
  S     6.581469 -2.380506 -0.621634
  S     6.742396  1.715861 -0.522370
  S     5.945107 -1.593222  3.381549
  S     6.090466  1.858676  3.572347
