16  
    
  C     4.300571 -2.627906  1.555796
  C     4.207110  1.135167  1.755751
  C     3.046264 -3.126972  1.040960
  C     2.926862  1.192049  1.142192
  N     5.275111 -2.671556  0.677461
  N     5.197150  0.993113  0.880773
  N     3.069736 -3.473676 -0.232227
  N     2.895291  1.021911 -0.173577
  N     2.543862 -2.537747  3.549898
  N     2.515869  1.297223  3.633686
  S     1.819136 -3.356180  2.280807
  S     1.556563  1.313807  2.273092
  S     4.594490 -3.161841 -0.741034
  S     4.520885  0.858860 -0.586655
  S     4.120428 -2.067601  3.237232
  S     4.194522  1.522250  3.394144
