16  
    
  C    10.410789  0.694159  2.995919
  C    10.782849  4.357822  2.848067
  C     9.256850 -0.043475  2.465195
  C     9.461267  4.080562  2.335041
  N    11.322798  1.063898  2.105443
  N    11.739978  4.585287  1.946006
  N     9.278189 -0.218319  1.173893
  N     9.446583  3.948799  1.007265
  N     8.745347  0.094624  4.960590
  N     9.004563  4.159135  4.843033
  S     7.941777 -0.362529  3.570345
  S     8.154777  3.892812  3.423288
  S    10.749860  0.430960  0.648206
  S    10.884429  4.434495  0.444098
  S    10.255808  0.738378  4.741106
  S    10.603883  4.619309  4.623482
