16  
    
  C     7.246812 -1.713113  2.280539
  C     7.475904  2.234933  2.179188
  C     6.033255 -2.014070  1.623663
  C     6.300080  1.621726  1.621145
  N     8.318425 -1.593289  1.496698
  N     8.487856  2.396236  1.322418
  N     6.177118 -2.206415  0.301478
  N     6.454066  1.384477  0.322692
  N     5.456233 -1.701631  4.016065
  N     5.784554  2.120481  4.088699
  S     4.696987 -2.293063  2.661079
  S     4.939855  1.742024  2.748488
  S     7.786521 -1.974173 -0.012175
  S     7.925164  1.883411 -0.124357
  S     7.084269 -1.445403  3.946947
  S     7.313732  2.651157  3.893254
