16  
    
  C     7.199779 -1.325850  2.164882
  C     7.415793  2.193063  2.174582
  C     6.007275 -1.956606  1.622772
  C     6.244970  1.661867  1.564365
  N     8.252594 -1.296087  1.373089
  N     8.492021  2.180105  1.373654
  N     6.213137 -2.446557  0.414117
  N     6.415581  1.371830  0.262389
  N     5.493377 -1.593844  4.081632
  N     5.688424  2.079087  4.045095
  S     4.727741 -2.123739  2.747343
  S     4.902315  1.612373  2.704889
  S     7.766802 -2.006359 -0.052258
  S     7.926411  1.756608 -0.146939
  S     7.057009 -1.012544  3.881765
  S     7.248834  2.628476  3.863791
