16  
    
  C     7.053913 -1.558025  2.220547
  C     7.096565  2.192913  2.097678
  C     5.890064 -1.906519  1.474884
  C     5.918585  1.716603  1.374229
  N     8.137688 -1.304178  1.461112
  N     8.194577  2.365536  1.373770
  N     6.031944 -1.828351  0.121742
  N     6.083158  1.606142  0.078827
  N     5.145083 -1.655436  3.935327
  N     5.138338  1.948155  3.816281
  S     4.503180 -2.108795  2.518118
  S     4.505285  1.634765  2.342796
  S     7.635668 -1.547916 -0.116680
  S     7.702485  1.918146 -0.238499
  S     6.802220 -1.512452  3.922653
  S     6.741830  2.458842  3.801672
