16  
    
  C    10.398455  0.651058  3.018066
  C    10.612560  4.366995  2.838013
  C     9.253412 -0.038165  2.453481
  C     9.352254  3.974045  2.239819
  N    11.419261  0.850441  2.179757
  N    11.617947  4.571813  2.007073
  N     9.270761 -0.203315  1.115436
  N     9.415748  3.859701  0.905321
  N     8.746591  0.387731  4.988566
  N     8.940244  4.511716  4.752744
  S     8.027956 -0.264204  3.623806
  S     8.140011  3.740973  3.490979
  S    10.811539  0.426207  0.686092
  S    10.995498  4.190896  0.520243
  S    10.301266  0.949644  4.748379
  S    10.563168  4.833915  4.487869
