16  
    
  C     3.654776 -2.710021  1.165763
  C     4.015076  1.039998  1.467057
  C     2.586613 -3.479356  0.656497
  C     2.856980  0.353197  0.906276
  N     4.689232 -2.638599  0.315187
  N     4.998719  1.201331  0.579302
  N     2.789827 -4.006285 -0.562393
  N     2.954425  0.106766 -0.416657
  N     1.957035 -2.974082  3.091363
  N     2.310351  0.677584  3.465578
  S     1.250647 -3.680283  1.738986
  S     1.436609  0.276621  2.007188
  S     4.210972 -3.450687 -1.049608
  S     4.444991  0.745207 -0.895043
  S     3.507355 -2.436516  2.878942
  S     3.876708  1.222404  3.224555
