16  
    
  C     8.728291 -0.798149  2.404606
  C     8.448560  3.199533  2.579891
  C     7.535213 -1.209351  1.677175
  C     7.289915  2.637685  1.888631
  N     9.866358 -0.795352  1.677608
  N     9.452887  3.502756  1.747807
  N     7.759591 -1.351044  0.347889
  N     7.449069  2.454431  0.564969
  N     6.913118 -0.716331  4.065319
  N     6.810061  2.829923  4.471252
  S     6.114373 -1.190482  2.640671
  S     6.093871  2.269379  3.056976
  S     9.391460 -1.078636  0.118468
  S     8.969396  3.079026  0.217121
  S     8.552819 -0.554833  4.085190
  S     8.403586  3.414621  4.316910
