16  
    
  C     8.753271 -0.915020  2.393432
  C     8.479997  3.246730  2.515905
  C     7.573149 -1.189375  1.630862
  C     7.339223  2.636838  1.877485
  N     9.809533 -0.833837  1.665462
  N     9.477206  3.472660  1.683221
  N     7.752217 -1.364317  0.349657
  N     7.432725  2.461601  0.545576
  N     6.864862 -0.724597  4.074553
  N     6.780217  2.837498  4.477223
  S     6.176112 -1.281278  2.661814
  S     6.063030  2.215867  3.063119
  S     9.385788 -1.087922  0.120847
  S     8.946721  3.088200  0.209023
  S     8.572135 -0.590060  4.073877
  S     8.386285  3.460637  4.311219
