16  
    
  C     8.936973 -0.354575  2.585124
  C     8.860714  3.336574  2.627487
  C     7.734669 -0.774011  1.909227
  C     7.648614  2.923987  2.033098
  N     9.934169 -0.102063  1.747075
  N     9.811293  3.720517  1.764492
  N     7.810847 -0.835478  0.586228
  N     7.603210  2.907019  0.699869
  N     7.244988 -0.592149  4.459214
  N     7.231687  3.016911  4.628019
  S     6.424381 -1.043568  3.029546
  S     6.359137  2.739341  3.235324
  S     9.390256 -0.369707  0.217889
  S     9.157458  3.436267  0.284662
  S     8.927750 -0.300137  4.278662
  S     8.828226  3.427239  4.359624
