16  
    
  C    12.649074  1.511155  3.583395
  C    12.884702  5.488384  3.742865
  C    11.501522  1.030980  2.906925
  C    11.715739  4.839123  3.078143
  N    13.704286  1.677930  2.844807
  N    13.890593  5.806142  2.951913
  N    11.717709  0.641690  1.635928
  N    11.942382  4.639949  1.826933
  N    10.820615  1.516091  5.394802
  N    11.055156  5.149581  5.628266
  S    10.134316  0.903462  3.970605
  S    10.346443  4.722610  4.160635
  S    13.260770  1.150598  1.320927
  S    13.446376  5.246668  1.416388
  S    12.424430  2.022756  5.268190
  S    12.669576  5.816088  5.394582
