16  
    
  C    12.102554  1.491773  3.292334
  C    12.277145  5.109597  3.640578
  C    10.935753  0.892940  2.648866
  C    10.985239  4.829746  2.968177
  N    13.165627  1.537062  2.524981
  N    13.248951  5.112983  2.750833
  N    11.100363  0.596834  1.360492
  N    11.072263  4.605678  1.683215
  N    10.274017  1.232370  5.141616
  N    10.563858  5.153039  5.504747
  S     9.533745  0.809418  3.662207
  S     9.673343  4.697663  4.166001
  S    12.703611  0.852293  1.033332
  S    12.669634  4.860164  1.241355
  S    11.945097  1.631643  5.061642
  S    12.167878  5.481131  5.295109
