16  
    
  C     9.177357 -0.357525  2.491972
  C     9.374911  3.169252  2.652489
  C     7.964665 -1.014811  1.958938
  C     8.073020  2.741863  2.101424
  N    10.106054 -0.234782  1.580009
  N    10.386395  3.180586  1.816463
  N     8.025444 -1.393091  0.725158
  N     8.180400  2.450992  0.817895
  N     7.389643 -0.376362  4.346420
  N     7.645330  3.213713  4.559566
  S     6.665896 -1.166987  3.100914
  S     6.733871  2.939580  3.199039
  S     9.532861 -0.941907  0.184773
  S     9.752749  2.777501  0.310222
  S     9.004224  0.074506  4.154484
  S     9.258707  3.590333  4.328774
