16  
    
  C     7.174112 -1.297601  2.315565
  C     7.772723  2.837451  2.349444
  C     6.117736 -1.856710  1.496466
  C     6.609544  2.320286  1.672699
  N     8.189096 -0.797187  1.628114
  N     8.839074  3.083475  1.579704
  N     6.397652 -1.972537  0.206162
  N     6.746853  2.296631  0.354372
  N     5.371828 -2.041798  3.957799
  N     6.006176  2.463632  4.146738
  S     4.815664 -2.560153  2.432535
  S     5.248327  2.033488  2.724108
  S     7.887250 -1.275332  0.082723
  S     8.341596  2.680426 -0.017063
  S     6.828166 -1.338264  3.975885
  S     7.543782  2.938023  4.056423
