16  
    
  C     8.769395 -0.304585  2.502901
  C     8.606359  3.019389  2.623232
  C     7.556067 -0.817994  1.843529
  C     7.380936  2.719927  1.885395
  N     9.805316 -0.146336  1.703897
  N     9.663427  3.066904  1.829697
  N     7.665191 -0.917408  0.542800
  N     7.518291  2.602834  0.591049
  N     6.899524 -0.593868  4.289971
  N     6.728269  2.976831  4.394302
  S     6.177669 -1.010871  2.822804
  S     6.102838  2.481254  2.912031
  S     9.193751 -0.464808  0.185321
  S     9.116009  2.860748  0.225837
  S     8.528353 -0.055964  4.225243
  S     8.373842  3.245075  4.330757
