16  
    
  C     6.159793 -1.823271  1.622489
  C     6.332554  1.867401  1.879212
  C     5.015601 -2.484090  1.030262
  C     5.058266  1.725074  1.156108
  N     7.161207 -1.657282  0.787090
  N     7.417860  1.931172  1.119556
  N     5.145500 -2.682889 -0.270522
  N     5.169834  1.720710 -0.158310
  N     4.305581 -1.728064  3.482617
  N     4.489080  1.983455  3.678411
  S     3.645225 -2.457583  2.131144
  S     3.743976  1.760806  2.185881
  S     6.651126 -2.196226 -0.660472
  S     6.849514  1.859684 -0.497348
  S     5.996734 -1.454573  3.292340
  S     6.151341  1.942043  3.617156
