16  
    
  C     3.335347 -3.102472  1.463966
  C     3.573469  0.526230  1.363156
  C     2.112766 -3.130305  0.700805
  C     2.288297  0.373387  0.752739
  N     4.424578 -3.025130  0.725439
  N     4.628294  0.688625  0.554384
  N     2.321607 -3.091602 -0.597994
  N     2.368150  0.320952 -0.568606
  N     1.349752 -3.519581  3.107110
  N     1.804949  0.199487  3.246035
  S     0.675374 -3.574813  1.604440
  S     1.016189  0.003734  1.847588
  S     3.902041 -2.843116 -0.825739
  S     4.002721  0.626655 -0.944062
  S     2.979597 -3.224387  3.226832
  S     3.369746  0.675624  3.109737
