16  
    
  C     8.387717 -0.876959  2.448737
  C     8.244344  2.443086  2.122900
  C     7.135758 -1.126104  1.812656
  C     7.110585  2.024679  1.335171
  N     9.453093 -0.921546  1.620303
  N     9.400488  2.484772  1.442279
  N     7.267637 -1.460164  0.507621
  N     7.404300  1.861272  0.037511
  N     6.584927 -0.539025  4.305440
  N     6.252701  2.109669  3.790160
  S     5.806597 -1.134588  2.938275
  S     5.671017  1.774089  2.220297
  S     8.881895 -1.327348  0.102336
  S     8.969830  2.230672 -0.142893
  S     8.218234 -0.545099  4.217054
  S     7.885755  2.579213  3.796480
