16  
    
  C     3.247102 -2.976973  1.567183
  C     3.572253  0.543297  1.442291
  C     2.057430 -3.166407  0.745567
  C     2.347177  0.267497  0.759908
  N     4.389404 -2.803253  0.906842
  N     4.574766  0.726064  0.609377
  N     2.271705 -3.054273 -0.577149
  N     2.370091  0.410054 -0.568116
  N     1.392747 -3.555266  3.186175
  N     1.870492  0.137448  3.315879
  S     0.655647 -3.614256  1.624305
  S     1.022962  0.001956  1.862268
  S     3.954555 -2.854713 -0.722937
  S     3.944009  0.722169 -0.974786
  S     3.018105 -3.140439  3.224928
  S     3.414613  0.687126  3.145886
