16  
    
  C    12.326605  1.579153  3.322256
  C    12.289109  5.360546  3.631279
  C    11.199015  1.023914  2.619175
  C    11.221321  4.701670  2.979008
  N    13.334604  1.832706  2.483678
  N    13.318416  5.627865  2.851918
  N    11.365105  0.822686  1.311219
  N    11.305191  4.610642  1.644948
  N    10.436730  1.406717  5.014206
  N    10.555509  4.813464  5.465052
  S     9.711105  0.862330  3.640153
  S     9.921344  4.299489  4.000711
  S    12.895915  1.383803  0.972601
  S    12.903802  5.190421  1.316788
  S    12.007412  1.855457  4.988977
  S    12.007662  5.657221  5.363641
