16  
    
  C    12.572203  1.637256  3.782116
  C    12.451590  4.992221  3.450054
  C    11.315652  1.188225  3.136067
  C    11.210631  4.647431  2.839211
  N    13.612386  1.737154  2.951651
  N    13.454974  5.142415  2.544630
  N    11.452550  1.052635  1.824444
  N    11.248343  4.429916  1.517783
  N    10.904795  1.137350  5.649173
  N    10.491868  5.003276  5.273393
  S    10.072577  1.187774  4.217667
  S     9.819507  4.397345  3.834937
  S    13.016632  1.322309  1.471292
  S    12.844281  4.783744  1.063663
  S    12.434902  1.768016  5.526228
  S    12.172681  5.193901  5.176629
