16  
    
  C    10.319583  0.377314  2.585423
  C    10.473808  4.229389  3.065986
  C     9.114533 -0.109085  1.894740
  C     9.242899  3.686700  2.484382
  N    11.397877  0.352904  1.769962
  N    11.426719  4.253488  2.124223
  N     9.367770 -0.636281  0.670869
  N     9.221361  3.385086  1.195843
  N     8.350364  0.537056  4.220244
  N     8.691427  4.465302  4.924029
  S     7.743184 -0.243593  2.917355
  S     7.967194  3.913769  3.510693
  S    10.926696 -0.367270  0.356161
  S    10.816721  3.673595  0.724187
  S     9.992497  0.961553  4.217193
  S    10.381851  4.635781  4.800913
