16  
    
  C     4.703456 -2.540729  1.600035
  C     5.090754  1.276120  1.845345
  C     3.412015 -2.684992  0.924780
  C     3.826796  1.050724  1.206896
  N     5.774840 -2.651061  0.836230
  N     6.083760  1.597729  0.978585
  N     3.525307 -2.976309 -0.372699
  N     3.862427  1.109228 -0.121954
  N     2.846208 -2.441562  3.432328
  N     3.366114  0.872681  3.785229
  S     2.089148 -2.868250  2.004556
  S     2.507172  0.745749  2.324753
  S     5.164755 -2.886739 -0.717694
  S     5.420373  1.618633 -0.533029
  S     4.562132 -2.269931  3.317872
  S     4.899489  1.443095  3.540687
