16  
    
  C    10.985765  0.764006  3.328266
  C    11.293728  4.205215  3.233456
  C     9.845058  0.230544  2.565141
  C    10.011677  3.847271  2.681390
  N    12.083344  0.844618  2.562549
  N    12.168927  4.496115  2.258403
  N     9.965994  0.141483  1.244496
  N     9.925620  3.771888  1.341592
  N     9.197081 -0.016516  5.041549
  N     9.573141  3.777859  5.201051
  S     8.536738 -0.333288  3.507156
  S     8.716432  3.490872  3.804475
  S    11.591039  0.545547  0.963479
  S    11.477152  4.142022  0.830324
  S    10.743127  0.643229  5.062395
  S    11.151041  4.287961  4.995160
