16  
    
  C     8.739101 -0.785684  2.389437
  C     8.455091  3.195815  2.588913
  C     7.536032 -1.205518  1.674163
  C     7.284291  2.635085  1.896019
  N     9.875405 -0.782086  1.680158
  N     9.447913  3.509979  1.762784
  N     7.762271 -1.348163  0.357718
  N     7.454341  2.459282  0.582064
  N     6.911019 -0.718787  4.069962
  N     6.819758  2.828739  4.465675
  S     6.105889 -1.173901  2.642108
  S     6.097230  2.280781  3.057344
  S     9.390620 -1.079218  0.116021
  S     8.972340  3.074948  0.215187
  S     8.543969 -0.547813  4.088013
  S     8.400472  3.403233  4.310858
