16  
    
  C     7.331949 -1.771783  2.224970
  C     7.455618  2.414531  2.105916
  C     6.121495 -2.101805  1.501844
  C     6.175434  1.984126  1.551048
  N     8.280598 -1.387028  1.401145
  N     8.462004  2.484450  1.225829
  N     6.266177 -2.237078  0.184869
  N     6.189621  1.936442  0.223351
  N     5.572238 -2.038487  4.072639
  N     5.835876  2.187949  4.078543
  S     4.755478 -2.290004  2.615187
  S     4.937654  1.700476  2.759220
  S     7.826157 -1.701971 -0.150807
  S     7.817791  2.115833 -0.207961
  S     7.153628 -1.678686  3.922922
  S     7.380381  2.642048  3.843369
