16  
    
  C    12.185085  1.370316  3.476137
  C    12.104362  5.103677  3.795604
  C    10.955655  0.852529  2.792966
  C    10.821298  4.675173  3.197405
  N    13.112026  1.787896  2.610570
  N    13.064913  5.342986  2.914007
  N    11.104621  0.756267  1.482082
  N    10.846753  4.623870  1.894816
  N    10.324623  1.132285  5.203927
  N    10.617513  4.708446  5.797636
  S     9.611882  0.450136  3.859015
  S     9.670119  4.448406  4.438172
  S    12.623622  1.335683  1.055951
  S    12.440954  5.168603  1.421077
  S    11.834882  1.784374  5.079294
  S    12.223061  5.108504  5.543876
