16  
    
  C    10.008013 -0.241503  2.872509
  C    10.095559  3.787731  2.707579
  C     8.713017 -0.511903  2.163910
  C     8.852306  3.202689  2.237961
  N    11.025666 -0.011186  2.076345
  N    11.061421  3.939649  1.817378
  N     8.900976 -0.719033  0.877583
  N     8.803664  3.002302  0.905245
  N     8.203833 -0.543939  4.725131
  N     8.606401  3.515704  4.826394
  S     7.357630 -0.801354  3.259804
  S     7.643551  2.970129  3.554474
  S    10.477193 -0.285130  0.526291
  S    10.401286  3.457603  0.376850
  S     9.835905 -0.182674  4.611379
  S    10.162495  3.903260  4.366431
