16  
    
  C    11.261986  0.411512  3.027268
  C    11.138518  4.499609  3.432981
  C    10.098843 -0.179928  2.338939
  C     9.855956  4.208101  2.806748
  N    12.286300  0.620255  2.249565
  N    12.137471  4.351747  2.574330
  N    10.359575 -0.440377  1.066383
  N     9.878739  3.947747  1.504974
  N     9.445005  0.376666  4.777632
  N     9.471707  4.089356  5.301368
  S     8.737176 -0.329842  3.422660
  S     8.540050  4.342841  3.973293
  S    11.868590  0.102676  0.752913
  S    11.448873  4.032516  1.067545
  S    10.964405  1.058223  4.635758
  S    11.083711  4.588485  5.087670
