16  
    
  C     7.883130 -1.006554  1.852302
  C     7.927089  2.913410  2.482551
  C     6.685556 -1.519635  1.252465
  C     6.845048  2.379692  1.700581
  N     8.928370 -0.949644  1.050153
  N     8.959552  3.280556  1.721948
  N     6.768877 -1.615564 -0.066664
  N     7.082457  2.289501  0.394723
  N     6.058669 -0.824722  3.772154
  N     6.173894  2.444814  4.133063
  S     5.340179 -1.611396  2.459631
  S     5.444570  2.262429  2.687253
  S     8.360182 -1.293045 -0.508153
  S     8.613539  2.798948  0.166891
  S     7.644996 -0.513361  3.623752
  S     7.671029  3.095429  4.169050
