16  
    
  C     8.116263 -0.721856  2.435317
  C     8.251426  3.009460  2.313891
  C     6.949636 -1.290050  1.766273
  C     7.040208  2.464805  1.781136
  N     9.128329 -0.433319  1.643833
  N     9.262112  3.092814  1.477320
  N     7.163307 -1.613341  0.512120
  N     7.129510  2.258885  0.494163
  N     6.211518 -1.136430  4.305515
  N     6.540724  2.891675  4.249309
  S     5.536671 -1.524141  2.846301
  S     5.717136  2.339889  2.918298
  S     8.691313 -1.047425  0.133942
  S     8.649191  2.643323 -0.029974
  S     7.742059 -0.496767  4.129999
  S     8.179909  3.317264  3.997619
