16  
    
  C     7.195792 -1.336741  2.200962
  C     7.408523  2.111950  2.127776
  C     6.036386 -1.988436  1.656860
  C     6.188895  1.572626  1.568458
  N     8.260269 -1.298004  1.361446
  N     8.348998  2.335613  1.223629
  N     6.145845 -2.204086  0.330877
  N     6.296345  1.326469  0.274999
  N     5.448558 -1.433717  4.110834
  N     5.591851  2.051977  4.053104
  S     4.741961 -2.099816  2.795493
  S     4.838350  1.638790  2.627982
  S     7.759181 -1.923372 -0.078120
  S     7.761714  1.782958 -0.171860
  S     7.022877 -0.901532  3.846436
  S     7.207573  2.518227  3.820894
