16  
    
  C     7.950570 -0.691166  2.327886
  C     8.396741  2.914441  2.351086
  C     6.828152 -1.344084  1.649018
  C     7.036434  2.646473  1.839335
  N     9.001932 -0.437607  1.558142
  N     9.308108  2.984404  1.405884
  N     6.978377 -1.363172  0.349936
  N     6.927089  2.342794  0.550965
  N     6.045153 -1.064220  4.097942
  N     6.769852  2.882591  4.367792
  S     5.535352 -1.809828  2.700212
  S     5.788015  2.709876  3.048221
  S     8.517895 -0.817233 -0.015807
  S     8.531545  2.593681  0.002219
  S     7.573022 -0.575615  4.043630
  S     8.415888  3.153432  4.084155
