16  
    
  C     9.979973 -0.177121  2.968818
  C    10.348608  3.422177  3.089887
  C     8.803189 -0.556392  2.183490
  C     9.048732  3.726582  2.476673
  N    11.082596  0.123256  2.244376
  N    11.353408  3.502586  2.214111
  N     9.050514 -0.509248  0.867919
  N     9.005672  3.833456  1.157460
  N     8.082655 -0.626155  4.637343
  N     8.476268  3.560591  4.967594
  S     7.395860 -0.875125  3.154877
  S     7.698732  3.942767  3.535123
  S    10.609183 -0.002499  0.683321
  S    10.640072  3.802175  0.703906
  S     9.686099 -0.221577  4.678415
  S    10.117392  3.279609  4.760971
