16  
    
  C    10.691133  0.710804  2.943061
  C    10.664669  4.430193  2.772928
  C     9.455526  0.238292  2.315517
  C     9.615664  3.582246  2.251249
  N    11.747878  0.780230  2.125827
  N    11.748951  4.572058  2.034984
  N     9.612068 -0.285967  1.071923
  N     9.876631  3.230934  0.983996
  N     8.992261  0.751462  4.814418
  N     8.742915  4.470633  4.502526
  S     8.187906  0.269400  3.455235
  S     8.330705  3.336391  3.348497
  S    11.216144  0.157970  0.677735
  S    11.451057  3.776830  0.652445
  S    10.563547  1.233532  4.605257
  S    10.273449  5.079596  4.393098
