16  
    
  C     7.915348 -0.820264  2.277885
  C     8.290552  2.840215  2.382040
  C     6.776384 -1.356704  1.540934
  C     6.995641  2.523266  1.834320
  N     8.899277 -0.412164  1.482449
  N     9.221298  2.927140  1.478289
  N     6.977139 -1.485534  0.232072
  N     7.021361  2.503520  0.505050
  N     6.022013 -1.126308  4.061050
  N     6.768601  3.054613  4.415395
  S     5.456832 -1.819463  2.633319
  S     5.828207  2.646002  3.098250
  S     8.482135 -0.817254 -0.074308
  S     8.532561  2.686577 -0.011432
  S     7.619056 -0.552063  4.023364
  S     8.396542  3.054459  4.112727
