16  
    
  C    11.687341  1.105289  2.846037
  C    11.749679  4.841750  3.158865
  C    10.517254  0.522594  2.302213
  C    10.600248  4.317842  2.492734
  N    12.555355  1.460316  1.924485
  N    12.802500  5.178956  2.358917
  N    10.516581  0.285850  0.994429
  N    10.734205  4.222094  1.190968
  N    10.112340  0.874813  4.854992
  N     9.962738  4.678461  4.974611
  S     9.290505  0.242876  3.580898
  S     9.293544  4.076254  3.558277
  S    11.876126  1.061679  0.438778
  S    12.241833  4.748026  0.801037
  S    11.672506  1.280975  4.588308
  S    11.526604  5.335339  4.842744
