16  
    
  C    11.312267  0.883557  3.282539
  C    11.591851  4.695405  3.014531
  C    10.068959  0.555750  2.689889
  C    10.424672  4.198456  2.366679
  N    12.299660  1.023629  2.410586
  N    12.583390  4.935856  2.209723
  N    10.083468  0.420315  1.363414
  N    10.536390  3.952939  1.086709
  N     9.670617  0.684789  5.267264
  N     9.831308  4.368198  4.809429
  S     8.789192  0.371646  3.894653
  S     9.079510  3.900632  3.402090
  S    11.661190  0.656126  0.875034
  S    12.045540  4.438520  0.671286
  S    11.219284  1.303722  5.011943
  S    11.408486  4.895163  4.709618
