16  
    
  C     5.445534 -2.270069  1.861634
  C     5.290740  1.590575  1.652018
  C     4.250996 -2.631799  1.142126
  C     4.268858  0.973031  0.878085
  N     6.523761 -1.897213  1.100679
  N     6.220431  2.130583  0.898451
  N     4.405413 -2.679292 -0.206578
  N     4.489968  0.918865 -0.434498
  N     3.598238 -2.708116  3.678162
  N     3.375044  0.924976  3.271092
  S     2.932083 -3.037883  2.148250
  S     2.844070  0.577130  1.756904
  S     6.004572 -2.303638 -0.471008
  S     5.928746  1.699089 -0.660130
  S     5.218069 -2.171159  3.634175
  S     4.926932  1.634494  3.364144
