16  
    
  C     7.097008 -1.425250  2.086558
  C     7.056932  2.108552  2.038460
  C     5.941575 -1.905289  1.351488
  C     5.861646  1.726174  1.316449
  N     8.206892 -1.369486  1.336667
  N     8.159277  2.263702  1.320327
  N     6.143953 -2.084974  0.043255
  N     6.032504  1.590074  0.016198
  N     5.191231 -1.679693  3.762575
  N     5.170320  1.867944  3.822653
  S     4.520502 -2.124850  2.305426
  S     4.474785  1.553644  2.349953
  S     7.704301 -1.719735 -0.224989
  S     7.628733  2.016082 -0.297134
  S     6.845334 -1.474497  3.767920
  S     6.813062  2.277663  3.715672
