16  
    
  C     5.467499 -2.135431  1.588821
  C     5.257298  1.550397  1.557259
  C     4.312802 -2.575743  0.845344
  C     4.143137  0.956259  0.857797
  N     6.544736 -2.142717  0.875704
  N     6.423476  1.684561  0.882985
  N     4.544133 -2.786309 -0.415123
  N     4.433848  0.582434 -0.372020
  N     3.489349 -2.449844  3.261745
  N     3.141832  1.749572  3.073620
  S     2.897314 -2.899114  1.798477
  S     2.658586  0.786900  1.827584
  S     6.139425 -2.435177 -0.682731
  S     5.992798  1.102519 -0.674115
  S     5.109230 -2.057277  3.265341
  S     4.690026  2.258094  3.055377
