16  
    
  C     5.907354 -2.213869  1.798856
  C     6.128095  1.696221  1.912734
  C     4.614315 -2.463461  1.138556
  C     4.739010  1.718282  1.417705
  N     6.966720 -2.111958  1.024039
  N     7.059424  1.490430  0.979193
  N     4.753922 -2.467313 -0.166185
  N     4.670316  1.350910  0.139277
  N     4.114809 -2.337959  3.625126
  N     4.540758  2.054352  3.920885
  S     3.280932 -2.670700  2.253396
  S     3.536539  2.098114  2.608175
  S     6.346435 -2.440979 -0.501175
  S     6.234840  1.079723 -0.400799
  S     5.704677 -2.035876  3.583514
  S     6.193113  2.022193  3.615512
