16  
    
  C     6.312836 -1.627769  1.606732
  C     6.355556  2.176622  1.913619
  C     5.209353 -2.317410  0.993170
  C     5.279531  1.452353  1.289341
  N     7.388024 -1.446024  0.811101
  N     7.377499  2.387355  1.115418
  N     5.355668 -2.500221 -0.316964
  N     5.466872  1.137010  0.010753
  N     4.384177 -1.687242  3.384807
  N     4.561566  1.966876  3.750477
  S     3.865961 -2.516598  1.983011
  S     3.895596  1.267447  2.375560
  S     6.884404 -1.871014 -0.735395
  S     6.978234  1.756516 -0.368702
  S     6.024736 -1.292601  3.294573
  S     6.153312  2.540863  3.601471
