16  
    
  C     5.421516 -2.245264  1.821087
  C     5.219646  1.716592  1.553435
  C     4.293651 -2.711354  1.104490
  C     4.219644  1.050570  0.769826
  N     6.519368 -2.052938  1.057035
  N     6.320977  2.003610  0.888853
  N     4.491100 -2.757671 -0.218949
  N     4.507030  0.874632 -0.534850
  N     3.629333 -2.701041  3.507498
  N     3.332222  1.076358  3.250617
  S     2.907332 -2.991910  2.077618
  S     2.763554  0.671038  1.718217
  S     6.050654 -2.284219 -0.502627
  S     6.017610  1.545185 -0.729815
  S     5.199873 -2.206448  3.527244
  S     4.844742  1.713462  3.312078
