16  
    
  C    10.272712 -0.115421  2.842374
  C    10.348073  3.938104  3.105287
  C     9.061205 -0.425448  2.195140
  C     9.062555  3.749470  2.513012
  N    11.319425 -0.010689  1.995402
  N    11.365222  3.871121  2.268186
  N     9.080142 -0.419037  0.854297
  N     9.034749  3.579897  1.180423
  N     8.456711 -0.411643  4.714126
  N     8.583402  4.184775  4.976712
  S     7.687588 -0.544284  3.219397
  S     7.691483  3.958120  3.615787
  S    10.663571 -0.176428  0.455289
  S    10.711735  3.742157  0.753249
  S    10.087214 -0.051335  4.635248
  S    10.193212  4.161913  4.826057
