16  
    
  C    11.325682  0.865092  3.277025
  C    11.618769  4.733964  3.010407
  C    10.006950  0.605200  2.681241
  C    10.453458  4.180524  2.345423
  N    12.302695  1.028363  2.390968
  N    12.614705  4.883529  2.108110
  N    10.047633  0.438490  1.383893
  N    10.546656  3.964286  1.053255
  N     9.646974  0.697257  5.319790
  N     9.836457  4.398290  4.797153
  S     8.830234  0.398383  3.890734
  S     9.072583  3.920943  3.400596
  S    11.644940  0.648359  0.888375
  S    12.049098  4.478791  0.622486
  S    11.184895  1.286835  5.044151
  S    11.414524  4.862674  4.693470
