16  
    
  C     6.109033 -1.898388  1.689490
  C     6.266760  1.847588  1.840781
  C     4.927909 -2.389051  1.069575
  C     4.967914  1.833870  1.169419
  N     7.174200 -1.979117  0.864206
  N     7.355400  1.879045  1.091272
  N     5.018174 -2.662754 -0.256291
  N     5.080382  1.639633 -0.137956
  N     4.319553 -1.916460  3.505346
  N     4.443913  1.771820  3.662192
  S     3.565497 -2.513909  2.172143
  S     3.590446  1.953343  2.233866
  S     6.609128 -2.362713 -0.641438
  S     6.763893  1.735281 -0.513037
  S     5.949981 -1.569788  3.377712
  S     6.094853  1.864186  3.574048
