16  
    
  C    11.498601  1.140248  3.141716
  C    11.380512  4.939202  3.004766
  C    10.421049  0.425335  2.587641
  C    10.294391  4.246628  2.373406
  N    12.300504  1.647261  2.201133
  N    12.455263  5.264332  2.271868
  N    10.346155  0.320781  1.276139
  N    10.503660  4.117492  1.064588
  N     9.870906  0.836526  5.123063
  N     9.549755  4.610277  4.724177
  S     9.204503  0.096945  3.774375
  S     8.946644  3.871932  3.360384
  S    11.684181  1.097515  0.719219
  S    11.935059  4.814633  0.695824
  S    11.414129  1.439854  4.860588
  S    11.147838  5.101064  4.702126
