16  
    
  C     7.859271 -0.793084  2.083510
  C     8.258814  2.880195  2.455234
  C     6.737512 -1.385678  1.410667
  C     6.986115  2.559522  1.832650
  N     8.805320 -0.387682  1.247466
  N     9.240699  3.002378  1.596633
  N     6.964997 -1.727582  0.155280
  N     6.966451  2.604159  0.521500
  N     6.079931 -1.228089  3.995724
  N     6.538323  2.920284  4.359509
  S     5.378749 -1.676839  2.521478
  S     5.738998  2.397266  2.976420
  S     8.444894 -1.046680 -0.258737
  S     8.558098  2.844889  0.087431
  S     7.574896 -0.605256  3.831749
  S     8.212497  2.967418  4.212128
