16  
    
  C    10.539694  0.762963  3.015481
  C    10.647970  4.531916  2.840534
  C     9.333504  0.238013  2.426286
  C     9.537215  3.781401  2.287470
  N    11.520852  0.826562  2.123914
  N    11.592692  4.728686  1.917558
  N     9.475637 -0.172509  1.166741
  N     9.673964  3.298858  1.077952
  N     8.856798  0.577567  4.913876
  N     8.831211  4.346752  4.665625
  S     8.113251  0.032710  3.554472
  S     8.156034  3.684775  3.303001
  S    10.954767  0.253252  0.686802
  S    11.153199  3.830273  0.591521
  S    10.380103  1.203449  4.716639
  S    10.364233  5.028247  4.480431
