16  
    
  C    10.035183 -0.062621  2.650690
  C     9.888982  3.933847  2.736541
  C     8.811553 -0.469060  2.035799
  C     9.008944  2.893179  2.237530
  N    11.007691  0.258272  1.832512
  N    10.881942  4.198591  1.916385
  N     8.883826 -0.688590  0.744078
  N     9.221397  2.518729  0.958916
  N     8.335322 -0.458233  4.589762
  N     8.379096  3.439788  4.732247
  S     7.553811 -0.740065  3.169079
  S     7.809297  2.471174  3.477046
  S    10.443205 -0.228016  0.310940
  S    10.632611  3.411990  0.543267
  S     9.877243  0.152781  4.376098
  S     9.526448  4.578217  4.297408
