16  
    
  C     5.469030 -2.225328  1.905880
  C     5.210623  1.601732  1.713475
  C     4.312617 -2.736204  1.236123
  C     4.174921  0.952743  0.980329
  N     6.427340 -1.836628  1.109056
  N     6.217791  2.056770  0.972425
  N     4.451945 -2.733500 -0.061771
  N     4.217477  1.110891 -0.345797
  N     3.704072 -2.504970  3.746842
  N     3.516188  0.872918  3.523833
  S     2.957175 -2.920063  2.305806
  S     3.020870  0.204856  2.028966
  S     5.999360 -2.217815 -0.419966
  S     5.732615  1.777939 -0.613035
  S     5.277928 -1.929945  3.643298
  S     5.034073  1.563651  3.472015
