16  
    
  C     7.987927 -0.719143  2.406141
  C     8.323838  3.042822  2.324742
  C     6.799771 -1.230174  1.673741
  C     7.045552  2.602054  1.844334
  N     9.007774 -0.421615  1.637260
  N     9.269732  2.995434  1.414370
  N     7.030141 -1.424453  0.403522
  N     7.082192  2.306672  0.563335
  N     6.089613 -1.116437  4.093235
  N     6.752351  2.757300  4.361931
  S     5.505049 -1.768877  2.673159
  S     5.780278  2.672554  3.038982
  S     8.548448 -0.865719  0.127226
  S     8.557505  2.541650 -0.039654
  S     7.721094 -0.494870  4.081090
  S     8.339487  3.236758  4.029759
