16  
    
  C    11.983118  1.477406  3.608564
  C    11.895901  5.026088  3.702174
  C    10.895893  0.839321  2.880285
  C    10.669536  4.511748  3.219337
  N    12.879226  2.001842  2.781359
  N    12.839259  5.389227  2.860448
  N    11.078811  0.645813  1.566000
  N    10.717160  4.541679  1.874508
  N    10.500914  0.619262  5.403763
  N    10.470511  4.283228  5.812014
  S     9.721562  0.258749  4.014320
  S     9.568550  3.889780  4.460333
  S    12.407555  1.570545  1.227384
  S    12.190595  5.010876  1.376367
  S    11.926648  1.467855  5.345063
  S    11.923683  5.005137  5.468563
