16  
    
  C     9.730088 -0.115841  2.852857
  C     9.772739  3.510242  2.724019
  C     8.566821 -0.665863  2.233458
  C     8.530982  3.199953  2.097343
  N    10.776008  0.121998  2.049895
  N    10.724934  3.921358  1.858881
  N     8.735961 -0.823252  0.934140
  N     8.550883  3.266344  0.779260
  N     7.890670 -0.488131  4.656122
  N     7.915323  3.235250  4.619191
  S     7.127887 -0.811727  3.216689
  S     7.077756  3.316492  3.180207
  S    10.253434 -0.347930  0.533666
  S    10.032850  3.807511  0.384200
  S     9.498475  0.090444  4.606669
  S     9.532269  3.558925  4.471842
