16  
    
  C     4.610062 -2.312451  1.577403
  C     5.132550  1.579279  1.896939
  C     3.580046 -3.042010  0.850573
  C     3.807579  1.358098  1.304150
  N     5.603177 -1.929246  0.808843
  N     6.106665  1.483886  1.001795
  N     3.706784 -3.094751 -0.475231
  N     3.794773  1.226290 -0.015289
  N     2.903356 -3.049781  3.351590
  N     3.653817  1.518967  3.836591
  S     2.274206 -3.490158  1.874211
  S     2.618840  1.433112  2.618003
  S     5.164033 -2.328459 -0.807185
  S     5.392528  1.274997 -0.443492
  S     4.384736 -2.296625  3.306385
  S     5.265633  1.738191  3.612776
