16  
    
  C     4.633165 -2.231682  1.609087
  C     4.886608  1.452115  1.872530
  C     3.426073 -2.580138  0.889685
  C     3.594447  1.415458  1.231785
  N     5.691378 -2.090011  0.852464
  N     5.890182  1.382892  1.015946
  N     3.549318 -2.695079 -0.405967
  N     3.610672  1.183524 -0.090874
  N     2.825842 -2.327052  3.431025
  N     3.094862  1.151648  3.746758
  S     2.120257 -2.909304  2.003905
  S     2.254723  1.355575  2.286664
  S     5.156612 -2.239872 -0.739629
  S     5.180138  1.252008 -0.488059
  S     4.451921 -1.972034  3.300631
  S     4.767597  1.679307  3.632796
