16  
    
  C     9.616631 -0.060940  2.853172
  C     9.669882  3.524276  2.747622
  C     8.488825 -0.569128  2.172876
  C     8.420209  3.230864  2.053891
  N    10.694440  0.221066  2.092567
  N    10.680792  3.843598  1.968189
  N     8.686813 -0.864455  0.861916
  N     8.470415  3.266982  0.741765
  N     7.919294 -0.338432  4.751803
  N     7.988340  3.213639  4.628892
  S     7.194225 -0.879895  3.296273
  S     7.198498  3.224407  3.167302
  S    10.243007 -0.259048  0.559595
  S    10.052883  3.775686  0.380393
  S     9.501539  0.056629  4.582694
  S     9.645008  3.471876  4.504491
