16  
    
  C     8.904979 -0.270593  2.557619
  C     8.566229  3.300143  2.507985
  C     7.712203 -0.743497  1.897853
  C     7.355205  2.780363  1.937382
  N     9.937952 -0.082424  1.762346
  N     9.513930  3.711759  1.659851
  N     7.770514 -0.706172  0.605445
  N     7.399723  2.796333  0.616211
  N     7.207876 -0.719776  4.434350
  N     6.924465  2.704187  4.464331
  S     6.371539 -0.897586  3.012300
  S     6.109972  2.165400  3.076883
  S     9.326422 -0.240978  0.247122
  S     8.897675  3.356987  0.173987
  S     8.751684 -0.159402  4.208225
  S     8.462259  3.344891  4.241675
