16  
    
  C    10.517833  0.580590  3.028218
  C    10.571638  4.638188  2.747668
  C     9.269476  0.101374  2.480642
  C     9.357070  3.997617  2.253823
  N    11.481051  0.863924  2.151655
  N    11.623228  4.592356  1.919108
  N     9.370287 -0.081681  1.172342
  N     9.508966  3.639472  0.964574
  N     8.759406  0.544677  4.948514
  N     8.851883  4.537827  4.721333
  S     8.006303 -0.222229  3.674152
  S     8.129363  3.685304  3.484707
  S    10.876189  0.355975  0.689980
  S    11.089132  3.992752  0.519925
  S    10.320530  1.061242  4.684108
  S    10.465255  4.879891  4.501015
