16  
    
  C     8.348189 -0.855189  2.477721
  C     8.140513  2.956789  2.376701
  C     7.109831 -1.442844  1.997622
  C     7.009726  2.380226  1.679525
  N     9.350733 -0.959346  1.600323
  N     9.152838  3.185358  1.520894
  N     7.110630 -1.758125  0.698854
  N     7.237490  2.063441  0.398751
  N     6.640085 -0.830284  4.411171
  N     6.342396  2.513965  4.116208
  S     5.864891 -1.448681  3.129139
  S     5.649717  2.082231  2.711463
  S     8.669505 -1.541128  0.221705
  S     8.767927  2.496109  0.057428
  S     8.245204 -0.364574  4.131272
  S     7.836854  3.272665  4.096985
