16  
    
  C     7.207515 -1.378374  2.265980
  C     7.816877  2.753167  2.301490
  C     6.118274 -1.902367  1.504109
  C     6.602235  2.290226  1.640096
  N     8.234849 -0.936873  1.592606
  N     8.819285  3.043386  1.460119
  N     6.304016 -1.836859  0.219057
  N     6.674404  2.095670  0.314384
  N     5.336391 -1.800295  3.956117
  N     6.033167  2.488529  4.231579
  S     4.717591 -2.204722  2.411523
  S     5.269801  2.060866  2.721825
  S     7.801154 -1.162334  0.012994
  S     8.308074  2.588239 -0.058431
  S     6.874144 -1.222325  3.965699
  S     7.582820  3.096367  4.030161
