16  
    
  C     9.624235 -0.075987  2.873869
  C     9.674096  3.530764  2.755165
  C     8.493504 -0.558301  2.178585
  C     8.421329  3.206470  2.063777
  N    10.694681  0.209826  2.080024
  N    10.680060  3.845046  1.967199
  N     8.698652 -0.871450  0.862744
  N     8.478939  3.267858  0.743921
  N     7.915357 -0.354622  4.750086
  N     7.979529  3.213339  4.618938
  S     7.183052 -0.873921  3.287076
  S     7.201162  3.238950  3.168188
  S    10.245276 -0.266919  0.556284
  S    10.047422  3.782024  0.376541
  S     9.504532  0.061602  4.583734
  S     9.630513  3.479247  4.501150
