16  
    
  C    10.334775  0.002127  2.811282
  C    10.255892  3.868391  3.068379
  C     9.055522 -0.297474  2.193498
  C     8.956277  3.696645  2.524405
  N    11.357665  0.047791  1.990339
  N    11.307721  4.021230  2.285471
  N     9.137311 -0.521634  0.904426
  N     9.132954  3.473795  1.214797
  N     8.504220 -0.156801  4.694237
  N     8.614219  4.360758  4.998020
  S     7.740030 -0.594852  3.315315
  S     7.622434  3.971444  3.685874
  S    10.730279 -0.309563  0.480525
  S    10.663287  3.720859  0.771811
  S    10.124051  0.036904  4.511921
  S    10.259614  4.279429  4.732074
