16  
    
  C    12.599268  1.592573  3.360655
  C    12.724107  5.291606  3.264553
  C    11.380166  1.183012  2.704386
  C    11.489423  4.685168  2.671033
  N    13.618417  1.886799  2.568918
  N    13.642314  5.642800  2.424084
  N    11.449416  1.188334  1.393624
  N    11.517322  4.682228  1.323709
  N    10.993817  1.001261  5.279467
  N    11.170368  5.047679  5.230659
  S    10.116714  0.887924  3.859415
  S    10.308765  4.469136  3.997194
  S    13.018423  1.781986  1.040325
  S    13.001512  5.269033  0.909099
  S    12.504804  1.667435  5.156053
  S    12.690978  5.537263  4.945913
