16  
    
  C     7.821957 -0.752897  2.046980
  C     8.223033  2.864554  2.479006
  C     6.710543 -1.411728  1.405833
  C     6.973967  2.599592  1.822360
  N     8.819974 -0.458521  1.178772
  N     9.222263  3.115160  1.619110
  N     6.926811 -1.717459  0.100536
  N     6.933852  2.566828  0.478964
  N     6.024015 -1.169963  3.928511
  N     6.422026  2.774143  4.358632
  S     5.373623 -1.677843  2.510768
  S     5.704599  2.367199  2.928156
  S     8.460386 -1.115102 -0.329658
  S     8.595226  2.843110  0.114658
  S     7.600600 -0.603466  3.830968
  S     8.133938  2.976615  4.234403
