16  
    
  C     8.448585 -0.982882  2.463202
  C     8.213449  2.632394  2.166643
  C     7.127517 -1.457148  1.994521
  C     7.035299  2.221259  1.443197
  N     9.375929 -0.971802  1.546565
  N     9.322852  2.666235  1.466354
  N     7.148030 -1.885777  0.755498
  N     7.223959  1.890465  0.180641
  N     6.753348 -0.671869  4.468336
  N     6.283543  2.367544  3.892695
  S     5.902124 -1.327886  3.226576
  S     5.615017  2.091728  2.369082
  S     8.662467 -1.535102  0.113123
  S     8.856277  2.244797 -0.104259
  S     8.381780 -0.404545  4.188748
  S     7.878774  2.809849  3.864314
