16  
    
  C     8.742490 -0.259601  2.519972
  C     8.654566  3.102837  2.558828
  C     7.541790 -0.694516  1.857344
  C     7.385765  2.655923  1.895789
  N     9.733489  0.106156  1.694461
  N     9.745230  3.244959  1.749589
  N     7.697065 -0.859072  0.538612
  N     7.569043  2.534589  0.584936
  N     7.024843 -0.721869  4.398524
  N     6.747699  2.895773  4.331936
  S     6.253093 -0.962987  2.944070
  S     5.967379  2.434923  2.932868
  S     9.227643 -0.295032  0.153931
  S     9.190879  2.797358  0.281781
  S     8.519551 -0.095550  4.215917
  S     8.343634  3.256812  4.261365
