16  
    
  C     6.186783 -1.549848  1.541790
  C     6.382742  2.021701  1.839669
  C     5.045317 -2.164494  0.928324
  C     5.177415  1.723673  1.163603
  N     7.244033 -1.383895  0.743539
  N     7.441143  2.160184  1.041849
  N     5.192519 -2.492394 -0.379268
  N     5.350068  1.514820 -0.138615
  N     4.510285 -1.913361  3.403132
  N     4.616323  1.826199  3.686145
  S     3.764785 -2.446568  2.029846
  S     3.862383  1.487893  2.275291
  S     6.813322 -2.094807 -0.722687
  S     6.913741  1.769513 -0.440566
  S     5.959851 -1.190348  3.214383
  S     6.200339  2.273255  3.617324
