16  
    
  C     3.343701 -3.150067  1.451739
  C     3.570769  0.573391  1.387280
  C     2.122951 -3.195683  0.701400
  C     2.318960  0.362622  0.723019
  N     4.444609 -3.067185  0.652017
  N     4.623621  0.684086  0.583661
  N     2.302369 -3.082924 -0.632131
  N     2.410514  0.312342 -0.604737
  N     1.329437 -3.501382  3.099792
  N     1.808582  0.247375  3.260349
  S     0.700140 -3.552311  1.601664
  S     0.978560 -0.000106  1.806778
  S     3.900840 -2.851206 -0.885929
  S     4.005891  0.572974 -0.955050
  S     2.964091 -3.260413  3.201052
  S     3.385734  0.669846  3.101363
