16  
    
  C    10.022311 -0.103760  2.711887
  C    10.126213  3.827132  2.724345
  C     8.729814 -0.464354  2.100479
  C     9.077784  2.918651  2.323335
  N    11.050521  0.060099  1.900085
  N    10.952296  4.195812  1.727450
  N     8.864814 -0.620808  0.799905
  N     9.133838  2.572735  1.050021
  N     8.293002 -0.328730  4.647947
  N     8.441895  3.417343  4.787343
  S     7.452297 -0.745813  3.262022
  S     7.811438  2.589193  3.462258
  S    10.453658 -0.240593  0.357413
  S    10.413290  3.369665  0.408600
  S     9.932800 -0.024374  4.421157
  S     9.772545  4.357140  4.358288
