16  
    
  C     9.683269  0.118697  2.796985
  C     9.856030  3.492840  2.665241
  C     8.574719 -0.511112  2.168479
  C     8.634036  3.130995  2.056604
  N    10.652131  0.469512  1.942267
  N    10.773410  3.916907  1.805129
  N     8.635473 -0.449968  0.835553
  N     8.635876  3.120848  0.706629
  N     8.237316 -0.767016  4.698114
  N     8.124481  3.207246  4.645589
  S     7.319466 -1.025484  3.324930
  S     7.320059  2.860828  3.258645
  S    10.094677  0.166822  0.422618
  S    10.145579  3.677448  0.303030
  S     9.696259  0.067210  4.534092
  S     9.690532  3.723036  4.325815
