16  
    
  C    10.304784  0.145172  2.672463
  C    10.268479  4.225429  3.094743
  C     9.106072 -0.325212  1.968071
  C     9.004313  3.811634  2.492547
  N    11.388706  0.152763  1.898516
  N    11.319823  4.051327  2.304381
  N     9.362316 -0.800996  0.734027
  N     9.088625  3.445456  1.226033
  N     8.480822  0.472925  4.320522
  N     8.681877  4.191592  5.092013
  S     7.832086 -0.404364  3.087733
  S     7.755569  3.968879  3.720131
  S    10.982930 -0.551653  0.460187
  S    10.784113  3.573377  0.849013
  S    10.099796  0.817853  4.213355
  S    10.263448  4.746801  4.716218
