16  
    
  C    12.847161  1.696080  3.717641
  C    12.909208  5.578063  3.696802
  C    11.622588  1.246783  3.039680
  C    11.654018  4.998726  3.225587
  N    13.850939  1.638531  2.903383
  N    13.927699  5.620764  2.816498
  N    11.672497  1.020455  1.723554
  N    11.678776  4.647980  1.994472
  N    10.979504  1.683431  5.479725
  N    11.243482  5.497346  5.663615
  S    10.220648  1.231902  4.077153
  S    10.410773  4.816692  4.441178
  S    13.310877  1.292432  1.366499
  S    13.204193  4.931051  1.439081
  S    12.603116  1.965327  5.437462
  S    12.770169  6.035246  5.435220
