16  
    
  C     4.704208 -1.983308  1.909286
  C     4.169085  1.140994  1.295160
  C     3.539657 -2.465585  1.229450
  C     2.941405  0.810084  0.567702
  N     5.815642 -1.968580  1.137086
  N     5.237277  1.155240  0.503028
  N     3.720009 -2.793614 -0.066861
  N     3.035843  0.770045 -0.769222
  N     2.866320 -2.226805  3.690929
  N     2.299505  1.175062  3.011151
  S     2.148884 -2.662163  2.257716
  S     1.534352  0.592632  1.665037
  S     5.293326 -2.347144 -0.445353
  S     4.684708  1.052642 -1.065035
  S     4.447237 -1.735926  3.587861
  S     3.966592  1.273013  3.035429
