16  
    
  C    10.878969  0.800364  2.928281
  C    10.875758  4.405436  3.329230
  C     9.694137  0.184228  2.342781
  C     9.733324  3.828204  2.710279
  N    11.936004  0.866710  2.130823
  N    11.911915  4.791491  2.593247
  N     9.791178  0.047813  1.037116
  N     9.978555  3.664818  1.411250
  N     9.303278  0.247338  4.939669
  N     9.185718  3.984148  5.256860
  S     8.450942 -0.229930  3.590054
  S     8.421526  3.583247  3.846459
  S    11.366217  0.432713  0.643785
  S    11.535863  4.185076  1.073382
  S    10.863128  0.805939  4.647455
  S    10.674996  4.664256  5.069958
