16  
    
  C    12.512783  1.746975  3.405131
  C    12.831795  5.392855  3.400550
  C    11.361240  1.304136  2.714335
  C    11.597278  4.906789  2.733455
  N    13.555491  1.977668  2.594369
  N    13.833128  5.596977  2.574807
  N    11.372632  1.301482  1.380390
  N    11.668228  4.860866  1.397317
  N    10.832554  1.037212  5.226227
  N    11.062230  5.026874  5.200276
  S    10.096508  0.688689  3.812775
  S    10.380430  4.496056  3.792581
  S    12.957163  1.680568  1.036867
  S    13.222603  5.262429  0.980942
  S    12.392565  1.558577  5.100201
  S    12.590453  5.586421  5.167229
