16  
    
  C    11.426884  1.161516  3.175055
  C    11.429236  4.890115  2.960233
  C    10.232543  0.583748  2.627662
  C    10.324997  4.227765  2.301226
  N    12.330499  1.533359  2.246536
  N    12.386454  5.291566  2.112665
  N    10.225863  0.398424  1.313888
  N    10.444215  4.061747  0.996820
  N     9.863374  0.816767  5.096670
  N     9.566424  4.651563  4.761375
  S     9.104334  0.076292  3.804388
  S     8.960442  3.884339  3.394914
  S    11.670654  1.050259  0.842458
  S    11.951574  4.726839  0.617014
  S    11.409601  1.421288  4.876132
  S    11.157190  5.066986  4.697431
