16  
    
  C    11.072110  0.574657  3.069036
  C    10.995407  4.366306  2.934099
  C     9.896869 -0.001523  2.507619
  C     9.935721  3.694882  2.265446
  N    12.034724  0.729306  2.172531
  N    12.012946  4.562631  2.130973
  N     9.939656 -0.109411  1.183988
  N    10.140847  3.307688  0.999530
  N     9.271408  0.473811  4.959230
  N     9.086236  4.190749  4.651773
  S     8.542841 -0.152233  3.604510
  S     8.517293  3.448920  3.256615
  S    11.450289  0.253302  0.689544
  S    11.605267  3.934040  0.617769
  S    10.921407  0.708652  4.803221
  S    10.692653  4.569898  4.666574
