16  
    
  C    12.086365  1.202882  3.450839
  C    12.247277  5.159294  3.180787
  C    10.882256  0.747230  2.727016
  C    10.948940  4.733497  2.687489
  N    13.187030  1.092231  2.699203
  N    13.288064  5.111754  2.312898
  N    11.000611  0.547135  1.414399
  N    11.065643  4.345991  1.431774
  N    10.181800  1.438813  5.137442
  N    10.526103  5.295711  5.145145
  S     9.544442  0.756388  3.765717
  S     9.628243  4.899887  3.783137
  S    12.613979  0.800399  1.133982
  S    12.656441  4.485050  0.921438
  S    11.811702  1.686352  5.072133
  S    12.161285  5.527488  4.828869
