16  
    
  C    11.755524  1.034712  2.820022
  C    11.729819  4.922950  3.201578
  C    10.532004  0.294956  2.388373
  C    10.590807  4.372044  2.471397
  N    12.607319  1.470441  1.871855
  N    12.722282  5.166217  2.332767
  N    10.516192  0.342602  1.039997
  N    10.681656  4.227573  1.155713
  N    10.105684  0.867908  4.878105
  N     9.888443  4.659001  4.913745
  S     9.263260  0.181843  3.597172
  S     9.229605  4.046250  3.492507
  S    11.885350  1.122866  0.425340
  S    12.204867  4.871060  0.836906
  S    11.651793  1.410126  4.519548
  S    11.463769  5.194560  4.858421
