16  
    
  C    12.548168  1.537252  3.710644
  C    12.367293  5.134178  3.381874
  C    11.330994  0.922350  3.045710
  C    11.071037  4.774482  2.823640
  N    13.510341  1.797213  2.858795
  N    13.407990  5.168336  2.621759
  N    11.386921  0.904346  1.725574
  N    11.210085  4.571527  1.524701
  N    10.821029  1.450806  5.560543
  N    10.670492  4.935944  5.410016
  S    10.069957  0.847355  4.246007
  S     9.782437  4.567965  4.006557
  S    12.914625  1.410077  1.287605
  S    12.796982  4.842170  1.092354
  S    12.442166  1.718798  5.437031
  S    12.269966  5.414887  5.077435
