16  
    
  C     7.259927 -1.699335  2.254883
  C     7.485969  2.258575  2.234062
  C     6.027458 -2.083222  1.585775
  C     6.295401  1.742495  1.602580
  N     8.325013 -1.561608  1.493285
  N     8.512242  2.353772  1.390007
  N     6.187951 -2.344933  0.293997
  N     6.417851  1.342456  0.332336
  N     5.385112 -1.569060  4.042861
  N     5.725803  2.116625  4.123281
  S     4.708077 -2.253081  2.707724
  S     4.985935  1.698063  2.708023
  S     7.768867 -1.937873 -0.014276
  S     7.957943  1.821290 -0.147233
  S     7.066108 -1.412398  3.933382
  S     7.317154  2.666117  3.901514
