16  
    
  C     7.916396 -0.831393  2.267643
  C     8.301200  2.827070  2.385817
  C     6.740941 -1.362832  1.521542
  C     7.001821  2.524020  1.836645
  N     8.878529 -0.408766  1.475740
  N     9.246731  2.919581  1.473094
  N     6.986919 -1.517666  0.244418
  N     7.000585  2.511638  0.495330
  N     6.053576 -1.133766  4.050981
  N     6.750789  3.076152  4.437416
  S     5.438649 -1.816275  2.601629
  S     5.809454  2.623046  3.109758
  S     8.468215 -0.824859 -0.070861
  S     8.544868  2.712115 -0.009352
  S     7.629607 -0.549282  3.998723
  S     8.390084  3.039933  4.113218
