16  
    
  C    12.750327  1.657064  3.358889
  C    12.635004  5.430373  3.223917
  C    11.484528  1.220741  2.748792
  C    11.376815  4.836183  2.711652
  N    13.638417  1.921216  2.451461
  N    13.567784  5.601053  2.287391
  N    11.515476  1.112155  1.435342
  N    11.362490  4.690184  1.430284
  N    11.061985  1.481655  5.281237
  N    11.068353  4.811108  5.203602
  S    10.260495  0.848011  3.925767
  S    10.206941  4.433339  3.898855
  S    13.045976  1.593197  0.967754
  S    12.838301  5.110090  0.868409
  S    12.731624  1.644574  5.142848
  S    12.542299  5.493183  4.995237
