16  
    
  C     6.284723 -1.623563  1.824329
  C     6.425881  2.259367  1.973550
  C     5.131145 -2.191931  1.186208
  C     5.297057  1.632660  1.390372
  N     7.367499 -1.521285  1.075046
  N     7.526877  2.338629  1.195856
  N     5.323856 -2.498502 -0.074777
  N     5.493648  1.363261  0.097093
  N     4.524621 -2.188990  3.653013
  N     4.703978  1.849807  3.907740
  S     3.819499 -2.643795  2.214061
  S     3.922994  1.392025  2.474160
  S     6.919269 -1.982990 -0.481649
  S     7.021474  1.814559 -0.276086
  S     6.048536 -1.450982  3.556095
  S     6.238901  2.480393  3.691436
