16  
    
  C     7.831261 -0.702326  2.165627
  C     8.351452  2.798024  2.407345
  C     6.778183 -1.494132  1.523217
  C     6.998951  2.623384  1.874038
  N     8.855123 -0.415155  1.413243
  N     9.316715  2.908368  1.506688
  N     6.959019 -1.647613  0.245379
  N     7.002405  2.535558  0.564542
  N     6.097582 -1.246785  3.919236
  N     6.643839  3.059955  4.342190
  S     5.385537 -1.726308  2.534405
  S     5.723259  2.484462  3.126515
  S     8.409327 -0.912284 -0.084298
  S     8.564356  2.829535  0.006063
  S     7.643656 -0.575412  3.825222
  S     8.312839  2.981391  4.139967
