16  
    
  C    12.713117  1.442138  3.696024
  C    12.347156  5.008854  3.433726
  C    11.489378  1.328834  3.009562
  C    11.191616  4.447516  2.716909
  N    13.789926  1.559604  2.934976
  N    13.425538  5.219358  2.723640
  N    11.548787  1.194835  1.708288
  N    11.435907  4.310896  1.421044
  N    10.890415  1.838527  5.490381
  N    10.421279  4.566876  5.133382
  S    10.150529  1.371749  4.065552
  S     9.755561  4.198401  3.711563
  S    13.171807  1.356377  1.361555
  S    12.956503  4.787530  1.130874
  S    12.588922  1.870721  5.428853
  S    11.978886  5.113683  5.151202
