16  
    
  C    12.532933  1.467671  3.332779
  C    12.869156  5.460310  3.637826
  C    11.354133  0.919888  2.739364
  C    11.806631  4.868930  2.807097
  N    13.468130  1.886486  2.476246
  N    13.959687  5.826340  2.903769
  N    11.419248  0.780041  1.407974
  N    12.041015  4.801667  1.490660
  N    10.877704  0.995923  5.273878
  N    10.872649  4.892956  5.217977
  S    10.096592  0.616792  3.821376
  S    10.316478  4.669402  3.657809
  S    12.843629  1.556867  0.965383
  S    13.561950  5.390540  1.262415
  S    12.422280  1.726994  5.115368
  S    12.381423  5.553244  5.301565
