16  
    
  C     6.028983 -2.253135  1.735345
  C     6.099365  1.669168  1.844453
  C     4.755870 -2.445431  1.101296
  C     4.800346  1.782723  1.217021
  N     7.082250 -2.259913  0.949674
  N     7.096716  1.437503  0.988230
  N     4.872648 -2.813911 -0.151832
  N     4.766394  1.659403 -0.111578
  N     4.263888 -2.116069  3.597334
  N     4.446278  2.073650  3.779543
  S     3.470447 -2.468701  2.232709
  S     3.514342  1.940134  2.387998
  S     6.480585 -2.494376 -0.574815
  S     6.406079  1.495583 -0.544609
  S     5.895982 -2.005627  3.479721
  S     6.082805  1.888331  3.556799
