16  
    
  C     6.134524 -1.533474  2.386319
  C     6.613900  2.162148  2.225883
  C     4.983398 -2.143362  1.764904
  C     5.396220  1.601640  1.649863
  N     7.198822 -1.316010  1.606745
  N     7.602282  2.428962  1.386093
  N     5.151489 -2.224059  0.453602
  N     5.443173  1.453839  0.322779
  N     4.365419 -2.109041  4.255804
  N     4.988695  1.636306  4.201355
  S     3.707024 -2.658284  2.846144
  S     4.132939  1.333212  2.776569
  S     6.590795 -1.624146  0.075615
  S     6.961397  2.100907 -0.171460
  S     5.969579 -1.601722  4.161435
  S     6.522324  2.249538  3.911767
