16  
    
  C    12.151399  1.153550  3.360999
  C    12.289213  5.040465  3.346672
  C    10.942906  0.741194  2.754619
  C    10.986276  4.697810  2.792651
  N    13.241516  1.149256  2.621947
  N    13.242983  5.096747  2.454513
  N    11.053489  0.625769  1.433546
  N    11.029819  4.340139  1.531368
  N    10.219777  1.427718  5.155035
  N    10.531115  5.351968  5.221395
  S     9.443552  0.808420  3.749752
  S     9.721039  4.832818  3.872413
  S    12.673761  0.813817  1.053292
  S    12.624798  4.663986  0.985518
  S    11.889333  1.690329  4.997166
  S    12.171143  5.537248  5.096369
