16  
    
  C     6.335486 -1.707784  1.643898
  C     6.444390  2.151065  1.954229
  C     5.176037 -2.283667  0.973997
  C     5.281395  1.492161  1.369207
  N     7.374474 -1.381874  0.827585
  N     7.460581  2.378362  1.144514
  N     5.468842 -2.577462 -0.311552
  N     5.452854  1.167655  0.108904
  N     4.489439 -1.769864  3.359723
  N     4.559358  2.010740  3.726392
  S     3.803570 -2.515645  2.061831
  S     3.925223  1.242430  2.406370
  S     6.887370 -1.883059 -0.672293
  S     6.961066  1.777585 -0.367934
  S     6.092104 -1.383703  3.357030
  S     6.105500  2.577414  3.606825
