16  
    
  C     9.745625  0.033701  2.867164
  C     9.766663  3.551791  2.686827
  C     8.631866 -0.614511  2.212634
  C     8.483546  3.450393  2.071750
  N    10.699595  0.316716  2.039229
  N    10.774214  3.725814  1.832733
  N     8.636417 -0.673620  0.913945
  N     8.485415  3.444412  0.735274
  N     7.984488 -0.474512  4.739424
  N     8.094356  3.153030  4.685848
  S     7.303157 -0.988482  3.307051
  S     7.322909  2.922507  3.218662
  S    10.088910  0.013416  0.483880
  S    10.092146  3.615529  0.374944
  S     9.567070  0.124623  4.636266
  S     9.710440  3.471498  4.480468
