16  
    
  C     9.072361 -0.479170  2.434038
  C     9.560898  3.316039  2.742087
  C     7.887209 -0.923384  1.700153
  C     8.313037  2.928580  2.187601
  N    10.162157 -0.355878  1.635916
  N    10.582681  3.334650  1.877795
  N     8.160657 -1.269054  0.413902
  N     8.343676  2.717235  0.873242
  N     6.981972 -0.208811  3.927163
  N     7.793040  3.389013  4.651670
  S     6.414340 -1.095084  2.666248
  S     6.964908  3.242838  3.259850
  S     9.709150 -0.848181  0.104226
  S     9.884097  2.936124  0.418085
  S     8.614929  0.012498  4.077434
  S     9.382431  3.725427  4.410693
