16  
    
  C    10.277883  0.089617  2.776184
  C    10.220672  4.064304  3.075302
  C     9.052140 -0.417674  2.123999
  C     8.945956  3.693082  2.518505
  N    11.319701  0.074127  1.956678
  N    11.217757  4.055238  2.230864
  N     9.213893 -0.672982  0.820943
  N     8.935444  3.428121  1.200570
  N     8.555200  0.119135  4.610003
  N     8.594880  4.436991  4.985688
  S     7.756541 -0.601051  3.297964
  S     7.746999  3.933979  3.673893
  S    10.804234 -0.448819  0.504928
  S    10.611976  3.623578  0.770457
  S    10.248591  0.266759  4.540751
  S    10.251222  4.454059  4.845427
