16  
    
  C    11.621966  1.031004  3.039313
  C    11.944148  5.119436  3.086693
  C    10.394279  0.623935  2.441682
  C    10.743001  4.440438  2.632498
  N    12.667546  1.044597  2.197836
  N    12.898579  5.291476  2.199807
  N    10.418775  0.589567  1.092942
  N    10.859754  3.937933  1.387698
  N    10.036186  0.662671  5.005181
  N    10.264994  4.961331  5.102363
  S     9.140493  0.442603  3.606494
  S     9.478017  4.207354  3.832396
  S    12.003988  0.926111  0.680201
  S    12.338510  4.377711  0.833980
  S    11.560044  1.347939  4.811039
  S    11.784788  5.566720  4.753421
