16  
    
  C    11.331408  0.957660  3.288148
  C    11.543503  4.674485  3.029041
  C    10.091082  0.477873  2.700970
  C    10.348502  4.180976  2.399980
  N    12.320707  1.013193  2.401254
  N    12.579848  4.978890  2.259853
  N    10.120111  0.378853  1.349629
  N    10.522317  3.948239  1.099179
  N     9.698046  0.697937  5.206669
  N     9.803616  4.341332  4.854158
  S     8.748511  0.341173  3.888300
  S     9.087833  3.875970  3.423633
  S    11.675548  0.675076  0.887723
  S    12.056453  4.399743  0.725809
  S    11.253524  1.302945  4.960908
  S    11.391052  4.933436  4.740633
