16  
    
  C     5.513465 -2.132119  1.922965
  C     5.273931  1.591112  1.744436
  C     4.385341 -2.743252  1.266228
  C     4.119278  1.021624  1.089546
  N     6.527495 -1.823820  1.106199
  N     6.203727  2.083336  0.922043
  N     4.457096 -2.829057 -0.092140
  N     4.188603  1.045064 -0.218172
  N     3.739957 -2.449785  3.741031
  N     3.547506  0.841512  3.494556
  S     3.001963 -2.847204  2.351084
  S     2.997904  0.198356  2.105611
  S     5.991323 -2.210828 -0.441174
  S     5.650252  1.709445 -0.609209
  S     5.275567 -1.889774  3.606245
  S     5.058507  1.551104  3.446360
