16  
    
  C    12.818290  1.723111  3.718288
  C    12.902958  5.595760  3.713563
  C    11.567336  1.276009  3.018395
  C    11.703284  4.992512  3.277155
  N    13.839958  1.659823  2.884413
  N    13.889351  5.628976  2.795966
  N    11.686489  0.999086  1.725191
  N    11.700543  4.644704  1.962036
  N    10.925770  1.689929  5.476390
  N    11.226651  5.502030  5.693490
  S    10.235465  1.213785  4.052189
  S    10.410434  4.791673  4.393118
  S    13.319980  1.239368  1.363745
  S    13.217490  4.950818  1.443172
  S    12.579676  1.956892  5.441850
  S    12.764749  6.009420  5.445116
