16  
    
  C    10.966741  0.631364  3.133103
  C    11.000738  4.319768  3.440869
  C     9.823821  0.072747  2.460103
  C     9.775695  3.842862  2.792317
  N    11.917129  0.999919  2.261842
  N    12.032284  4.569728  2.603695
  N     9.917387  0.003400  1.114817
  N     9.927476  3.651645  1.501427
  N     9.170196  0.139240  4.950366
  N     9.223913  4.059438  5.249097
  S     8.461137 -0.133750  3.468965
  S     8.517057  3.495854  3.837275
  S    11.380659  0.566328  0.756447
  S    11.374264  4.237354  1.061157
  S    10.765528  0.675105  4.863788
  S    10.777727  4.688211  5.136041
