16  
    
  C    12.055055  1.376080  3.480317
  C    12.211457  5.107160  3.398794
  C    11.033681  0.693246  2.818022
  C    11.007789  4.673211  2.706483
  N    13.125751  1.592180  2.711748
  N    13.319375  5.132763  2.637718
  N    11.197227  0.563734  1.459888
  N    11.188529  4.345209  1.411242
  N    10.117167  1.110207  5.206729
  N    10.370453  5.393094  5.126709
  S     9.480076  0.562350  3.750275
  S     9.632493  4.696973  3.761796
  S    12.749443  1.131261  1.171337
  S    12.880738  4.676124  1.138685
  S    11.678362  1.720644  5.149747
  S    12.005643  5.727071  4.991919
