16  
    
  C     4.214426 -2.239796  1.785178
  C     4.022066  1.229213  1.202319
  C     3.084404 -2.979644  1.232020
  C     3.037677  0.271652  0.675104
  N     5.212356 -2.071915  0.942447
  N     4.971578  1.447875  0.324417
  N     3.255250 -3.296313 -0.043269
  N     3.179494 -0.104357 -0.588585
  N     2.583982 -2.672004  3.774283
  N     2.273016  0.928999  3.063919
  S     1.780202 -3.168237  2.398063
  S     1.688239  0.026661  1.755942
  S     4.676472 -2.662911 -0.545169
  S     4.541027  0.739241 -1.092995
  S     4.099776 -1.989094  3.517622
  S     3.764034  1.685686  2.841248
