16  
    
  C     4.299589 -2.331448  1.853945
  C     4.068589  1.155560  1.200554
  C     3.177071 -3.022354  1.279297
  C     2.999090  0.342167  0.632030
  N     5.205516 -1.887616  0.943702
  N     4.960016  1.481967  0.275650
  N     3.344860 -3.252960 -0.042623
  N     3.134602  0.024412 -0.632806
  N     2.555721 -2.387607  3.697054
  N     2.272519  0.963158  3.010197
  S     1.817480 -3.100790  2.380464
  S     1.629655  0.127519  1.707111
  S     4.793256 -2.616273 -0.432087
  S     4.601229  0.703684 -1.139707
  S     4.161513 -2.001610  3.519493
  S     3.739622  1.566686  2.823112
