16  
    
  C    12.449868  1.658478  3.350043
  C    12.820102  5.454281  3.401216
  C    11.260446  1.247391  2.676166
  C    11.615047  5.047171  2.728209
  N    13.466836  1.947768  2.557776
  N    13.825362  5.664026  2.615599
  N    11.406270  1.202353  1.388287
  N    11.785222  4.905714  1.407654
  N    10.823962  1.142520  5.228031
  N    10.964886  4.941287  5.288699
  S    10.083202  0.626406  3.786546
  S    10.331841  4.509991  3.782392
  S    12.951625  1.695330  1.013416
  S    13.390765  5.248621  1.108292
  S    12.438559  1.555667  5.152114
  S    12.551637  5.571213  5.133285
