16  
    
  C    12.077887  1.393150  3.472892
  C    12.193412  5.086522  3.342063
  C    10.968160  0.704855  2.795810
  C    11.020487  4.628446  2.695475
  N    13.160451  1.598348  2.730161
  N    13.300767  5.089535  2.602548
  N    11.205187  0.513240  1.518089
  N    11.144960  4.390466  1.415618
  N    10.142393  1.089128  5.181189
  N    10.366839  5.400914  5.122434
  S     9.446415  0.581569  3.761901
  S     9.659699  4.722919  3.729948
  S    12.736886  1.088329  1.164031
  S    12.857217  4.636365  1.093934
  S    11.684330  1.705187  5.158625
  S    12.016670  5.746085  4.983962
