16  
    
  C    11.762837  0.977211  2.831497
  C    11.667535  4.974743  3.141112
  C    10.578085  0.354282  2.360031
  C    10.560840  4.373653  2.490282
  N    12.571091  1.474028  1.902385
  N    12.721840  5.194250  2.340503
  N    10.498434  0.354955  1.058501
  N    10.714533  4.281617  1.178140
  N    10.111947  0.841382  4.880389
  N     9.855092  4.641818  4.897818
  S     9.274030  0.144599  3.584722
  S     9.188804  4.038522  3.492661
  S    11.877086  1.114927  0.441770
  S    12.196348  4.906629  0.815175
  S    11.646759  1.477591  4.501150
  S    11.416007  5.120085  4.861263
