16  
    
  C    10.457962  0.012707  2.741805
  C    10.353544  4.249277  3.064423
  C     9.251729 -0.487135  2.177422
  C     9.026460  3.855510  2.621102
  N    11.464672  0.059836  1.876788
  N    11.364900  4.025865  2.203678
  N     9.354546 -0.927590  0.935993
  N     8.997416  3.520948  1.340878
  N     8.490219  0.241239  4.528651
  N     8.594197  4.232468  5.092364
  S     7.802202 -0.434401  3.195629
  S     7.690190  3.915318  3.706456
  S    10.834839 -0.531256  0.408673
  S    10.611325  3.509374  0.807473
  S    10.100421  0.606623  4.355219
  S    10.206554  4.676614  4.760153
