16  
    
  C    11.966941  1.336676  3.430238
  C    11.751870  4.860326  3.746771
  C    10.797607  0.883127  2.736484
  C    10.696996  4.184265  3.109272
  N    13.015941  1.592477  2.667609
  N    12.717960  5.232372  2.882514
  N    10.941365  0.854199  1.399728
  N    10.792856  4.086058  1.769374
  N    10.380705  0.740066  5.310642
  N    10.073723  4.481019  5.642442
  S     9.653214  0.240357  3.874023
  S     9.337691  3.893548  4.242695
  S    12.521166  1.386605  1.076529
  S    12.234486  4.829698  1.381929
  S    11.946392  1.360599  5.229775
  S    11.631418  4.988697  5.443841
