16  
    
  C     9.071363 -0.461504  2.442079
  C     9.564454  3.473599  2.706934
  C     7.929878 -0.934926  1.674006
  C     8.243104  3.208671  2.101379
  N    10.203395 -0.454860  1.777836
  N    10.608320  3.413964  1.877061
  N     8.190053 -1.177325  0.416686
  N     8.310442  2.880312  0.814438
  N     7.083769 -0.603357  4.111642
  N     7.812884  3.775543  4.626688
  S     6.422993 -1.052433  2.628434
  S     6.982588  3.387419  3.271066
  S     9.842974 -0.910749  0.201189
  S     9.968610  2.866616  0.462836
  S     8.693071 -0.202990  4.133200
  S     9.445175  3.883657  4.352918
