16  
    
  C     3.244377 -2.968023  1.564064
  C     3.570186  0.546428  1.442386
  C     2.056700 -3.172959  0.744807
  C     2.350424  0.260603  0.759169
  N     4.383254 -2.786667  0.912687
  N     4.574449  0.731749  0.611589
  N     2.272263 -3.051939 -0.572394
  N     2.374052  0.415916 -0.567985
  N     1.391390 -3.557024  3.190205
  N     1.875434  0.135199  3.321119
  S     0.656913 -3.616625  1.629440
  S     1.021009  0.001090  1.861054
  S     3.957336 -2.855446 -0.716239
  S     3.939650  0.726724 -0.975298
  S     3.018313 -3.135834  3.225472
  S     3.420535  0.687909  3.150054
