16  
    
  C    11.952706  1.643538  3.515217
  C    11.974696  5.026344  3.764374
  C    10.993971  0.786384  2.926928
  C    10.718942  4.613968  3.202146
  N    12.890578  2.117071  2.692049
  N    12.911086  5.393757  2.884519
  N    11.088232  0.729559  1.611598
  N    10.699015  4.549394  1.912686
  N    10.422392  0.763438  5.447899
  N    10.556371  4.386752  5.778831
  S     9.663525  0.229173  4.037183
  S     9.668511  4.029779  4.423541
  S    12.496751  1.506493  1.219342
  S    12.157669  5.137860  1.402368
  S    11.891891  1.582003  5.221556
  S    12.095680  4.987609  5.572079
