16  
    
  C     8.976360 -0.342948  2.351190
  C     9.465642  3.319615  2.700813
  C     7.850150 -0.908990  1.693523
  C     8.189313  3.008822  2.113000
  N    10.046389 -0.250823  1.600469
  N    10.527691  3.199749  1.904215
  N     8.072482 -1.272292  0.450806
  N     8.293025  2.698046  0.811792
  N     7.125309 -0.339404  4.104591
  N     7.781547  3.289048  4.651893
  S     6.475032 -1.078171  2.806902
  S     6.859378  2.955723  3.283409
  S     9.634613 -0.900521  0.150172
  S     9.908219  2.826021  0.442211
  S     8.722460  0.138084  3.963797
  S     9.412133  3.698006  4.437007
