16  
    
  C    11.653825  1.304772  2.913989
  C    11.837737  5.040467  3.068253
  C    10.428673  0.672337  2.382701
  C    10.609157  4.436524  2.536612
  N    12.574109  1.494744  1.953298
  N    12.895517  5.177592  2.279843
  N    10.417515  0.509441  1.037674
  N    10.795686  4.052937  1.257725
  N    10.120009  0.732141  4.911950
  N    10.132133  4.718582  5.073433
  S     9.187660  0.295070  3.561045
  S     9.362413  4.134866  3.727336
  S    11.964448  0.877315  0.534084
  S    12.344267  4.555715  0.805393
  S    11.691949  1.191028  4.623126
  S    11.600186  5.458610  4.762528
