16  
    
  C     8.832004 -0.938456  2.369462
  C     8.478721  3.226758  2.432134
  C     7.586551 -1.310335  1.712877
  C     7.330593  2.577839  1.842057
  N     9.897753 -0.870797  1.538626
  N     9.433110  3.529471  1.539160
  N     7.754427 -1.445544  0.394087
  N     7.356324  2.439073  0.497342
  N     6.900403 -1.115782  4.167350
  N     6.780576  2.819337  4.402389
  S     6.211796 -1.594172  2.740368
  S     6.096077  2.214990  2.971954
  S     9.343281 -1.197766  0.005008
  S     8.847841  3.030406  0.116102
  S     8.558826 -0.694152  4.105981
  S     8.285826  3.572562  4.172019
