16  
    
  C     9.806131 -0.137687  2.893942
  C     9.756581  3.558873  2.732881
  C     8.614194 -0.712259  2.201821
  C     8.434959  3.335713  2.111561
  N    10.830619  0.069665  2.086347
  N    10.748345  3.944626  1.907344
  N     8.706351 -0.829794  0.893344
  N     8.522896  3.270454  0.782961
  N     7.925484 -0.499338  4.649050
  N     7.875160  3.291310  4.627108
  S     7.176587 -0.783018  3.174071
  S     7.026451  3.306221  3.141185
  S    10.267667 -0.385755  0.539394
  S    10.072042  3.800719  0.351850
  S     9.443827  0.082710  4.582777
  S     9.538244  3.631267  4.473312
