16  
    
  C     9.908631 -0.064747  2.773799
  C     9.718779  3.791165  2.823803
  C     8.831500 -0.634494  2.063476
  C     8.612664  3.267058  2.089886
  N    10.995553  0.081107  1.991353
  N    10.767196  4.141766  2.083422
  N     8.990575 -0.794787  0.732150
  N     8.842163  3.005749  0.803717
  N     7.971305 -0.378532  4.443454
  N     7.824472  3.610212  4.555195
  S     7.398840 -0.924662  3.018538
  S     7.238597  3.180993  3.067442
  S    10.538831 -0.283441  0.431275
  S    10.348938  3.695328  0.485464
  S     9.595669  0.055894  4.532766
  S     9.393852  4.267512  4.502593
