16  
    
  C    11.486077  1.334959  2.994940
  C    11.423014  4.946665  3.119224
  C    10.392195  0.487790  2.475496
  C    10.323091  4.338860  2.366871
  N    12.348040  1.747551  2.084648
  N    12.471445  5.295566  2.381606
  N    10.546479  0.219652  1.207366
  N    10.528983  4.404814  1.035779
  N    10.119522  0.680299  5.039993
  N     9.585361  4.359217  4.843099
  S     9.280124  0.073619  3.694297
  S     8.961713  3.940676  3.387283
  S    11.841267  1.071310  0.650133
  S    12.066948  4.932787  0.758781
  S    11.510758  1.563388  4.663238
  S    11.071486  5.085288  4.830703
