16  
    
  C    12.898539  1.594310  3.695173
  C    12.851890  5.503738  3.717279
  C    11.597741  1.213065  3.092088
  C    11.615924  4.962792  3.206813
  N    13.904376  1.701672  2.870316
  N    13.884587  5.495909  2.844221
  N    11.662648  1.172256  1.758568
  N    11.621226  4.617616  1.890181
  N    11.173921  1.593096  5.620484
  N    11.331365  5.544861  5.722193
  S    10.321165  1.271647  4.232248
  S    10.391510  4.997899  4.497201
  S    13.280616  1.496404  1.356844
  S    13.205188  4.921981  1.422028
  S    12.761306  1.948292  5.415441
  S    12.852319  6.080417  5.332711
