16  
    
  C     8.420339 -0.914715  2.456613
  C     8.174195  2.903158  2.318617
  C     7.124203 -1.426824  2.004079
  C     7.015063  2.282099  1.674540
  N     9.337302 -0.909874  1.502815
  N     9.283217  2.994973  1.549991
  N     7.176786 -1.915705  0.774090
  N     7.160403  2.003625  0.383151
  N     6.742097 -0.759632  4.525371
  N     6.234989  2.713786  4.100512
  S     5.852315 -1.414312  3.276001
  S     5.601564  2.047539  2.657701
  S     8.693769 -1.616143  0.120014
  S     8.754802  2.477829  0.059609
  S     8.341453 -0.414581  4.151877
  S     7.839095  3.161419  3.985866
