16  
    
  C     5.936430 -2.196139  1.818974
  C     5.662081  1.187359  1.741831
  C     4.636581 -2.391039  1.260505
  C     4.391153  0.756885  1.153051
  N     6.883803 -2.023300  0.924100
  N     6.703449  1.372512  0.928117
  N     4.650476 -2.514720 -0.050728
  N     4.513593  0.443413 -0.128677
  N     4.227717 -2.414287  3.811609
  N     3.822014  1.232921  3.585627
  S     3.378743 -2.593789  2.404236
  S     3.043061  0.708633  2.197342
  S     6.214421 -2.314828 -0.534816
  S     6.105851  0.819871 -0.568712
  S     5.877691 -2.130873  3.551677
  S     5.439682  1.449136  3.453567
