16  
    
  C     9.027711 -0.338799  2.515082
  C     9.251373  3.460920  2.767354
  C     7.794850 -0.853588  1.952293
  C     7.988079  3.162887  2.180955
  N    10.007848 -0.156599  1.672741
  N    10.276181  3.629598  1.951360
  N     7.825762 -0.884936  0.657461
  N     8.028572  3.061849  0.858239
  N     7.383583 -0.921371  4.470653
  N     7.439088  3.373914  4.691726
  S     6.497101 -1.066453  3.042369
  S     6.615597  2.908782  3.287702
  S     9.322436 -0.421094  0.158085
  S     9.643378  3.215989  0.452364
  S     8.963970 -0.341673  4.272277
  S     9.053841  3.722406  4.463589
