16  
    
  C    10.981539  0.592376  2.914273
  C    10.899896  4.535910  3.305859
  C     9.734990  0.142422  2.340458
  C     9.777854  3.880105  2.707788
  N    11.908779  0.855672  2.014679
  N    11.986970  4.697614  2.515079
  N     9.688875 -0.079615  1.024358
  N     9.982732  3.587841  1.445948
  N     9.394480  0.329408  4.877605
  N     9.234790  3.920927  5.144366
  S     8.555610 -0.193393  3.547573
  S     8.423205  3.679536  3.687293
  S    11.274728  0.358299  0.545614
  S    11.501150  4.192298  1.057542
  S    10.900020  1.000151  4.617223
  S    10.746806  4.590954  5.090106
