16  
    
  C    11.081670  0.599327  2.876081
  C    11.068954  4.265798  3.290468
  C     9.822754  0.017319  2.377634
  C     9.842751  3.824413  2.641011
  N    11.972326  0.870382  1.920418
  N    12.066562  4.504279  2.451872
  N     9.858788 -0.368076  1.118070
  N     9.936531  3.785968  1.310584
  N     9.417075  0.506971  4.896504
  N     9.227648  4.226774  5.161443
  S     8.591737 -0.150305  3.609219
  S     8.485409  3.749152  3.737424
  S    11.295547  0.286428  0.486466
  S    11.543768  4.187530  0.930256
  S    10.929742  1.067830  4.505250
  S    10.848467  4.456231  5.054157
