16  
    
  C     9.740012 -0.146218  2.825956
  C     9.616235  3.874634  2.733774
  C     8.635795 -0.686001  2.113895
  C     8.385840  3.703819  2.028746
  N    10.921410 -0.049960  2.126169
  N    10.698341  3.985142  1.977692
  N     8.846455 -0.811019  0.769358
  N     8.506623  3.536788  0.695236
  N     7.921757 -0.312031  4.554463
  N     7.819989  3.534548  4.584959
  S     7.179278 -0.904721  3.137260
  S     7.090166  3.165584  3.117977
  S    10.470272 -0.377910  0.534563
  S    10.183423  3.629904  0.427372
  S     9.518125  0.044765  4.533311
  S     9.454835  3.852587  4.433997
