16  
    
  C     7.306169 -1.687624  2.234795
  C     7.426602  2.282823  2.177967
  C     6.051861 -1.907420  1.540857
  C     6.210038  1.784922  1.608169
  N     8.380338 -1.623439  1.444270
  N     8.431745  2.452830  1.317403
  N     6.197691 -2.144112  0.250497
  N     6.377590  1.522339  0.293128
  N     5.441887 -1.978933  4.125722
  N     5.751427  2.219707  4.096012
  S     4.770904 -2.285710  2.662451
  S     4.924002  1.703849  2.746426
  S     7.819947 -1.954441 -0.110710
  S     7.841805  1.961576 -0.157566
  S     7.046695 -1.538707  4.006136
  S     7.384847  2.604644  3.880802
