16  
    
  C     9.638360 -0.626817  2.756830
  C     9.485873  3.227890  2.594916
  C     8.374712 -0.798675  2.076347
  C     8.205955  3.015067  1.889365
  N    10.665457 -0.519675  1.977061
  N    10.566595  3.270376  1.824619
  N     8.480014 -1.019777  0.786713
  N     8.364014  3.026497  0.584777
  N     7.862233 -0.569970  4.630390
  N     7.653813  3.002963  4.367231
  S     7.032133 -0.994218  3.242444
  S     6.874196  3.027399  2.946719
  S    10.125986 -0.886020  0.454807
  S    10.014611  3.195719  0.233589
  S     9.524913 -0.443462  4.477192
  S     9.276735  3.394914  4.282979
