16  
    
  C     4.106496 -2.907714  1.624746
  C     4.145861  1.283079  1.552979
  C     2.898828 -3.345207  0.966802
  C     2.900808  0.930473  0.930325
  N     5.166297 -2.869607  0.778469
  N     5.155768  1.257784  0.688050
  N     2.993583 -3.430352 -0.387775
  N     2.860705  0.893983 -0.418575
  N     2.111634 -2.648976  3.320252
  N     2.427817  1.300144  3.513049
  S     1.493261 -3.411035  1.983320
  S     1.643299  0.921189  2.129211
  S     4.607155 -3.300514 -0.780317
  S     4.488795  1.021944 -0.801815
  S     3.744636 -2.315108  3.250804
  S     4.073411  1.624006  3.231872
