16  
    
  C     7.885221 -0.977220  1.873576
  C     7.937472  2.900858  2.466268
  C     6.702808 -1.532339  1.254166
  C     6.842581  2.412031  1.694675
  N     8.922177 -0.937317  1.078728
  N     8.954486  3.283617  1.732624
  N     6.772980 -1.611727 -0.069257
  N     7.118109  2.303084  0.405704
  N     6.061475 -0.816934  3.756710
  N     6.207939  2.426709  4.158661
  S     5.343870 -1.626409  2.465055
  S     5.463946  2.276235  2.702563
  S     8.363213 -1.280369 -0.484246
  S     8.610962  2.805340  0.171724
  S     7.642429 -0.519920  3.625919
  S     7.695354  3.084290  4.176779
