16  
    
  C    11.251186  0.959476  3.363449
  C    11.581285  4.655830  2.750317
  C    10.020598  0.468626  2.770401
  C    10.272618  4.331733  2.209739
  N    12.192719  1.189845  2.470370
  N    12.587816  4.803373  1.889056
  N    10.051003  0.332006  1.421195
  N    10.386712  4.138717  0.872433
  N     9.574506  0.992050  5.306125
  N     9.896871  4.434573  4.739432
  S     8.745446  0.535801  3.969823
  S     9.072894  3.978167  3.352013
  S    11.577116  0.828418  0.934449
  S    11.908247  4.540887  0.378598
  S    11.174056  1.108974  5.069674
  S    11.487884  4.900980  4.494471
