16  
    
  C     9.893368 -0.235409  3.008041
  C    10.171872  3.542352  2.988571
  C     8.778029 -0.651606  2.169258
  C     8.887533  3.741764  2.371998
  N    10.980900  0.115192  2.292420
  N    11.196159  3.481149  2.163098
  N     9.015210 -0.552264  0.837294
  N     9.010730  3.851934  1.042718
  N     8.064556 -0.634252  4.655332
  N     8.563228  3.549221  4.903442
  S     7.368307 -0.948338  3.179994
  S     7.668773  3.835038  3.590292
  S    10.633593 -0.036664  0.670355
  S    10.593915  3.751517  0.667185
  S     9.709021 -0.164934  4.720582
  S    10.186806  3.215846  4.744851
