16  
    
  C    10.623129  0.848468  2.926603
  C    10.619220  4.403138  2.824693
  C     9.441055  0.172238  2.443139
  C     9.566991  3.611243  2.248621
  N    11.669176  0.900853  2.073709
  N    11.674919  4.643305  2.079835
  N     9.576726 -0.155658  1.144976
  N     9.898158  3.109410  1.049596
  N     8.916447  0.656307  4.889655
  N     8.794652  4.396212  4.642801
  S     8.053384  0.215195  3.522198
  S     8.175900  3.535029  3.365194
  S    11.128001  0.165490  0.684892
  S    11.335717  3.839498  0.591680
  S    10.474240  1.218565  4.595262
  S    10.306553  5.082001  4.357685
