16  
    
  C    12.007861  1.208242  3.311180
  C    11.820024  4.758668  3.583377
  C    10.843410  0.767032  2.676150
  C    10.676727  4.320726  2.852351
  N    13.059303  1.486398  2.499632
  N    12.955967  4.933987  2.878580
  N    11.006076  0.467507  1.391683
  N    10.860571  4.256895  1.522336
  N    10.069390  1.190143  5.060543
  N     9.894380  4.726967  5.285362
  S     9.456640  0.465134  3.712566
  S     9.205056  4.262295  3.833920
  S    12.541651  0.912168  1.016370
  S    12.442498  4.693970  1.289585
  S    11.669804  1.532902  5.011839
  S    11.547944  5.073402  5.228377
