16  
    
  C    11.430102  1.041848  3.108828
  C    11.401224  4.685133  3.271921
  C    10.236037  0.391383  2.564683
  C    10.265554  3.951950  2.732522
  N    12.338447  1.249745  2.158273
  N    12.391354  4.873358  2.441464
  N    10.281668  0.045945  1.272738
  N    10.396513  3.751621  1.419071
  N     9.619266  0.900434  5.027996
  N     9.584043  4.452116  5.108914
  S     8.845047  0.273179  3.665722
  S     8.971993  3.711577  3.723255
  S    11.794277  0.583791  0.715672
  S    11.895894  4.287508  1.032682
  S    11.243271  1.241711  4.896893
  S    11.120502  5.124950  4.970830
