16  
    
  C     9.947961 -0.183067  2.958798
  C    10.202620  3.552534  2.836612
  C     8.730897 -0.546555  2.174385
  C     8.832596  3.464131  2.303528
  N    10.934513  0.133271  2.169855
  N    11.140819  3.520573  1.895070
  N     8.947595 -0.730279  0.891519
  N     8.728600  3.492337  0.978424
  N     8.154577 -0.743180  4.716562
  N     8.570834  3.266473  4.846776
  S     7.365297 -0.910331  3.205266
  S     7.641970  3.436216  3.434987
  S    10.523848 -0.275565  0.624253
  S    10.331379  3.624228  0.410706
  S     9.722506 -0.173797  4.740898
  S    10.242344  3.640568  4.653645
