16  
    
  C     5.724040 -2.071430  2.096239
  C     5.924426  1.490087  1.953070
  C     4.597620 -2.725082  1.480920
  C     4.754146  1.021774  1.271213
  N     6.696221 -1.875374  1.224655
  N     6.976222  1.868605  1.227351
  N     4.667529 -2.855970  0.164946
  N     4.829905  1.106299 -0.035429
  N     3.918179 -2.236656  3.880814
  N     4.153059  0.944068  3.783803
  S     3.234374 -2.923541  2.577438
  S     3.414468  0.573342  2.325229
  S     6.233568 -2.487344 -0.213381
  S     6.442922  1.591867 -0.394987
  S     5.484548 -1.878184  3.798708
  S     5.648117  1.604585  3.672112
