16  
    
  C    11.391962  0.974242  3.055053
  C    11.363357  4.641822  3.415813
  C    10.172450  0.434982  2.477872
  C    10.256942  3.921542  2.798766
  N    12.390894  1.172460  2.230287
  N    12.321999  4.911571  2.548924
  N    10.382279  0.033264  1.262207
  N    10.361857  3.645146  1.501890
  N     9.613140  0.845306  4.938430
  N     9.532021  4.493827  5.156580
  S     8.877832  0.220132  3.602666
  S     8.877532  3.738620  3.840022
  S    11.824177  0.573797  0.753778
  S    11.829800  4.251703  1.040732
  S    11.221977  1.247078  4.731991
  S    11.063791  5.148680  5.020658
