16  
    
  C    12.836037  1.719689  3.720778
  C    12.902580  5.589141  3.703284
  C    11.584603  1.263794  3.025069
  C    11.688846  4.994279  3.260342
  N    13.838194  1.650293  2.892595
  N    13.906693  5.627376  2.801294
  N    11.679093  1.005616  1.722157
  N    11.692065  4.647362  1.975190
  N    10.943271  1.688185  5.476669
  N    11.234488  5.501180  5.681454
  S    10.231074  1.220515  4.060254
  S    10.409972  4.799353  4.409182
  S    13.317885  1.257231  1.364342
  S    13.211882  4.943448  1.442848
  S    12.587268  1.959589  5.441240
  S    12.765724  6.018363  5.443721
