16  
    
  C     7.297049 -1.038246  2.043839
  C     7.720074  2.824653  2.163917
  C     6.098978 -1.504329  1.370515
  C     6.507120  2.244637  1.593714
  N     8.325133 -0.893211  1.258847
  N     8.689727  2.932614  1.273354
  N     6.236668 -1.646003  0.078166
  N     6.501360  2.040043  0.265900
  N     5.660466 -1.626260  3.879992
  N     6.027734  2.780645  4.076598
  S     4.823857 -1.933305  2.425805
  S     5.263764  2.058393  2.795564
  S     7.826007 -1.339585 -0.257657
  S     8.115153  2.435049 -0.188530
  S     7.231220 -1.135308  3.794776
  S     7.576089  3.200266  3.906835
