16  
    
  C     7.750908 -0.862445  1.778560
  C     7.781502  2.951983  2.337426
  C     6.555462 -1.370664  1.212788
  C     6.655056  2.373005  1.627904
  N     8.728370 -0.816897  0.881757
  N     8.906380  3.118098  1.622632
  N     6.605819 -1.760666 -0.073413
  N     6.843724  2.198093  0.294790
  N     6.127534 -1.093375  3.720599
  N     5.906513  2.679916  4.029084
  S     5.240921 -1.447428  2.384365
  S     5.298094  2.133086  2.634195
  S     8.189190 -1.427569 -0.530817
  S     8.515354  2.680977  0.076883
  S     7.759642 -0.639616  3.481566
  S     7.466792  3.229168  4.038766
