16  
    
  C    10.328711  0.579087  2.978057
  C    10.671700  4.569605  2.901173
  C     9.173092 -0.106959  2.373140
  C     9.421587  4.315450  2.245450
  N    11.294188  0.967432  2.124554
  N    11.701115  4.797916  2.071827
  N     9.198359 -0.040521  1.044333
  N     9.526762  4.218483  0.921688
  N     8.676143 -0.027796  4.892400
  N     9.092700  3.751276  4.784487
  S     7.911241 -0.593849  3.507417
  S     8.143068  3.900109  3.431843
  S    10.665049  0.613652  0.631457
  S    11.128261  4.564117  0.591651
  S    10.220952  0.566223  4.705573
  S    10.680713  4.209158  4.575269
