16  
    
  C     4.195996 -2.726845  1.555938
  C     4.262144  1.234263  1.719846
  C     2.950631 -3.291646  1.052517
  C     2.945337  1.293062  1.095500
  N     5.171490 -2.564273  0.674921
  N     5.232944  1.087670  0.806417
  N     3.119562 -3.726030 -0.209418
  N     2.903462  0.978690 -0.191977
  N     2.540900 -2.511860  3.479676
  N     2.512878  1.538415  3.651096
  S     1.646697 -3.138328  2.192261
  S     1.714752  1.553330  2.238704
  S     4.582946 -3.171871 -0.693597
  S     4.529695  0.935997 -0.652390
  S     4.170916 -2.195322  3.198335
  S     4.168115  1.520332  3.450890
