16  
    
  C     8.378730 -0.866631  2.455477
  C     8.172508  2.543759  2.119654
  C     7.090349 -1.365274  1.945105
  C     7.024628  2.179495  1.321391
  N     9.424702 -0.951042  1.636902
  N     9.296078  2.661092  1.448421
  N     7.159863 -1.593674  0.640904
  N     7.363971  1.973516  0.053563
  N     6.734133 -0.603836  4.343976
  N     6.366993  2.114489  3.792728
  S     5.822004 -1.291187  3.079165
  S     5.597893  1.988403  2.339072
  S     8.742368 -1.447721  0.220924
  S     8.978590  2.136522 -0.139122
  S     8.363839 -0.452264  4.102429
  S     7.893633  2.702272  3.827843
