16  
    
  C     3.979093 -2.812555  1.521063
  C     4.123248  1.220329  1.513870
  C     2.804167 -3.365006  0.871477
  C     2.855142  0.894213  0.908636
  N     5.037729 -2.770087  0.707121
  N     5.139041  1.289674  0.669028
  N     2.916317 -3.798725 -0.380133
  N     2.945824  0.595316 -0.385352
  N     2.052379 -2.740347  3.215869
  N     2.358310  1.206428  3.436992
  S     1.424715 -3.494120  1.856147
  S     1.525280  0.626677  2.125911
  S     4.489667 -3.286934 -0.791273
  S     4.484926  0.918056 -0.880598
  S     3.708911 -2.401506  3.149432
  S     4.055162  1.479870  3.224548
