16  
    
  C     9.796330 -0.074293  2.850389
  C     9.851963  3.554775  2.695721
  C     8.585256 -0.544657  2.195239
  C     8.582957  3.197045  2.127527
  N    10.700558  0.456866  2.010108
  N    10.858721  3.740060  1.845102
  N     8.623142 -0.589868  0.854889
  N     8.547530  3.315233  0.798120
  N     8.192299 -0.744404  4.758695
  N     8.164203  3.146954  4.585994
  S     7.303423 -0.974373  3.338736
  S     7.239918  2.876843  3.197402
  S    10.106668  0.136694  0.469705
  S    10.096672  3.674574  0.281089
  S     9.587189  0.137691  4.541994
  S     9.758406  3.622909  4.463235
