16  
    
  C     9.749080 -0.647274  2.728207
  C     9.614314  3.261496  2.623719
  C     8.489629 -1.014791  2.106581
  C     8.365420  3.125028  1.933545
  N    10.781770 -0.522281  1.828239
  N    10.632706  3.465032  1.805501
  N     8.497554 -1.095096  0.752614
  N     8.443303  3.101113  0.604726
  N     7.937400 -0.535553  4.582581
  N     7.816352  2.904109  4.417184
  S     7.152513 -0.949858  3.176753
  S     7.019450  2.997337  2.976512
  S    10.077582 -0.676520  0.323538
  S    10.060543  3.371984  0.191896
  S     9.599869 -0.351209  4.421691
  S     9.505161  3.214586  4.410997
