16  
    
  C     5.782889 -2.183995  2.033585
  C     5.847702  1.347599  1.872487
  C     4.566929 -2.657228  1.429725
  C     4.697248  0.877367  1.162622
  N     6.840791 -2.117652  1.258254
  N     6.916830  1.565770  1.123520
  N     4.710022 -2.755509  0.127071
  N     4.796797  0.843511 -0.149407
  N     4.034118 -2.326342  3.877498
  N     4.073631  0.864154  3.660719
  S     3.199278 -2.722919  2.544221
  S     3.369248  0.411593  2.200584
  S     6.268380 -2.369636 -0.251004
  S     6.384814  1.318276 -0.487502
  S     5.647821 -2.009203  3.776652
  S     5.603372  1.484044  3.574887
