16  
    
  C     3.450516 -3.086273  1.034607
  C     3.720505  0.573421  1.424546
  C     2.194157 -3.482177  0.451886
  C     2.544512  0.146043  0.699256
  N     4.444133 -2.849719  0.157032
  N     4.754472  0.834813  0.646975
  N     2.205547 -3.591142 -0.879012
  N     2.715410  0.032567 -0.612051
  N     1.674682 -3.291030  2.926559
  N     1.951766  0.340977  3.189773
  S     0.854390 -3.639459  1.517058
  S     1.151616  0.115740  1.757052
  S     3.828466 -3.369939 -1.328633
  S     4.261983  0.441708 -0.927667
  S     3.270851 -2.969858  2.820364
  S     3.550591  0.886558  3.098760
