16  
    
  C     7.057751 -1.670929  1.610265
  C     6.841714  2.089881  1.926738
  C     5.851590 -2.162667  1.026407
  C     5.618712  1.643271  1.330382
  N     8.104736 -1.605885  0.754638
  N     7.804286  2.405544  1.085961
  N     5.947579 -2.401295 -0.299684
  N     5.664419  1.460887  0.024872
  N     5.351259 -1.789800  3.548154
  N     5.165514  1.704147  3.864401
  S     4.582234 -2.387721  2.208199
  S     4.417200  1.119277  2.464648
  S     7.466426 -1.968155 -0.724654
  S     7.103163  2.075778 -0.460521
  S     6.982916 -1.577096  3.305379
  S     6.714569  2.236228  3.634497
