16  
    
  C     8.952707 -0.330410  2.583477
  C     8.614117  3.409387  2.568367
  C     7.714949 -0.662206  1.879430
  C     7.374278  2.850260  1.958952
  N     9.937606 -0.054788  1.755735
  N     9.500256  3.792838  1.654520
  N     7.798837 -0.746595  0.592958
  N     7.381309  2.863265  0.644575
  N     7.193363 -0.656811  4.398419
  N     7.014882  2.691667  4.458042
  S     6.395889 -0.919915  2.983493
  S     6.170924  2.303007  3.094873
  S     9.342318 -0.320320  0.201954
  S     8.873779  3.380679  0.145148
  S     8.788499 -0.182293  4.315455
  S     8.537927  3.286550  4.271157
