16  
    
  C     9.532607 -0.453178  2.755925
  C     9.350823  3.256934  2.537016
  C     8.319366 -0.776106  2.117491
  C     8.090614  3.024723  1.821728
  N    10.577243 -0.544638  1.961429
  N    10.436276  3.234529  1.777711
  N     8.427519 -1.048817  0.837525
  N     8.274229  2.916303  0.499681
  N     7.796238 -0.650394  4.638436
  N     7.556637  3.189192  4.396969
  S     6.979496 -1.018178  3.235738
  S     6.744746  2.972090  2.937060
  S    10.005395 -0.971943  0.455708
  S     9.933924  3.011243  0.246009
  S     9.399028 -0.407132  4.499492
  S     9.201674  3.496870  4.292386
