16  
    
  C     4.466107 -2.633580  1.559304
  C     5.165861  1.568181  1.630622
  C     3.227404 -2.814208  0.852602
  C     3.888828  1.228505  1.058186
  N     5.507140 -2.487348  0.732744
  N     6.160734  1.637298  0.744500
  N     3.312978 -2.870226 -0.495204
  N     3.895601  1.229630 -0.283381
  N     2.719193 -2.806890  3.331256
  N     3.514937  1.191872  3.651631
  S     1.893041 -2.864177  1.917791
  S     2.677120  0.899437  2.237638
  S     4.949428 -2.618441 -0.838026
  S     5.475161  1.388724 -0.753203
  S     4.387792 -2.621891  3.268179
  S     5.125145  1.441601  3.450156
