16  
    
  C    10.529495  0.599936  3.025180
  C    10.576420  4.657036  2.755183
  C     9.271197  0.099595  2.471214
  C     9.368123  3.989642  2.252517
  N    11.495701  0.860903  2.153775
  N    11.617434  4.597557  1.910979
  N     9.361166 -0.082587  1.174001
  N     9.514552  3.613738  0.958955
  N     8.760942  0.551827  4.950657
  N     8.849298  4.531148  4.721156
  S     8.006464 -0.214099  3.669342
  S     8.133259  3.684869  3.474488
  S    10.881484  0.350798  0.690976
  S    11.092072  3.975898  0.520626
  S    10.326691  1.071960  4.686314
  S    10.456677  4.887398  4.511300
