16  
    
  C     8.729785 -0.554992  2.382574
  C     8.570784  3.234845  2.589376
  C     7.565020 -1.006227  1.700922
  C     7.398422  2.723647  1.986805
  N     9.856003 -0.553630  1.625525
  N     9.579177  3.495195  1.736535
  N     7.734808 -1.305170  0.396445
  N     7.500476  2.461291  0.680840
  N     6.840424 -0.814735  4.170912
  N     6.801053  2.776086  4.510642
  S     6.153839 -0.947323  2.655294
  S     6.015988  2.436140  3.033712
  S     9.362209 -1.073520  0.102971
  S     8.997477  3.016722  0.204270
  S     8.411043 -0.370124  4.145987
  S     8.438292  3.245845  4.359556
