16  
    
  C     9.984646 -0.100094  2.768059
  C     9.774794  3.850890  2.844462
  C     8.796040 -0.581943  2.037136
  C     8.733265  3.100065  2.142141
  N    11.004161  0.146560  1.948434
  N    10.770701  4.209198  2.057535
  N     9.061764 -0.786627  0.773723
  N     9.015911  2.928900  0.836623
  N     8.022521 -0.393498  4.465624
  N     7.856831  3.650441  4.573135
  S     7.383300 -0.946277  3.023252
  S     7.227340  3.131997  3.129543
  S    10.561735 -0.249376  0.396175
  S    10.411135  3.685294  0.533734
  S     9.644858  0.076692  4.494216
  S     9.393349  4.300617  4.432500
