16  
    
  C     7.308030 -1.455153  2.217590
  C     7.664290  2.719224  2.250369
  C     6.240918 -2.186986  1.511355
  C     6.456002  2.344117  1.616670
  N     8.275362 -1.030792  1.444505
  N     8.657670  3.025007  1.408231
  N     6.349539 -2.112722  0.206721
  N     6.599622  2.259191  0.290135
  N     5.521228 -2.100425  3.931649
  N     5.930060  2.266269  4.185689
  S     4.862175 -2.600657  2.449127
  S     5.126058  1.980844  2.756425
  S     7.777114 -1.371607 -0.102845
  S     8.098648  2.623150 -0.109412
  S     7.037785 -1.420316  3.918411
  S     7.520502  2.825481  3.951641
