16  
    
  C     6.066651 -1.511046  2.467845
  C     6.587900  2.173282  2.210379
  C     5.071040 -2.314585  1.797185
  C     5.344800  1.736774  1.604879
  N     7.068862 -1.151940  1.640310
  N     7.595478  2.386108  1.387754
  N     5.219814 -2.427983  0.443870
  N     5.384239  1.592245  0.293497
  N     4.493399 -2.402803  4.303765
  N     4.982278  1.659548  4.189949
  S     3.760025 -2.751402  2.843066
  S     4.136856  1.409979  2.760546
  S     6.650860 -1.733582  0.161641
  S     7.011790  1.970158 -0.166715
  S     5.896238 -1.475762  4.153295
  S     6.548239  2.250804  3.950300
