16  
    
  C     6.729678 -1.863150  1.788446
  C     6.586456  2.240025  2.048477
  C     5.421455 -2.086462  1.195515
  C     5.503826  1.498894  1.489617
  N     7.725249 -1.600951  0.957046
  N     7.544860  2.663515  1.215804
  N     5.514695 -2.170199 -0.125463
  N     5.570035  1.322134  0.189115
  N     5.076475 -2.190519  3.731164
  N     5.077562  1.508696  3.955222
  S     4.197200 -2.504764  2.379593
  S     4.236961  1.093233  2.583027
  S     7.043734 -1.798261 -0.550164
  S     6.984999  2.097885 -0.325562
  S     6.676138 -1.778557  3.513331
  S     6.456842  2.359133  3.767627
