16  
    
  C     8.351638 -0.884801  2.458789
  C     8.100545  2.668697  2.319621
  C     7.123891 -1.555797  2.039601
  C     6.966071  2.223912  1.586841
  N     9.308704 -0.897036  1.536229
  N     9.180303  2.856511  1.570694
  N     7.122548 -2.012097  0.770326
  N     7.233393  1.981772  0.305130
  N     6.848092 -0.706758  4.462977
  N     6.245409  2.822404  3.934253
  S     5.924902 -1.386347  3.244166
  S     5.607037  2.053291  2.633230
  S     8.636555 -1.606088  0.217477
  S     8.775134  2.441831 -0.003341
  S     8.436598 -0.440822  4.132247
  S     7.873835  3.075093  3.983164
