16  
    
  C     3.463601 -3.098078  1.026438
  C     3.873789  0.723834  1.451561
  C     2.216603 -3.514610  0.426069
  C     2.656006  0.370644  0.769594
  N     4.518653 -3.053364  0.215443
  N     4.909518  0.855634  0.632084
  N     2.329701 -3.777062 -0.871284
  N     2.787241  0.098673 -0.539390
  N     1.764922 -3.006136  2.905496
  N     2.083926  0.402899  3.291783
  S     1.013014 -3.817314  1.654062
  S     1.290749 -0.017033  1.897726
  S     3.909749 -3.335000 -1.284458
  S     4.334622  0.493461 -0.940860
  S     3.344055 -2.637990  2.656232
  S     3.608008  1.004506  3.155422
