16  
    
  C    12.970317  1.816224  3.706432
  C    12.972966  5.535446  3.662598
  C    11.622848  1.492971  3.119721
  C    11.742257  5.021868  3.198704
  N    13.931255  1.897517  2.782092
  N    13.899983  5.528199  2.713836
  N    11.691183  1.219978  1.843115
  N    11.688831  4.654157  1.954606
  N    11.238381  1.510983  5.676637
  N    11.259618  5.590904  5.727085
  S    10.383464  1.258703  4.244979
  S    10.384605  5.049419  4.312925
  S    13.255326  1.468631  1.306194
  S    13.188161  4.950587  1.351233
  S    12.893131  1.872087  5.455071
  S    12.883335  5.937301  5.379760
