16  
    
  C     6.031734 -2.251532  1.749608
  C     6.063353  1.593429  1.826252
  C     4.765727 -2.533054  1.127287
  C     4.766395  1.766383  1.237799
  N     7.077447 -2.266179  0.935067
  N     7.082633  1.422110  1.004807
  N     4.894874 -2.789455 -0.184938
  N     4.713833  1.637567 -0.075879
  N     4.266396 -2.110986  3.585348
  N     4.469525  2.127145  3.772338
  S     3.440791 -2.456824  2.236987
  S     3.540753  1.943019  2.412638
  S     6.446754 -2.499641 -0.566296
  S     6.383393  1.475533 -0.546797
  S     5.884272 -2.040802  3.500509
  S     6.080641  1.898222  3.565376
