16  
    
  C     6.062430 -2.119027  1.706314
  C     6.162361  1.767358  1.834232
  C     4.816608 -2.513425  1.106756
  C     4.852974  1.843125  1.207961
  N     7.149134 -2.141676  0.900207
  N     7.190928  1.657243  0.997714
  N     4.945216 -2.587442 -0.217610
  N     4.882409  1.741594 -0.115585
  N     4.287987 -2.129726  3.621678
  N     4.408756  1.863328  3.718557
  S     3.444463 -2.502914  2.203033
  S     3.518131  1.967991  2.302346
  S     6.523054 -2.550368 -0.572031
  S     6.506986  1.510130 -0.546405
  S     5.946729 -1.844325  3.457518
  S     6.062228  1.868598  3.556580
