16  
    
  C     8.433261 -0.986964  2.456875
  C     8.255802  2.352847  2.101986
  C     7.202880 -1.242311  1.721103
  C     7.146216  1.858446  1.333765
  N     9.527283 -0.876591  1.703259
  N     9.345325  2.647399  1.426887
  N     7.370529 -1.329220  0.406484
  N     7.452670  1.773174  0.040536
  N     6.507453 -0.969365  4.138640
  N     6.218305  2.260463  3.689284
  S     5.744733 -0.983035  2.682394
  S     5.676762  1.689120  2.241219
  S     8.991708 -1.099143  0.140823
  S     8.944613  2.356331 -0.214426
  S     8.183430 -0.708664  4.123640
  S     7.883485  2.490264  3.709639
