16  
    
  C     6.215776 -1.763807  2.337490
  C     6.614298  2.107317  2.195634
  C     5.015762 -2.146310  1.660996
  C     5.410347  1.555791  1.599456
  N     7.161214 -1.302028  1.546550
  N     7.532369  2.484708  1.298211
  N     5.117039 -2.176403  0.334575
  N     5.485012  1.512395  0.250894
  N     4.483025 -2.022840  4.143515
  N     4.940897  1.697040  4.116208
  S     3.738597 -2.551538  2.741096
  S     4.176084  1.230485  2.755477
  S     6.670880 -1.590426  0.021694
  S     6.913209  2.111180 -0.178582
  S     6.059886 -1.688083  4.048911
  S     6.505347  2.268262  3.979482
