16  
    
  C     6.303981 -1.625286  1.786393
  C     6.439064  2.206806  2.012597
  C     5.151003 -2.141101  1.081017
  C     5.246427  1.604328  1.355274
  N     7.367769 -1.459051  0.962807
  N     7.482608  2.346876  1.240415
  N     5.400094 -2.546352 -0.197202
  N     5.426864  1.288532  0.084860
  N     4.560926 -2.111777  3.584869
  N     4.673405  1.883706  3.834166
  S     3.840774 -2.584777  2.183299
  S     3.915201  1.344007  2.457853
  S     6.895012 -2.001924 -0.543983
  S     7.040629  1.811022 -0.320803
  S     6.041385 -1.468661  3.514926
  S     6.206475  2.553271  3.678555
