16  
    
  C     7.218263 -1.346964  2.211878
  C     7.372594  2.132885  2.121040
  C     6.050102 -1.976794  1.650369
  C     6.169251  1.567963  1.562513
  N     8.254845 -1.299879  1.385960
  N     8.333434  2.338249  1.236937
  N     6.131330 -2.202987  0.342594
  N     6.289654  1.326203  0.263837
  N     5.450806 -1.406094  4.092422
  N     5.588081  2.054841  4.033186
  S     4.746016 -2.098531  2.784923
  S     4.841212  1.639211  2.630955
  S     7.738199 -1.905040 -0.075073
  S     7.747169  1.783969 -0.183929
  S     7.021787 -0.901702  3.845047
  S     7.204080  2.505506  3.822218
