16  
    
  C     9.983069 -0.108787  2.770303
  C     9.780311  3.860637  2.832159
  C     8.787368 -0.577317  2.045796
  C     8.753119  3.077732  2.159500
  N    11.018464  0.165529  1.944641
  N    10.779697  4.224704  2.046914
  N     9.065140 -0.785245  0.767973
  N     9.034541  2.913276  0.848961
  N     8.037150 -0.390529  4.472280
  N     7.866276  3.658942  4.572126
  S     7.384241 -0.950123  3.025459
  S     7.226767  3.117951  3.140109
  S    10.565656 -0.244487  0.392471
  S    10.426614  3.682813  0.543936
  S     9.651530  0.078610  4.481023
  S     9.393210  4.305554  4.424631
