16  
    
  C     9.143591 -0.500771  2.499906
  C     9.604636  3.536064  2.717504
  C     7.963353 -0.831384  1.729896
  C     8.270407  3.238154  2.137992
  N    10.244823 -0.464631  1.746944
  N    10.649647  3.272428  1.905409
  N     8.181240 -1.130443  0.466613
  N     8.388362  2.868603  0.878097
  N     7.119902 -0.681587  4.190893
  N     7.829300  3.693007  4.625130
  S     6.525993 -1.106473  2.709779
  S     6.908813  3.395252  3.260160
  S     9.776146 -0.945264  0.222978
  S     9.966479  2.876018  0.429894
  S     8.730042 -0.294383  4.176499
  S     9.468695  4.055644  4.386992
