16  
    
  C     5.938993 -2.184584  1.799138
  C     6.071271  1.726444  1.869200
  C     4.667438 -2.428856  1.130772
  C     4.710363  1.659368  1.362513
  N     6.987113 -2.275865  1.027063
  N     7.016672  1.436478  0.960091
  N     4.736047 -2.608255 -0.166605
  N     4.691222  1.349669  0.055613
  N     4.089663 -2.260463  3.704568
  N     4.538626  2.147333  3.922492
  S     3.324554 -2.580375  2.235521
  S     3.587994  2.079206  2.557351
  S     6.413895 -2.440798 -0.541745
  S     6.220416  1.200006 -0.441845
  S     5.796451 -2.078494  3.513556
  S     6.158283  1.939361  3.617211
