16  
    
  C     4.716214 -1.971776  1.903619
  C     4.165147  1.147252  1.295017
  C     3.543940 -2.471632  1.232279
  C     2.926170  0.800426  0.570685
  N     5.817689 -1.959064  1.130713
  N     5.249333  1.162525  0.513583
  N     3.717323 -2.788362 -0.062348
  N     3.051614  0.777771 -0.770782
  N     2.864949 -2.205916  3.690263
  N     2.314335  1.185406  3.017956
  S     2.157345 -2.643834  2.256342
  S     1.533344  0.597469  1.665329
  S     5.292045 -2.342002 -0.457039
  S     4.684616  1.064240 -1.055216
  S     4.456577 -1.742988  3.587820
  S     3.978441  1.267959  3.036437
