16  
    
  C    12.143915  1.440995  3.423136
  C    12.089984  5.018198  3.788906
  C    10.998257  0.856189  2.840811
  C    10.823769  4.662478  3.236859
  N    13.151951  1.843775  2.637897
  N    13.006889  5.385101  2.910208
  N    11.096192  0.771902  1.534257
  N    10.871929  4.618610  1.859268
  N    10.292660  1.111058  5.239583
  N    10.613077  4.678117  5.801104
  S     9.649717  0.407529  3.875714
  S     9.681556  4.399232  4.476538
  S    12.573566  1.359263  1.081035
  S    12.391013  5.194723  1.421667
  S    11.823424  1.761204  5.086872
  S    12.202151  5.064877  5.544477
