16  
    
  C     3.443305 -3.067734  1.053120
  C     3.728710  0.619756  1.430772
  C     2.214607 -3.502103  0.454578
  C     2.596200  0.143590  0.721244
  N     4.453811 -2.887905  0.159611
  N     4.772030  0.824245  0.644112
  N     2.203729 -3.619628 -0.886233
  N     2.701871  0.057379 -0.600724
  N     1.683359 -3.251398  2.908854
  N     1.947173  0.333766  3.220574
  S     0.868685 -3.672470  1.511802
  S     1.192664  0.105215  1.774042
  S     3.823819 -3.375113 -1.323928
  S     4.275118  0.445246 -0.916337
  S     3.311214 -2.910592  2.796833
  S     3.559171  0.903680  3.084988
