16  
    
  C    11.634910  1.139393  3.005529
  C    11.829474  5.171345  3.056371
  C    10.349832  0.799259  2.367194
  C    10.672338  4.393209  2.596814
  N    12.617040  1.250126  2.109697
  N    12.806760  5.212066  2.186354
  N    10.414805  0.544837  1.054291
  N    10.800464  3.996419  1.335539
  N    10.095490  0.607288  4.986760
  N    10.271337  4.820273  5.054193
  S     9.174042  0.391291  3.620445
  S     9.480563  4.187544  3.726941
  S    12.000929  0.891232  0.620866
  S    12.344312  4.413186  0.872304
  S    11.591776  1.262695  4.668187
  S    11.742874  5.554552  4.802199
