16  
    
  C     8.908082 -0.273913  2.555936
  C     8.562419  3.298481  2.517545
  C     7.711793 -0.739955  1.890837
  C     7.351982  2.772889  1.931237
  N     9.936691 -0.080067  1.759712
  N     9.506920  3.697957  1.665124
  N     7.770310 -0.706024  0.600732
  N     7.405597  2.789581  0.611641
  N     7.206068 -0.722436  4.441530
  N     6.918758  2.707052  4.464010
  S     6.367518 -0.898158  3.014749
  S     6.113627  2.162374  3.075091
  S     9.324999 -0.237298  0.246527
  S     8.897951  3.356158  0.173570
  S     8.750599 -0.157768  4.208924
  S     8.457386  3.347133  4.239904
