16  
    
  C     7.628881 -1.204034  1.884786
  C     7.668626  2.865286  2.188908
  C     6.339804 -1.581991  1.277145
  C     6.511911  2.344683  1.582361
  N     8.546138 -0.988182  0.979725
  N     8.677624  3.033930  1.340170
  N     6.339601 -1.677410 -0.045554
  N     6.704096  2.031696  0.271612
  N     5.926360 -1.142778  3.769749
  N     5.943664  2.630593  4.111204
  S     5.036476 -1.706731  2.425929
  S     5.216579  2.203530  2.662186
  S     7.861453 -1.239659 -0.506401
  S     8.178390  2.456122 -0.147335
  S     7.579243 -0.851396  3.579693
  S     7.506108  3.281799  3.887576
