16  
    
  C    12.953075  1.893049  3.647676
  C    12.976598  5.576211  3.667823
  C    11.706563  1.510057  3.158459
  C    11.703941  5.025589  3.170345
  N    13.971075  1.967039  2.771585
  N    13.949111  5.558750  2.737307
  N    11.686462  1.255841  1.843758
  N    11.682925  4.632835  1.857497
  N    11.301704  1.503592  5.661232
  N    11.236608  5.563410  5.653160
  S    10.385990  1.279346  4.259889
  S    10.421365  5.069983  4.287603
  S    13.263223  1.465982  1.333572
  S    13.203058  4.974011  1.313530
  S    12.902791  1.847930  5.424272
  S    12.890800  5.876104  5.398280
