16  
    
  C    12.829398  1.611165  3.281133
  C    12.449264  5.202922  3.255602
  C    11.549953  1.107852  2.812205
  C    11.269916  4.725623  2.641223
  N    13.802049  1.807866  2.370658
  N    13.475311  5.386850  2.450590
  N    11.575802  1.052377  1.495843
  N    11.363565  4.646226  1.278861
  N    11.220695  1.438525  5.314972
  N    10.832062  4.816860  5.177936
  S    10.319178  0.904300  4.027078
  S     9.939200  4.454361  3.853958
  S    13.121303  1.418470  0.943399
  S    12.914361  5.161362  0.927875
  S    12.801240  1.853985  5.017094
  S    12.380506  5.397015  4.981640
