16  
    
  C    11.930292  1.204963  3.371590
  C    11.847572  4.901979  3.463312
  C    10.729788  0.722428  2.664186
  C    10.680703  4.420185  2.736220
  N    13.002131  1.251698  2.591636
  N    12.955025  4.990236  2.708936
  N    10.919655  0.475324  1.361075
  N    10.898220  4.237151  1.457381
  N     9.990406  1.195226  5.119768
  N     9.945248  4.846008  5.203912
  S     9.398752  0.450217  3.732809
  S     9.295161  4.414376  3.765890
  S    12.505331  0.771262  1.092449
  S    12.459882  4.590888  1.141480
  S    11.627621  1.606517  5.014671
  S    11.588126  5.133330  5.225463
