16  
    
  C     8.976034 -0.189886  2.356225
  C     9.466460  3.221744  2.718342
  C     7.876410 -0.908953  1.844797
  C     8.163171  2.930181  2.113398
  N    10.054629 -0.231699  1.531595
  N    10.495549  3.186733  1.830820
  N     8.018112 -1.333922  0.545686
  N     8.195385  2.635483  0.804126
  N     7.230070 -0.377279  4.267695
  N     7.678893  3.271046  4.656717
  S     6.550392 -1.122444  2.973974
  S     6.908135  2.876665  3.238787
  S     9.584688 -0.952583  0.105304
  S     9.810048  2.721435  0.398778
  S     8.836052  0.160227  4.042898
  S     9.288187  3.645127  4.421123
