16  
    
  C     5.918528 -2.146809  1.935580
  C     5.648605  1.358687  1.738305
  C     4.659224 -2.466118  1.299467
  C     4.509933  0.777313  1.108877
  N     6.936086 -2.160752  1.094912
  N     6.696307  1.472097  0.941892
  N     4.669509 -2.597095 -0.021408
  N     4.713552  0.455727 -0.168193
  N     4.203763 -2.488998  3.823015
  N     3.887711  1.143373  3.559855
  S     3.297983 -2.604890  2.444682
  S     3.158343  0.643486  2.170813
  S     6.222626 -2.286950 -0.470595
  S     6.240337  0.930352 -0.524670
  S     5.809039 -2.135043  3.693396
  S     5.556938  1.342439  3.483760
