16  
    
  C    10.156394  0.391602  2.824308
  C    10.679034  4.318826  2.795438
  C     8.936821 -0.069229  2.193959
  C     9.538048  3.761364  2.126983
  N    11.100990  0.784523  1.973417
  N    11.728689  4.526936  2.014777
  N     8.990397 -0.185904  0.854229
  N     9.684969  3.679936  0.796007
  N     8.562973 -0.040087  4.744798
  N     8.994522  3.956494  4.655413
  S     7.715285 -0.414018  3.358459
  S     8.142305  3.710636  3.238355
  S    10.517012  0.456052  0.452779
  S    11.193748  4.189667  0.450992
  S    10.010077  0.755654  4.508655
  S    10.593978  4.521786  4.499048
