16  
    
  C    12.612840  1.536760  3.620935
  C    12.376385  5.204556  3.447793
  C    11.340698  1.065918  3.008875
  C    11.119937  4.776019  2.835904
  N    13.513921  1.791508  2.695394
  N    13.338902  5.352060  2.539101
  N    11.400465  0.858663  1.695496
  N    11.139059  4.549362  1.558890
  N    10.816485  1.431870  5.528766
  N    10.681434  4.897150  5.379112
  S    10.060881  0.748777  4.132349
  S     9.854638  4.638813  3.988382
  S    12.862298  1.399663  1.241516
  S    12.757221  4.878308  1.091713
  S    12.454391  1.744837  5.274810
  S    12.231457  5.484160  5.223722
