16  
    
  C     4.249526 -2.695486  1.571743
  C     4.217905  1.191102  1.728265
  C     3.012145 -3.276093  1.092169
  C     2.870239  1.120867  1.132117
  N     5.256059 -2.597751  0.672836
  N     5.236458  0.997381  0.898567
  N     3.020269 -3.489311 -0.236035
  N     2.966751  1.087696 -0.190498
  N     2.548126 -2.501365  3.530553
  N     2.537758  1.332277  3.682025
  S     1.761486 -3.269419  2.292521
  S     1.609515  1.423970  2.268078
  S     4.635072 -3.189551 -0.773571
  S     4.509779  0.865530 -0.645115
  S     4.117427 -2.110435  3.208547
  S     4.192679  1.549419  3.459724
