16  
    
  C    12.094395  1.614486  3.374779
  C    12.284371  5.336412  3.548083
  C    11.013453  1.030043  2.650619
  C    11.128966  4.726865  2.841185
  N    13.210209  1.785322  2.650705
  N    13.308263  5.577917  2.761798
  N    11.265001  0.805591  1.380775
  N    11.421984  4.371994  1.589088
  N    10.143572  1.204640  5.110300
  N    10.320623  5.125023  5.240237
  S     9.578490  0.523619  3.628831
  S     9.778744  4.524999  3.816888
  S    12.843620  1.249262  1.100916
  S    12.920031  4.827977  1.293753
  S    11.736626  1.778443  5.081516
  S    11.925628  5.626377  5.311095
