16  
    
  C     3.526543 -3.105291  1.045199
  C     3.858897  0.817285  1.434410
  C     2.337139 -3.637637  0.490026
  C     2.651002  0.291483  0.814047
  N     4.593804 -2.956959  0.202609
  N     4.926457  0.926724  0.634124
  N     2.391078 -3.728441 -0.855650
  N     2.795241  0.177096 -0.503253
  N     1.750315 -2.939207  2.939425
  N     2.122087  0.454756  3.335367
  S     1.078495 -3.844245  1.760896
  S     1.371941 -0.031463  1.919714
  S     4.006325 -3.379842 -1.294028
  S     4.383528  0.529850 -0.909566
  S     3.330719 -2.503506  2.662110
  S     3.719078  1.071567  3.192788
