16  
    
  C     6.225426 -1.634431  2.130769
  C     6.588072  2.074121  2.116638
  C     5.174267 -2.407210  1.476446
  C     5.315905  1.673034  1.493887
  N     7.298274 -1.392385  1.369612
  N     7.608229  2.285147  1.291491
  N     5.417120 -2.560999  0.173979
  N     5.434659  1.438501  0.202867
  N     4.343881 -2.044478  3.933001
  N     4.790832  1.937008  3.984665
  S     3.802744 -2.840356  2.506852
  S     4.000924  1.506348  2.600144
  S     6.820370 -1.819226 -0.161341
  S     6.994984  1.969976 -0.256647
  S     5.950711 -1.551607  3.899633
  S     6.418513  2.307234  3.808556
