16  
    
  C     7.213796 -1.646079  2.227339
  C     7.517424  2.270308  2.211260
  C     6.038215 -2.171483  1.618010
  C     6.291935  1.783342  1.598991
  N     8.327349 -1.546602  1.453865
  N     8.541746  2.337024  1.371970
  N     6.217315 -2.386932  0.291079
  N     6.373119  1.359335  0.348199
  N     5.396355 -1.502121  4.070416
  N     5.731074  2.130342  4.136668
  S     4.703105 -2.228932  2.720487
  S     4.974261  1.659933  2.686083
  S     7.773847 -1.931265 -0.054519
  S     7.989197  1.788792 -0.123033
  S     7.043016 -1.383914  3.965144
  S     7.314100  2.669179  3.907119
