16  
    
  C     6.122896 -2.120370  1.748104
  C     6.184021  1.800414  1.842764
  C     4.846160 -2.404076  1.098889
  C     4.896706  1.875099  1.161491
  N     7.126337 -2.081373  0.900935
  N     7.223440  1.749015  1.022517
  N     4.927996 -2.573652 -0.218561
  N     4.904296  1.719952 -0.152128
  N     4.321901 -2.121536  3.541201
  N     4.407491  1.782773  3.691193
  S     3.482693 -2.511016  2.205770
  S     3.568352  1.985327  2.273977
  S     6.556724 -2.541752 -0.592387
  S     6.559838  1.545818 -0.526045
  S     5.926916 -1.761813  3.436812
  S     6.045726  1.862118  3.570964
