16  
    
  C    12.877290  1.577807  3.313038
  C    12.454651  5.200754  3.280404
  C    11.544432  1.110108  2.801694
  C    11.280262  4.707538  2.625736
  N    13.770109  1.790162  2.384629
  N    13.469310  5.359921  2.435165
  N    11.606306  1.030022  1.483772
  N    11.355382  4.637755  1.326631
  N    11.232634  1.407574  5.333611
  N    10.803148  4.846431  5.162648
  S    10.313493  0.921309  4.017762
  S     9.913497  4.454580  3.832508
  S    13.121131  1.396947  0.933655
  S    12.923379  5.163304  0.934571
  S    12.829747  1.900996  5.020145
  S    12.332762  5.357858  4.983891
