16  
    
  C     8.398376 -0.980457  2.491642
  C     8.143017  2.630668  2.294340
  C     7.132668 -1.509052  2.038749
  C     6.976932  2.128558  1.552871
  N     9.299767 -0.855867  1.540743
  N     9.198949  2.820133  1.561812
  N     7.124468 -2.025884  0.827391
  N     7.175867  1.983853  0.250282
  N     6.865200 -0.692300  4.445883
  N     6.221011  2.843728  3.971886
  S     5.942739 -1.379109  3.229758
  S     5.581169  2.051885  2.573458
  S     8.609010 -1.602550  0.237261
  S     8.809239  2.409788 -0.035648
  S     8.442314 -0.447568  4.105167
  S     7.899018  3.027576  3.978309
