16  
    
  C    12.684792  1.551277  3.426552
  C    12.636740  5.326478  3.224001
  C    11.444650  1.202440  2.768084
  C    11.465174  4.766469  2.714340
  N    13.624985  1.932121  2.537806
  N    13.566632  5.628727  2.304243
  N    11.517009  1.180518  1.420929
  N    11.462509  4.645167  1.363714
  N    10.971744  1.108097  5.333629
  N    11.144000  4.983679  5.283387
  S    10.151636  0.898366  3.889392
  S    10.299188  4.450775  3.953420
  S    13.005357  1.745626  1.025601
  S    12.964626  5.226093  0.873221
  S    12.546764  1.650785  5.075497
  S    12.699070  5.530429  4.989884
