16  
    
  C    10.317009  0.377347  2.592624
  C    10.466811  4.237139  3.041885
  C     9.122982 -0.133079  1.898410
  C     9.241731  3.673784  2.476733
  N    11.385693  0.371112  1.766008
  N    11.435521  4.259814  2.121668
  N     9.357469 -0.642392  0.656413
  N     9.245171  3.380719  1.171584
  N     8.349978  0.527982  4.225958
  N     8.708766  4.457382  4.921479
  S     7.743616 -0.224336  2.904079
  S     7.970580  3.914372  3.509885
  S    10.913348 -0.338163  0.360425
  S    10.822508  3.683705  0.724430
  S     9.988679  0.967880  4.216899
  S    10.397792  4.630038  4.791305
