16  
    
  C     8.373407 -0.987717  2.517471
  C     8.178350  2.646226  2.127961
  C     7.125274 -1.346277  1.972721
  C     7.037868  2.182809  1.359519
  N     9.340886 -0.972991  1.574056
  N     9.316059  2.639906  1.393531
  N     7.137629 -1.797081  0.689307
  N     7.253332  1.913210  0.052206
  N     6.743893 -0.660208  4.404233
  N     6.279353  2.209876  3.896912
  S     5.906953 -1.314035  3.160996
  S     5.613701  2.065900  2.331962
  S     8.697814 -1.491316  0.171614
  S     8.917384  2.195364 -0.086439
  S     8.375243 -0.413855  4.142687
  S     7.912825  2.771329  3.877745
