16  
    
  C     7.310658 -1.013761  2.052878
  C     7.725594  2.807598  2.129066
  C     6.148866 -1.513372  1.374352
  C     6.479394  2.264460  1.572345
  N     8.338587 -0.946127  1.238744
  N     8.703305  2.933487  1.271218
  N     6.221185 -1.626298  0.058554
  N     6.480672  1.977613  0.278089
  N     5.690232 -1.569844  3.851777
  N     6.025375  2.789248  4.093582
  S     4.830925 -1.924993  2.426498
  S     5.259548  2.075342  2.792230
  S     7.825117 -1.327051 -0.283054
  S     8.117217  2.447713 -0.193244
  S     7.280483 -1.106465  3.767863
  S     7.565110  3.202503  3.890698
