16  
    
  C     7.364108 -1.595790  2.201340
  C     7.472343  2.378976  2.131117
  C     6.183335 -2.070612  1.508871
  C     6.213454  2.057547  1.525491
  N     8.361295 -1.331460  1.348801
  N     8.457328  2.533417  1.262517
  N     6.248265 -2.138900  0.162605
  N     6.342316  1.879626  0.209116
  N     5.583946 -2.077345  4.038506
  N     5.895738  2.056206  4.134441
  S     4.807240 -2.427993  2.556664
  S     4.984339  1.848719  2.728654
  S     7.767144 -1.612929 -0.208330
  S     7.801852  2.336938 -0.247047
  S     7.171895 -1.681365  3.919769
  S     7.419276  2.704049  3.837611
