16  
    
  C    10.969191  0.662995  3.279816
  C    11.235005  4.225289  3.201268
  C     9.836512  0.200276  2.552149
  C     9.993733  3.777790  2.604803
  N    12.036483  0.827660  2.522513
  N    12.204165  4.391465  2.291606
  N    10.033645  0.107740  1.248267
  N     9.980526  3.770491  1.284913
  N     9.260155 -0.060394  5.052014
  N     9.577662  3.782961  5.147099
  S     8.554314 -0.292063  3.558823
  S     8.710242  3.474553  3.770622
  S    11.598081  0.540786  0.946235
  S    11.499353  4.148841  0.775515
  S    10.748652  0.674204  5.054925
  S    11.136223  4.338803  4.956090
