16  
    
  C    12.754563  1.462706  3.728061
  C    12.335246  5.027532  3.463964
  C    11.509332  1.287421  3.004142
  C    11.186852  4.449932  2.730880
  N    13.792991  1.554360  2.920467
  N    13.457885  5.202416  2.685637
  N    11.579964  1.202771  1.674718
  N    11.415997  4.311849  1.462734
  N    10.924565  1.868512  5.444735
  N    10.423938  4.508045  5.118766
  S    10.132086  1.379996  4.063838
  S     9.766239  4.201575  3.684974
  S    13.181451  1.343974  1.313691
  S    12.964316  4.797573  1.122801
  S    12.604135  1.880570  5.428539
  S    11.945934  5.119531  5.148213
