16  
    
  C    11.354571  0.424711  3.042657
  C    11.069480  4.477873  3.492451
  C    10.242340 -0.069240  2.287859
  C     9.815015  4.167204  2.886601
  N    12.485785  0.664633  2.312983
  N    12.081537  4.423909  2.628629
  N    10.558383 -0.381819  1.013299
  N     9.826419  3.968685  1.580510
  N     9.300942  0.395628  4.677484
  N     9.389203  4.561136  5.468809
  S     8.806777 -0.376012  3.272941
  S     8.520236  4.290850  4.083839
  S    12.125563  0.106158  0.798420
  S    11.420521  4.038678  1.117672
  S    10.886174  0.868056  4.684120
  S    11.034130  4.728065  5.239264
