16  
    
  C     5.656581 -2.051971  2.049234
  C     5.847067  1.742597  2.006414
  C     4.512772 -2.628437  1.372444
  C     4.734552  1.225877  1.314804
  N     6.693934 -1.875154  1.260229
  N     6.902552  1.987605  1.239639
  N     4.736070 -3.044792  0.135002
  N     4.921309  1.093997  0.008327
  N     3.923081 -2.457691  3.968795
  N     4.190332  1.149196  3.844584
  S     3.184671 -3.018472  2.528511
  S     3.398862  0.898661  2.377059
  S     6.221241 -2.426175 -0.239699
  S     6.448305  1.627445 -0.307545
  S     5.510663 -1.772403  3.728767
  S     5.754219  1.704585  3.761216
