16  
    
  C    11.035298  0.524384  3.204226
  C    11.144737  4.144033  3.050659
  C     9.902345 -0.086101  2.573934
  C     9.918671  3.771554  2.446600
  N    12.089241  0.859596  2.437806
  N    12.168265  4.366964  2.238468
  N    10.011874 -0.060666  1.248406
  N    10.013387  3.669403  1.114370
  N     9.331120  0.033141  5.090740
  N     9.447732  3.947326  4.982807
  S     8.503443 -0.219902  3.640101
  S     8.663166  3.409165  3.611123
  S    11.570982  0.514946  0.873524
  S    11.615239  4.104120  0.766565
  S    10.860891  0.693054  4.890337
  S    11.016236  4.464778  4.756875
