16  
    
  C    11.261694  0.412210  3.027972
  C    11.138989  4.478360  3.388740
  C    10.096415 -0.145171  2.346387
  C     9.858213  4.202898  2.780641
  N    12.260114  0.673004  2.217034
  N    12.146287  4.317170  2.534025
  N    10.294453 -0.456952  1.070378
  N     9.875350  3.939987  1.498960
  N     9.444829  0.382078  4.786682
  N     9.479808  4.055986  5.291886
  S     8.735128 -0.326230  3.423255
  S     8.549141  4.328565  3.961099
  S    11.822949  0.084537  0.748608
  S    11.467761  4.044812  1.048974
  S    10.980954  1.079181  4.642258
  S    11.076360  4.575990  5.100622
