16  
    
  C     9.984578 -0.059022  2.692393
  C     9.825984  3.932841  2.808703
  C     8.854236 -0.643973  2.003491
  C     8.806457  3.072985  2.211560
  N    11.019862  0.243610  1.976724
  N    10.822387  4.359689  2.035335
  N     9.007715 -0.743085  0.718835
  N     9.105614  2.750802  0.961670
  N     8.111691 -0.359630  4.473156
  N     7.907978  3.706006  4.543465
  S     7.446152 -0.954843  3.087255
  S     7.312210  2.959732  3.192547
  S    10.575065 -0.211986  0.414089
  S    10.547264  3.616870  0.564580
  S     9.701392  0.083943  4.376282
  S     9.422923  4.363885  4.418101
