16  
    
  C     8.852211 -0.240232  2.562225
  C     8.551352  3.168136  2.566873
  C     7.660016 -0.687309  1.895565
  C     7.364847  2.608720  1.865620
  N     9.819206  0.024426  1.702084
  N     9.518991  3.512895  1.701929
  N     7.704624 -0.647668  0.542566
  N     7.453045  2.542599  0.521669
  N     7.169509 -0.732663  4.423961
  N     6.762362  2.851048  4.376126
  S     6.349862 -0.931284  3.027331
  S     6.152302  2.133967  3.009013
  S     9.281996 -0.179112  0.105425
  S     8.957802  3.215873  0.209594
  S     8.706955 -0.153769  4.340419
  S     8.320337  3.367688  4.284056
