16  
    
  C    10.265595  0.596754  2.987497
  C    10.636740  4.556476  2.874794
  C     9.118026  0.006322  2.355031
  C     9.400867  4.133068  2.266323
  N    11.181754  1.009955  2.152913
  N    11.613243  4.792850  2.034722
  N     9.323279 -0.196558  1.064868
  N     9.423951  4.128778  0.925622
  N     8.716276  0.065654  4.945729
  N     9.092773  3.946299  4.817292
  S     7.971951 -0.468336  3.546453
  S     8.163143  3.939698  3.445593
  S    10.735187  0.516790  0.649908
  S    11.031967  4.456590  0.505190
  S    10.270652  0.625551  4.735268
  S    10.702189  4.367321  4.616502
