16  
    
  C     4.737072 -2.511974  1.620464
  C     5.084189  1.393623  1.869846
  C     3.489997 -2.698934  0.945432
  C     3.850660  0.995267  1.250242
  N     5.795369 -2.619555  0.824744
  N     6.090904  1.660025  1.056929
  N     3.603081 -3.025874 -0.325834
  N     3.893693  1.060845 -0.081755
  N     2.927575 -2.374985  3.431999
  N     3.326059  0.890866  3.779540
  S     2.137189 -2.866774  2.054250
  S     2.466187  0.742875  2.316504
  S     5.223237 -2.912198 -0.713391
  S     5.367698  1.580570 -0.456801
  S     4.566585 -2.245400  3.293867
  S     4.900713  1.457872  3.598876
