16  
    
  C     7.849265 -0.764899  1.994489
  C     8.127276  2.993631  2.490809
  C     6.699940 -1.423197  1.366409
  C     6.919733  2.576583  1.829496
  N     8.891767 -0.610480  1.188609
  N     9.192441  3.175259  1.668818
  N     6.862217 -1.684908  0.068067
  N     7.128332  2.461017  0.514343
  N     6.063504 -0.965346  3.801790
  N     6.390100  2.550114  4.300245
  S     5.364385 -1.716284  2.437041
  S     5.542584  2.332701  2.902026
  S     8.382323 -1.190571 -0.282601
  S     8.628968  2.862595  0.090220
  S     7.644194 -0.600625  3.690593
  S     7.951156  2.989287  4.214154
