16  
    
  C     9.984289 -0.104620  2.769573
  C     9.777920  3.856133  2.838827
  C     8.791100 -0.579372  2.041223
  C     8.743406  3.088312  2.150769
  N    11.011243  0.156005  1.946116
  N    10.774855  4.216719  2.052240
  N     9.063993 -0.785952  0.771264
  N     9.025874  2.921292  0.842435
  N     8.029778 -0.392148  4.469011
  N     7.861536  3.654714  4.572825
  S     7.383610 -0.948255  3.024228
  S     7.226845  3.125162  3.134909
  S    10.563740 -0.246892  0.394159
  S    10.418706  3.684089  0.538918
  S     9.648255  0.077713  4.487774
  S     9.393223  4.303044  4.428279
