16  
    
  C     8.801540 -0.987993  2.359411
  C     8.401534  3.249019  2.399834
  C     7.574893 -1.302538  1.659339
  C     7.303504  2.566541  1.797792
  N     9.832817 -0.836470  1.571510
  N     9.362861  3.498671  1.550807
  N     7.732000 -1.532208  0.380248
  N     7.357804  2.392301  0.489772
  N     6.965397 -1.218407  4.196483
  N     6.809185  2.824270  4.361812
  S     6.228420 -1.647353  2.719015
  S     6.075947  2.214077  2.942706
  S     9.308724 -1.209110  0.040977
  S     8.853274  3.024908  0.052989
  S     8.590335 -0.704548  4.102359
  S     8.304174  3.586878  4.166903
