16  
    
  C     5.938731 -2.199146  1.681681
  C     5.423821  1.194629  1.760630
  C     4.605878 -2.467876  1.139195
  C     4.125871  0.885634  1.116682
  N     6.829834 -2.107675  0.727974
  N     6.461242  1.120177  0.946305
  N     4.622225 -2.704624 -0.157396
  N     4.184568  0.600298 -0.190513
  N     4.312240 -2.313557  3.735171
  N     3.717013  1.196750  3.627348
  S     3.369338 -2.564606  2.374516
  S     2.884557  0.675028  2.306436
  S     6.119091 -2.250634 -0.717019
  S     5.832890  0.805238 -0.575078
  S     5.950288 -1.960216  3.384634
  S     5.293091  1.689675  3.369608
