16  
    
  C    11.630743  1.124591  3.000382
  C    11.855803  5.177159  3.077360
  C    10.339047  0.751979  2.362474
  C    10.712765  4.393649  2.586634
  N    12.621742  1.173639  2.139427
  N    12.839407  5.241706  2.169142
  N    10.404996  0.549790  1.065170
  N    10.781514  3.978576  1.353151
  N    10.087163  0.608013  5.006983
  N    10.276047  4.848399  5.051862
  S     9.173825  0.409710  3.611980
  S     9.477760  4.192325  3.752943
  S    12.005601  0.907055  0.638409
  S    12.346540  4.397533  0.873098
  S    11.582001  1.287364  4.708900
  S    11.759765  5.562430  4.795337
