16  
    
  C    12.542529  1.471007  3.614101
  C    12.355681  5.210926  3.429447
  C    11.348637  1.027643  3.048407
  C    11.139433  4.759938  2.842606
  N    13.498412  1.809754  2.741096
  N    13.397674  5.256963  2.582771
  N    11.357086  0.862203  1.724179
  N    11.198534  4.577877  1.482899
  N    10.826345  1.472877  5.508103
  N    10.705491  4.913516  5.359569
  S    10.112371  0.786447  4.187023
  S     9.800705  4.612234  4.025521
  S    12.889428  1.413622  1.299580
  S    12.756022  4.851467  1.087004
  S    12.429898  1.721287  5.348437
  S    12.242290  5.456291  5.160973
