16  
    
  C     9.287150 -0.590598  2.631735
  C     9.275724  3.279546  2.596259
  C     8.080030 -1.063972  2.057285
  C     8.020357  2.818882  1.932035
  N    10.309754 -0.420858  1.795600
  N    10.243920  3.303129  1.723744
  N     8.204407 -1.367450  0.772289
  N     8.117028  2.547254  0.626440
  N     7.615275 -0.588930  4.571385
  N     7.526442  3.369674  4.423252
  S     6.811287 -1.026719  3.237512
  S     6.696434  2.942616  3.030422
  S     9.752836 -0.894544  0.312018
  S     9.754902  2.786086  0.213118
  S     9.194199 -0.119588  4.329936
  S     9.214286  3.525329  4.376451
