16  
    
  C     9.912404 -0.049291  2.670896
  C     9.787346  4.032862  2.809783
  C     8.819458 -0.651934  2.015763
  C     8.847390  3.186247  2.174567
  N    10.970583  0.239769  1.900768
  N    10.790494  4.374420  2.001611
  N     9.031734 -0.731316  0.679956
  N     9.215543  2.693051  0.997884
  N     8.172504 -0.321687  4.472418
  N     7.930829  3.717789  4.545288
  S     7.529964 -0.946900  3.106690
  S     7.509434  2.779498  3.198234
  S    10.560661 -0.179401  0.398455
  S    10.582383  3.482546  0.571127
  S     9.763909  0.116447  4.378999
  S     9.460201  4.440839  4.489425
