16  
    
  C     3.526117 -3.103861  1.038343
  C     3.877219  0.775092  1.456766
  C     2.273565 -3.582295  0.444756
  C     2.639764  0.342657  0.782693
  N     4.558076 -3.007467  0.224961
  N     4.920432  0.891608  0.646392
  N     2.337550 -3.761276 -0.872777
  N     2.809633  0.144499 -0.511620
  N     1.760230 -2.960458  2.917289
  N     2.088189  0.422047  3.294515
  S     1.052962 -3.836142  1.730534
  S     1.331927 -0.035125  1.923437
  S     3.972028 -3.354169 -1.295795
  S     4.360234  0.511043 -0.942221
  S     3.326171 -2.562950  2.646141
  S     3.677912  1.048569  3.184160
