16  
    
  C    11.243742  0.963173  3.357938
  C    11.580827  4.653685  2.747598
  C    10.021200  0.461297  2.767631
  C    10.274469  4.332956  2.213130
  N    12.187369  1.188787  2.476444
  N    12.594783  4.802536  1.897044
  N    10.049205  0.337282  1.418273
  N    10.388186  4.138450  0.875722
  N     9.573084  0.999957  5.303320
  N     9.898773  4.439492  4.736717
  S     8.748473  0.536944  3.974052
  S     9.072092  3.975734  3.349461
  S    11.579243  0.823833  0.934855
  S    11.907181  4.541157  0.381217
  S    11.172938  1.104947  5.070072
  S    11.494194  4.897270  4.490974
