16  
    
  C    11.332130  0.965579  3.185809
  C    11.510857  4.763599  3.083845
  C    10.068404  0.457347  2.687914
  C    10.386104  4.147449  2.414966
  N    12.372071  1.063731  2.361545
  N    12.509300  4.927430  2.253951
  N    10.150824  0.251886  1.387187
  N    10.505091  3.935857  1.100618
  N     9.704954  0.765008  5.173525
  N     9.759822  4.334849  4.957581
  S     8.772044  0.307977  3.841790
  S     9.045477  3.820529  3.529838
  S    11.698819  0.699869  0.921855
  S    12.089470  4.369049  0.792809
  S    11.274046  1.277352  4.891214
  S    11.313767  4.975152  4.795467
