16  
    
  C     4.517522 -2.607881  1.536706
  C     5.182194  1.483658  1.700114
  C     3.260717 -2.798585  0.864445
  C     3.844145  1.345516  1.122895
  N     5.613917 -2.621001  0.722480
  N     6.144692  1.584465  0.818682
  N     3.385341 -2.911414 -0.491864
  N     3.847267  1.291100 -0.193901
  N     2.732524 -2.804517  3.435053
  N     3.462135  1.137387  3.575473
  S     1.890365 -2.811192  1.969106
  S     2.627197  0.760034  2.201016
  S     4.996589 -2.684496 -0.803864
  S     5.442696  1.425294 -0.697979
  S     4.356440 -2.507796  3.253897
  S     5.100412  1.391512  3.388047
