16  
    
  C     9.737861  0.035926  2.871256
  C     9.758112  3.540729  2.680312
  C     8.630296 -0.624164  2.212369
  C     8.485065  3.445762  2.075614
  N    10.699221  0.311427  2.029589
  N    10.766252  3.719494  1.825924
  N     8.644283 -0.665574  0.910815
  N     8.488785  3.435177  0.728548
  N     7.993336 -0.500257  4.740586
  N     8.093927  3.147737  4.681101
  S     7.315619 -0.980006  3.308335
  S     7.334392  2.920784  3.207950
  S    10.084552  0.026427  0.485127
  S    10.088566  3.618890  0.376178
  S     9.564723  0.127368  4.631733
  S     9.719942  3.482642  4.493322
