16  
    
  C     5.844421 -2.284105  1.986787
  C     5.736490  1.326067  1.766039
  C     4.587808 -2.566702  1.362440
  C     4.553098  0.845066  1.086283
  N     6.874636 -2.121603  1.111836
  N     6.782021  1.610127  0.992520
  N     4.684104 -2.585571  0.025774
  N     4.732221  0.544056 -0.200433
  N     4.152878 -2.508637  3.851223
  N     3.966732  1.042116  3.614413
  S     3.300551 -2.608314  2.481807
  S     3.213541  0.560211  2.191757
  S     6.272793 -2.323984 -0.375336
  S     6.346563  1.019496 -0.541301
  S     5.743685 -2.100008  3.737955
  S     5.570897  1.344110  3.499012
