16  
    
  C     8.709792 -0.090611  2.515183
  C     8.485590  3.149947  2.554664
  C     7.579056 -0.700002  1.812322
  C     7.355095  2.650038  1.815652
  N     9.714978  0.180988  1.681691
  N     9.571158  3.302761  1.806928
  N     7.704950 -0.769827  0.482580
  N     7.628425  2.366044  0.546014
  N     7.073022 -0.778700  4.413766
  N     6.711710  2.879198  4.368143
  S     6.246006 -0.964700  2.998721
  S     6.083413  2.390093  2.912383
  S     9.235010 -0.212700  0.135289
  S     9.182911  2.853993  0.243659
  S     8.632892 -0.115211  4.309992
  S     8.334744  3.281114  4.278148
