16  
    
  C     9.683838  0.129301  2.813281
  C     9.817991  3.506706  2.655318
  C     8.559175 -0.476431  2.175417
  C     8.624288  3.107757  2.036028
  N    10.649108  0.476144  1.931361
  N    10.755851  3.932561  1.828431
  N     8.623081 -0.454147  0.810498
  N     8.632579  3.094083  0.700366
  N     8.242519 -0.753492  4.700174
  N     8.131216  3.222529  4.638534
  S     7.338000 -1.028793  3.314555
  S     7.343960  2.858387  3.252663
  S    10.086542  0.168706  0.414343
  S    10.153341  3.674703  0.289974
  S     9.702038  0.049872  4.530485
  S     9.689002  3.738654  4.331187
