16  
    
  C     7.302212 -1.573714  2.168640
  C     7.575998  2.724721  2.188474
  C     6.113785 -1.977678  1.448003
  C     6.370649  2.236538  1.559836
  N     8.292069 -1.204690  1.347830
  N     8.555974  2.940084  1.318532
  N     6.278816 -2.035441  0.118258
  N     6.406725  2.009209  0.239605
  N     5.531231 -2.140603  4.004041
  N     5.914607  2.301900  4.098193
  S     4.917265 -2.633302  2.579328
  S     5.104963  1.961825  2.715574
  S     7.826300 -1.432257 -0.215247
  S     7.980478  2.565446 -0.153330
  S     7.093888 -1.513281  3.882170
  S     7.555254  2.677100  3.943980
