16  
    
  C     4.303597 -2.483313  1.738328
  C     4.081970  1.279505  1.461432
  C     3.205557 -3.161197  1.158664
  C     2.952814  0.609701  0.929791
  N     5.303882 -2.221552  0.866971
  N     5.065913  1.407872  0.574736
  N     3.310892 -3.328138 -0.192101
  N     2.977877  0.305910 -0.355335
  N     2.524784 -2.718844  3.638603
  N     2.319593  1.079122  3.402006
  S     1.894607 -3.471832  2.316083
  S     1.586408  0.402586  2.005215
  S     4.750959 -2.720331 -0.623483
  S     4.516283  0.782409 -0.850152
  S     4.088472 -2.162667  3.450972
  S     3.841001  1.639513  3.142718
