16  
    
  C     4.695328 -1.997645  1.909996
  C     4.171813  1.131179  1.292954
  C     3.534013 -2.462253  1.223152
  C     2.953123  0.821066  0.565985
  N     5.810410 -1.976377  1.141587
  N     5.225262  1.151089  0.491907
  N     3.722806 -2.795731 -0.068553
  N     3.023026  0.762536 -0.764476
  N     2.867892 -2.247439  3.691504
  N     2.285584  1.163731  3.007039
  S     2.140330 -2.680103  2.259055
  S     1.537825  0.587920  1.663546
  S     5.293673 -2.353259 -0.432139
  S     4.684313  1.039951 -1.074265
  S     4.437841 -1.728990  3.588466
  S     3.953701  1.278680  3.033005
