16  
    
  C     5.883926 -2.183758  1.711996
  C     5.441476  1.177400  1.707947
  C     4.606933 -2.464753  1.168083
  C     4.217425  0.775586  1.130892
  N     6.872245 -2.048951  0.810272
  N     6.517865  1.095424  0.918807
  N     4.587672 -2.626034 -0.176870
  N     4.307596  0.571216 -0.180100
  N     4.306466 -2.320777  3.750135
  N     3.746505  1.227465  3.655449
  S     3.374268 -2.573201  2.386541
  S     2.926849  0.705221  2.272825
  S     6.165766 -2.273965 -0.689101
  S     5.910553  0.790240 -0.588427
  S     5.974487 -2.017872  3.434999
  S     5.326337  1.656943  3.425876
