16  
    
  C     3.248622 -2.805247  1.650206
  C     3.589143  0.894666  1.422007
  C     2.221312 -3.524053  0.897606
  C     2.365665  0.442015  0.820674
  N     4.082372 -2.126668  0.899327
  N     4.535197  1.332303  0.602494
  N     2.328487 -3.547391 -0.395570
  N     2.486539  0.391220 -0.489843
  N     1.426905 -3.405424  3.322045
  N     2.064815  0.261051  3.336298
  S     0.876024 -3.961418  1.879071
  S     1.132867 -0.010716  1.950816
  S     3.722282 -2.603664 -0.676162
  S     3.991834  0.907653 -0.946298
  S     2.922220 -2.731342  3.340053
  S     3.605803  0.798489  3.205535
