16  
    
  C    11.639911  1.068047  3.288934
  C    12.055437  4.957819  3.234466
  C    10.372564  0.675793  2.570357
  C    10.832176  4.324291  2.798503
  N    12.658182  1.202930  2.475736
  N    12.970000  5.095143  2.283848
  N    10.610678  0.313339  1.303111
  N    10.838525  4.045879  1.475213
  N     9.888261  1.207866  5.047769
  N    10.219727  5.216872  5.070596
  S     9.113040  0.511424  3.727579
  S     9.485064  4.304563  3.870591
  S    12.202433  0.736894  0.950125
  S    12.333118  4.503028  0.913783
  S    11.548369  1.275415  5.041920
  S    11.852245  5.564744  4.830245
