16  
    
  C    10.090958  0.609707  2.732403
  C    10.673737  4.155143  2.791924
  C     8.945319  0.011984  2.152525
  C     9.457217  3.815528  2.131894
  N    11.148725  0.680908  1.905054
  N    11.673106  4.394914  1.963074
  N     9.049602 -0.126458  0.815267
  N     9.532547  3.665122  0.794885
  N     8.459814  0.140103  4.669511
  N     9.022044  4.096033  4.725640
  S     7.702101 -0.446063  3.315529
  S     8.193048  3.678600  3.354088
  S    10.592031  0.280744  0.388776
  S    11.197443  4.067457  0.430701
  S     9.996098  0.807269  4.474935
  S    10.561759  4.611792  4.473175
