16  
    
  C     3.241735 -2.959257  1.560143
  C     3.568179  0.549372  1.441551
  C     2.056718 -3.179233  0.743286
  C     2.352272  0.254289  0.758630
  N     4.376959 -2.770031  0.917353
  N     4.574982  0.738042  0.612854
  N     2.273657 -3.050037 -0.567187
  N     2.377981  0.421293 -0.567347
  N     1.389738 -3.558634  3.193919
  N     1.879895  0.133054  3.325683
  S     0.658366 -3.619071  1.635122
  S     1.019237  0.000152  1.859905
  S     3.959837 -2.856008 -0.709468
  S     3.935593  0.731205 -0.975389
  S     3.018106 -3.131351  3.226318
  S     3.426660  0.688681  3.154401
