16  
    
  C     6.065031 -2.173459  1.769537
  C     6.135605  1.768248  1.805004
  C     4.803431 -2.450569  1.108003
  C     4.826397  1.783237  1.214747
  N     7.106349 -2.209461  0.959328
  N     7.123704  1.521903  0.946224
  N     4.870130 -2.733123 -0.210454
  N     4.906080  1.714781 -0.110265
  N     4.266200 -2.117070  3.674766
  N     4.400179  1.966954  3.766150
  S     3.453106 -2.492373  2.201746
  S     3.492313  1.952099  2.344259
  S     6.511711 -2.521202 -0.584321
  S     6.442166  1.506506 -0.531327
  S     5.933348 -1.930596  3.445002
  S     6.084720  1.874450  3.555464
