16  
    
  C     5.474703 -2.197975  1.940510
  C     5.257788  1.561932  1.715101
  C     4.277969 -2.635380  1.203980
  C     4.154556  0.994836  0.939050
  N     6.503895 -1.875318  1.150841
  N     6.211954  2.046633  0.938489
  N     4.413447 -2.755141 -0.124602
  N     4.369353  1.056821 -0.389164
  N     3.650479 -2.578266  3.753234
  N     3.480305  0.877789  3.440807
  S     2.929143 -2.982171  2.278146
  S     2.978222  0.257876  1.989874
  S     5.964434 -2.221873 -0.410678
  S     5.793242  1.836315 -0.620295
  S     5.272020 -1.994825  3.630425
  S     5.002237  1.568747  3.463637
