16  
    
  C     4.217533 -2.692858  1.567749
  C     4.191829  1.353130  1.621844
  C     2.998951 -3.179153  1.029211
  C     2.895257  1.286170  1.005806
  N     5.178569 -2.547006  0.623318
  N     5.199208  1.384615  0.744796
  N     3.058488 -3.607481 -0.257176
  N     2.922475  0.985813 -0.299610
  N     2.366849 -2.582056  3.472527
  N     2.555110  1.560881  3.588465
  S     1.598317 -3.122803  2.092060
  S     1.657981  1.516663  2.200088
  S     4.611210 -3.332970 -0.726221
  S     4.556833  0.998907 -0.709235
  S     3.995858 -2.306646  3.313698
  S     4.176984  1.540253  3.348684
