16  
    
  C     6.132660 -2.116123  1.751055
  C     6.168156  1.834141  1.822479
  C     4.860981 -2.354294  1.078353
  C     4.910948  1.866764  1.159058
  N     7.127230 -2.071981  0.916294
  N     7.230062  1.758915  1.010196
  N     4.912299 -2.594721 -0.208456
  N     4.945064  1.707153 -0.159373
  N     4.330084 -2.107342  3.545811
  N     4.397700  1.762737  3.689569
  S     3.503049 -2.513868  2.196405
  S     3.583410  1.990695  2.265791
  S     6.564444 -2.527176 -0.600759
  S     6.575095  1.565844 -0.512340
  S     5.919209 -1.737599  3.424839
  S     6.048592  1.859257  3.579362
