16  
    
  C     5.668337 -2.056439  2.059051
  C     5.852135  1.721074  2.007603
  C     4.508939 -2.623116  1.375717
  C     4.741197  1.221575  1.304086
  N     6.699545 -1.868010  1.268218
  N     6.893699  1.981865  1.227119
  N     4.726304 -3.043879  0.139907
  N     4.930444  1.097927  0.001020
  N     3.918214 -2.445126  3.971246
  N     4.184879  1.127994  3.840644
  S     3.181749 -3.017394  2.531209
  S     3.396394  0.871204  2.376112
  S     6.222655 -2.430970 -0.239321
  S     6.447577  1.627354 -0.308408
  S     5.513554 -1.774816  3.730720
  S     5.749415  1.697116  3.755662
