16  
    
  C     8.852758 -0.891992  2.372936
  C     8.550129  3.212380  2.495836
  C     7.655460 -1.319908  1.712936
  C     7.356114  2.620552  1.902688
  N     9.940948 -0.889072  1.565227
  N     9.492131  3.559598  1.601333
  N     7.743437 -1.366667  0.383435
  N     7.386502  2.492027  0.588307
  N     6.888512 -0.969563  4.149840
  N     6.775337  2.821380  4.391369
  S     6.201782 -1.520703  2.758976
  S     6.096348  2.210751  3.027327
  S     9.366549 -1.177800 -0.009142
  S     8.857935  3.034030  0.123920
  S     8.503406 -0.686994  4.091304
  S     8.262131  3.530596  4.156361
