16  
    
  C    11.705334  1.089117  2.835404
  C    11.757064  4.832443  3.143806
  C    10.564198  0.427028  2.317530
  C    10.577060  4.343582  2.486644
  N    12.581380  1.454031  1.908318
  N    12.774764  5.183166  2.376740
  N    10.515405  0.296659  1.003511
  N    10.699654  4.211402  1.173900
  N    10.118649  0.883493  4.856556
  N     9.924663  4.668850  4.951645
  S     9.274676  0.224814  3.599950
  S     9.284128  4.065258  3.519706
  S    11.874979  1.092842  0.428075
  S    12.222394  4.793928  0.818993
  S    11.657950  1.320112  4.561615
  S    11.515003  5.296779  4.858812
