16  
    
  C    12.055736  1.273747  3.382640
  C    12.180343  5.152127  3.143212
  C    10.865383  0.885908  2.753454
  C    10.899148  4.781507  2.541074
  N    13.181481  1.269200  2.642152
  N    13.228355  5.103900  2.349714
  N    11.072064  0.517219  1.519835
  N    11.032342  4.330513  1.291262
  N    10.134633  1.378211  5.187742
  N    10.567919  5.299573  5.054903
  S     9.428187  0.716061  3.811481
  S     9.648655  4.897186  3.749090
  S    12.694038  0.760725  1.157364
  S    12.693373  4.432842  0.952633
  S    11.797468  1.630607  5.086532
  S    12.161718  5.578380  4.814275
