16  
    
  C     4.615154 -2.143198  1.529073
  C     4.612112  1.649100  1.591577
  C     3.302871 -2.303788  1.004995
  C     3.474620  1.052204  0.964962
  N     5.617167 -2.205539  0.620387
  N     5.597727  1.901330  0.723544
  N     3.303426 -2.359788 -0.347210
  N     3.536445  0.956373 -0.368047
  N     3.013722 -2.129404  3.574234
  N     2.769344  1.298295  3.386956
  S     2.047440 -2.111940  2.221163
  S     2.105108  0.868985  1.994182
  S     4.864669 -2.311224 -0.830944
  S     5.007377  1.527069 -0.796994
  S     4.651276 -1.861571  3.246965
  S     4.373952  1.680587  3.316745
