16  
    
  C     9.855475 -0.241269  2.501009
  C     9.811872  3.645383  2.498935
  C     8.489424 -0.607210  2.018756
  C     8.602314  3.077167  1.979380
  N    10.672388  0.141078  1.549068
  N    10.787807  3.947412  1.609943
  N     8.468297 -0.650730  0.721838
  N     8.601938  3.120112  0.655949
  N     8.258166 -0.676399  4.538706
  N     8.230029  2.976541  4.473707
  S     7.291793 -0.964603  3.218516
  S     7.332046  2.666306  3.167940
  S     9.898056 -0.176039  0.099999
  S    10.053578  3.694093  0.190908
  S     9.826942 -0.066849  4.260718
  S     9.666298  3.749051  4.190192
