16  
    
  C     9.960690 -0.170006  2.978666
  C    10.209328  3.561495  2.850954
  C     8.735475 -0.534681  2.183809
  C     8.839957  3.474813  2.311076
  N    10.934333  0.135082  2.162229
  N    11.152090  3.497039  1.903498
  N     8.961284 -0.728418  0.902076
  N     8.757161  3.530742  0.992412
  N     8.139649 -0.731971  4.711058
  N     8.566321  3.271948  4.836715
  S     7.363631 -0.927587  3.192932
  S     7.642722  3.462590  3.445662
  S    10.519323 -0.269862  0.623518
  S    10.327834  3.632225  0.421522
  S     9.721228 -0.175525  4.755303
  S    10.232494  3.612598  4.656709
