16  
    
  C     9.049370 -0.256538  2.373296
  C     9.411244  3.173344  2.692192
  C     7.870489 -0.940296  1.832090
  C     8.158892  2.838477  2.066009
  N    10.047589 -0.206625  1.524684
  N    10.390542  3.166686  1.819720
  N     8.028096 -1.350447  0.617283
  N     8.187804  2.570383  0.752926
  N     7.294938 -0.352435  4.314087
  N     7.674762  3.245885  4.614718
  S     6.636866 -1.139849  3.006705
  S     6.855191  2.884422  3.201959
  S     9.532138 -0.966221  0.135815
  S     9.780435  2.726632  0.364119
  S     8.868761  0.137843  4.104614
  S     9.312400  3.660436  4.479914
