16  
    
  C     7.212050 -1.356820  2.174577
  C     7.475180  2.116659  2.183462
  C     6.020236 -1.895047  1.552237
  C     6.233519  1.605134  1.603856
  N     8.246169 -1.260413  1.357810
  N     8.479444  2.282922  1.342279
  N     6.218313 -2.355063  0.313580
  N     6.302326  1.323003  0.321336
  N     5.520751 -1.531918  4.158772
  N     5.668418  2.053765  4.054152
  S     4.695595 -2.127346  2.811642
  S     4.837096  1.626111  2.653632
  S     7.793438 -2.000343 -0.086007
  S     7.868067  1.771077 -0.197927
  S     7.022666 -0.938375  3.879963
  S     7.229828  2.586171  3.836651
