16  
    
  C     7.781641 -0.841661  1.760969
  C     7.813606  2.939215  2.357906
  C     6.567850 -1.422639  1.223851
  C     6.699744  2.413352  1.626150
  N     8.783395 -0.854905  0.926050
  N     8.927370  3.117949  1.647417
  N     6.622934 -1.727544 -0.039381
  N     6.940212  2.191270  0.350443
  N     6.163531 -1.064821  3.692366
  N     5.916662  2.666294  4.041036
  S     5.263873 -1.458228  2.359389
  S     5.301024  2.143302  2.649561
  S     8.184147 -1.415528 -0.487310
  S     8.522487  2.707182  0.060777
  S     7.755396 -0.615340  3.470736
  S     7.459316  3.210147  4.053698
