16  
    
  C    10.268579  0.341572  2.587032
  C    10.548963  4.269969  2.877744
  C     9.107051 -0.194064  1.956567
  C     9.306514  3.786096  2.363319
  N    11.306984  0.586533  1.775062
  N    11.589757  4.277097  2.022693
  N     9.364269 -0.607225  0.709633
  N     9.382476  3.433417  1.093114
  N     8.330475  0.537034  4.341791
  N     8.911592  4.188071  4.917830
  S     7.615492 -0.154875  3.023438
  S     7.971217  3.878363  3.584041
  S    10.844666 -0.018846  0.309680
  S    10.990419  3.764038  0.593152
  S     9.949484  0.926213  4.197634
  S    10.505776  4.609338  4.565303
