16  
    
  C     3.208053 -2.797303  1.641641
  C     3.597130  0.928144  1.454958
  C     2.226587 -3.524157  0.915334
  C     2.405247  0.433669  0.815714
  N     4.065411 -2.139624  0.869359
  N     4.542968  1.315467  0.623030
  N     2.327422 -3.547384 -0.423537
  N     2.503257  0.400251 -0.507513
  N     1.412745 -3.400580  3.347726
  N     2.049825  0.269359  3.336904
  S     0.886540 -3.995938  1.910568
  S     1.139544 -0.001479  1.950909
  S     3.712980 -2.595460 -0.696279
  S     3.974622  0.914672 -0.935984
  S     2.922732 -2.710383  3.325410
  S     3.606408  0.836830  3.193026
