16  
    
  C    11.932070  1.286338  3.285028
  C    11.779052  4.806553  3.660683
  C    10.870380  0.639749  2.643819
  C    10.609369  4.455859  2.896845
  N    12.994976  1.543800  2.529247
  N    12.891234  4.977653  2.877986
  N    11.035797  0.448245  1.330010
  N    10.772085  4.242209  1.604979
  N    10.204922  0.963559  5.139772
  N     9.915893  4.528490  5.408001
  S     9.454299  0.524956  3.700997
  S     9.262950  4.105778  3.922598
  S    12.585865  1.076824  0.995299
  S    12.436735  4.648144  1.308209
  S    11.781109  1.494808  5.006168
  S    11.486977  5.072937  5.373002
