16  
    
  C     5.398707 -2.224347  1.570876
  C     5.109690  1.622973  1.627018
  C     4.275744 -2.674157  0.792520
  C     4.049019  0.816498  0.973832
  N     6.465596 -1.965226  0.764193
  N     6.154801  1.838906  0.863990
  N     4.522002 -2.884736 -0.530222
  N     4.409899  0.267490 -0.192684
  N     3.487533 -2.482539  3.289086
  N     3.145463  1.861102  3.196411
  S     2.856199 -2.870856  1.788165
  S     2.615311  0.866715  1.883290
  S     6.125055 -2.475315 -0.752555
  S     5.952604  0.911457 -0.498651
  S     5.103989 -1.894451  3.231700
  S     4.725422  2.402034  3.110185
