16  
    
  C    12.908801  1.508550  3.717627
  C    12.834209  5.535667  3.733978
  C    11.570957  1.233292  3.095394
  C    11.630265  5.034446  3.217238
  N    13.920548  1.667211  2.898243
  N    13.828584  5.505644  2.844046
  N    11.750917  1.103365  1.785244
  N    11.668039  4.621368  1.946637
  N    11.046813  1.641358  5.558459
  N    11.293632  5.529175  5.792236
  S    10.226435  1.262700  4.157061
  S    10.404465  4.894089  4.492765
  S    13.276707  1.418730  1.370776
  S    13.220860  4.919562  1.422810
  S    12.691093  1.979069  5.375343
  S    12.816732  6.087878  5.348765
