16  
    
  C    12.464712  1.643902  3.396720
  C    12.295095  5.309361  3.566986
  C    11.249896  1.109887  2.756037
  C    11.114924  4.756821  2.911657
  N    13.479768  1.797578  2.544809
  N    13.255745  5.653062  2.707200
  N    11.333496  0.918130  1.434157
  N    11.266072  4.528334  1.588856
  N    10.815992  1.161376  5.351014
  N    10.641721  4.991731  5.479221
  S    10.016364  0.848762  3.923210
  S     9.821647  4.498877  4.087847
  S    12.894423  1.300482  1.021611
  S    12.794863  5.148714  1.197014
  S    12.343022  1.853054  5.061092
  S    12.216081  5.503064  5.234125
