16  
    
  C     5.774043 -2.186003  1.901357
  C     6.088948  1.649940  2.015982
  C     4.597662 -2.697337  1.246648
  C     4.756316  1.524131  1.493279
  N     6.761252 -1.855878  1.087211
  N     7.117469  1.479034  1.178543
  N     4.719303 -2.714684 -0.077162
  N     4.736766  1.415613  0.167715
  N     3.924383 -2.295530  3.755130
  N     4.400631  2.142185  3.948367
  S     3.235814 -2.904415  2.316996
  S     3.467934  1.840948  2.623376
  S     6.304071 -2.299653 -0.421585
  S     6.352911  1.251261 -0.336501
  S     5.561569 -1.950015  3.591043
  S     6.068093  2.112552  3.703142
