16  
    
  C     8.696904 -0.517428  2.423921
  C     8.539383  3.177980  2.598521
  C     7.502845 -0.873336  1.703221
  C     7.352680  2.720765  1.911341
  N     9.788585 -0.475695  1.678898
  N     9.559727  3.358761  1.771222
  N     7.725007 -1.239419  0.448157
  N     7.470885  2.513384  0.595763
  N     6.874628 -0.779710  4.124896
  N     6.844484  2.829252  4.440661
  S     6.082752 -0.946247  2.668768
  S     6.083973  2.507533  3.032116
  S     9.334524 -0.971158  0.181027
  S     9.027304  2.986409  0.246362
  S     8.508852 -0.246230  4.130079
  S     8.442683  3.214431  4.388151
