16  
    
  C     5.188374 -2.224724  1.543269
  C     5.007692  1.544525  2.006070
  C     4.030816 -2.838536  0.974665
  C     3.880967  0.953961  1.322075
  N     6.246402 -2.218641  0.748685
  N     6.110295  1.648175  1.229258
  N     4.226825 -3.298564 -0.289114
  N     4.148077  0.500484  0.102989
  N     3.406433 -2.258339  3.404006
  N     3.017773  1.492142  3.719176
  S     2.753654 -3.116117  2.084643
  S     2.405493  0.817665  2.357330
  S     5.762981 -2.833220 -0.705694
  S     5.668802  0.987959 -0.230045
  S     5.005069 -1.801067  3.171109
  S     4.508018  2.212671  3.515370
