16  
    
  C     9.773782 -0.062849  2.832251
  C     9.828165  3.561473  2.772332
  C     8.600687 -0.567450  2.195777
  C     8.550028  3.283049  2.074264
  N    10.684357  0.383461  2.008887
  N    10.772597  3.687151  1.872374
  N     8.651530 -0.627036  0.889736
  N     8.509981  3.365231  0.766597
  N     8.139249 -0.675807  4.769862
  N     8.135864  3.135442  4.590197
  S     7.340064 -0.953505  3.324781
  S     7.293978  2.893475  3.178179
  S    10.088840  0.110084  0.488164
  S    10.080611  3.658288  0.292040
  S     9.550669  0.138007  4.571368
  S     9.775173  3.577386  4.507913
