16  
    
  C    10.314024  0.474138  2.970663
  C    10.835585  4.247267  2.938400
  C     9.121811 -0.058272  2.307119
  C     9.555012  4.170300  2.239752
  N    11.262158  0.867689  2.100598
  N    11.810805  4.614118  2.111794
  N     9.083536  0.017126  0.974712
  N     9.599854  4.370690  0.909166
  N     8.683491 -0.236195  4.851257
  N     8.993567  3.626999  4.688436
  S     7.928793 -0.595069  3.411386
  S     8.226942  3.849537  3.235119
  S    10.576433  0.718836  0.585715
  S    11.150662  4.712786  0.575991
  S    10.161202  0.517938  4.752253
  S    10.571597  4.245584  4.756283
