16  
    
  C     8.262781 -0.829944  2.462936
  C     8.170650  3.003351  2.342589
  C     7.072495 -1.397575  1.895172
  C     7.002244  2.406967  1.712607
  N     9.307440 -0.850274  1.657158
  N     9.210610  3.266199  1.526457
  N     7.169422 -1.639812  0.598396
  N     7.260444  2.111257  0.446013
  N     6.406978 -0.815295  4.370670
  N     6.407382  2.633662  4.176661
  S     5.671940 -1.459582  3.071109
  S     5.658402  2.086819  2.812135
  S     8.766062 -1.362136  0.169645
  S     8.748868  2.681416  0.067631
  S     8.009103 -0.401708  4.134402
  S     7.932823  3.290421  4.020519
