16  
    
  C     5.936116 -2.198967  1.675248
  C     5.421577  1.196660  1.761649
  C     4.604698 -2.474991  1.139396
  C     4.120577  0.893212  1.117972
  N     6.835247 -2.109254  0.724220
  N     6.454538  1.125151  0.944408
  N     4.622487 -2.706556 -0.156169
  N     4.180540  0.605370 -0.189658
  N     4.316254 -2.312729  3.729778
  N     3.713515  1.194355  3.624965
  S     3.370360 -2.563544  2.373507
  S     2.881251  0.672540  2.309646
  S     6.113738 -2.251095 -0.718936
  S     5.825990  0.806534 -0.573409
  S     5.945286 -1.955968  3.382802
  S     5.290045  1.690654  3.365929
