16  
    
  C     8.946459 -0.214479  2.570107
  C     8.686340  3.405897  2.562479
  C     7.749388 -0.699710  1.943441
  C     7.459874  2.942725  1.979678
  N     9.969658 -0.085964  1.729789
  N     9.615494  3.774016  1.681238
  N     7.820907 -0.768686  0.592277
  N     7.466928  2.786722  0.640456
  N     7.173785 -0.533324  4.436809
  N     7.142227  2.813201  4.540829
  S     6.438350 -0.984755  3.042708
  S     6.208794  2.554448  3.173364
  S     9.395700 -0.388910  0.167968
  S     8.956026  3.479358  0.198561
  S     8.794541 -0.286974  4.294570
  S     8.726049  3.300008  4.303328
