16  
    
  C     5.936971 -2.187504  1.654007
  C     5.324377  1.310783  1.699598
  C     4.629562 -2.629399  1.126961
  C     4.055466  0.894650  1.162834
  N     6.863351 -2.059488  0.737158
  N     6.358232  1.275643  0.849933
  N     4.516442 -2.681087 -0.188352
  N     4.152993  0.736755 -0.156788
  N     4.313691 -2.313611  3.649650
  N     3.672177  1.206265  3.663422
  S     3.390141 -2.551353  2.351847
  S     2.827180  0.629824  2.334598
  S     6.042112 -2.312870 -0.751748
  S     5.707913  0.839659 -0.586207
  S     5.866178 -1.886534  3.352156
  S     5.220764  1.659969  3.380893
