16  
    
  C    11.208461  0.662979  2.940419
  C    11.167932  4.278035  3.368414
  C    10.071444 -0.122211  2.431517
  C     9.862814  4.180510  2.706969
  N    12.191390  0.776725  2.092663
  N    12.155584  4.280552  2.462483
  N    10.159296 -0.437485  1.170881
  N     9.890294  3.963193  1.391881
  N     9.408132  0.442686  4.839416
  N     9.464298  4.054406  5.289310
  S     8.756163 -0.278920  3.476740
  S     8.579880  4.217631  3.905518
  S    11.685076  0.031198  0.667141
  S    11.501381  4.063532  0.940012
  S    10.962734  1.057653  4.613489
  S    11.057965  4.542122  5.125259
