16  
    
  C     8.889732 -0.371331  2.539132
  C     8.438656  3.225242  2.521467
  C     7.640478 -0.653755  1.875032
  C     7.339154  2.663058  1.878902
  N     9.898786 -0.007483  1.722365
  N     9.466897  3.520282  1.743008
  N     7.767332 -0.700543  0.528883
  N     7.437298  2.640203  0.544024
  N     7.163436 -0.746565  4.462595
  N     6.837675  2.775709  4.409047
  S     6.336882 -0.916704  3.048045
  S     6.202087  2.155078  3.041519
  S     9.315466 -0.189303  0.155040
  S     8.916156  3.322560  0.182299
  S     8.740534 -0.134550  4.297674
  S     8.368445  3.366619  4.268555
