16  
    
  C    11.341322  0.932628  3.223403
  C    11.447250  4.787629  3.094548
  C    10.111857  0.497320  2.648313
  C    10.332936  4.137309  2.481239
  N    12.328109  1.142692  2.354769
  N    12.527746  4.894526  2.287162
  N    10.179222  0.154458  1.347031
  N    10.524414  3.907734  1.173847
  N     9.674817  0.829745  5.173128
  N     9.730940  4.353338  5.007557
  S     8.850300  0.304782  3.803823
  S     9.020312  3.777636  3.618932
  S    11.703675  0.680570  0.888387
  S    12.095218  4.354006  0.798689
  S    11.261175  1.250187  4.858991
  S    11.236621  5.000385  4.841379
