16  
    
  C    12.323780  1.583071  3.288739
  C    12.309334  5.379505  3.650184
  C    11.231585  1.005146  2.621960
  C    11.238201  4.727408  2.961699
  N    13.327718  1.822649  2.474512
  N    13.333217  5.629219  2.843013
  N    11.350833  0.844638  1.309131
  N    11.306826  4.617189  1.663798
  N    10.454921  1.422555  5.023994
  N    10.540839  4.814668  5.474645
  S     9.741964  0.872940  3.653042
  S     9.923935  4.288204  4.002157
  S    12.898001  1.380854  0.972560
  S    12.876538  5.192809  1.312623
  S    12.012877  1.852010  4.993864
  S    12.018956  5.650916  5.361042
