16  
    
  C    11.399509  0.615049  3.077447
  C    11.071271  4.798864  3.540659
  C    10.325670  0.108470  2.274681
  C     9.875703  4.138846  2.993107
  N    12.496046  0.892191  2.336424
  N    12.134600  4.732159  2.707107
  N    10.666450 -0.197072  1.005880
  N     9.996148  3.709740  1.758699
  N     9.412372  0.432421  4.617686
  N     9.414861  4.478853  5.514027
  S     8.902316 -0.102351  3.131075
  S     8.576390  4.029058  4.176379
  S    12.183229  0.312894  0.800964
  S    11.534261  4.030924  1.238282
  S    11.002399  1.031265  4.687382
  S    10.918921  5.128809  5.218347
