16  
    
  C    10.955764  0.595583  2.925919
  C    10.886090  4.528564  3.334707
  C     9.679215  0.183846  2.343199
  C     9.772158  3.886310  2.686400
  N    11.886974  0.881171  2.051537
  N    11.928326  4.729520  2.553954
  N     9.723740 -0.014224  1.054769
  N     9.987372  3.583550  1.413439
  N     9.393790  0.314953  4.892630
  N     9.233383  3.919742  5.170205
  S     8.540546 -0.208497  3.546345
  S     8.413531  3.655249  3.726353
  S    11.295978  0.368275  0.590730
  S    11.513699  4.189005  1.066393
  S    10.888069  0.946488  4.587513
  S    10.728735  4.616333  5.089533
