16  
    
  C     7.832234 -0.708157  2.138697
  C     8.309775  2.824467  2.440114
  C     6.755998 -1.494971  1.514159
  C     7.003948  2.612654  1.890313
  N     8.863749 -0.398377  1.366580
  N     9.293822  2.912835  1.529061
  N     6.964032 -1.671066  0.218143
  N     7.044073  2.562838  0.558746
  N     6.086884 -1.261568  3.926200
  N     6.644534  3.036823  4.324196
  S     5.386850 -1.704951  2.532966
  S     5.721225  2.455800  3.096831
  S     8.409813 -0.943364 -0.114278
  S     8.548630  2.839625  0.015656
  S     7.627008 -0.584904  3.814333
  S     8.284468  2.973123  4.154190
