16  
    
  C     8.771943 -0.336078  2.501768
  C     8.598029  3.023729  2.598337
  C     7.550654 -0.809375  1.826589
  C     7.384564  2.718206  1.878012
  N     9.787864 -0.171644  1.707637
  N     9.662310  3.047908  1.825933
  N     7.662359 -0.933138  0.535974
  N     7.499205  2.603707  0.579531
  N     6.890924 -0.577165  4.301851
  N     6.735251  2.983219  4.398210
  S     6.174083 -1.013341  2.813728
  S     6.107523  2.483541  2.917619
  S     9.206745 -0.487110  0.172612
  S     9.112604  2.873628  0.229060
  S     8.522665 -0.054267  4.231808
  S     8.378843  3.244753  4.350467
