16  
    
  C    11.313073  0.672008  3.007232
  C    11.119943  4.388974  3.588903
  C    10.310571 -0.054202  2.261137
  C     9.851510  4.143380  2.984618
  N    12.456254  0.791433  2.352784
  N    12.094623  4.395660  2.655632
  N    10.606736 -0.361270  1.002857
  N     9.806109  3.868467  1.694828
  N     9.311418  0.385498  4.520494
  N     9.357904  4.735779  5.462153
  S     8.848276 -0.346300  3.085583
  S     8.480288  4.206675  4.145488
  S    12.234854  0.094585  0.859387
  S    11.383277  4.131165  1.218396
  S    10.933175  0.772809  4.734817
  S    10.987136  4.888552  5.224352
