16  
    
  C    11.063989  0.509409  3.264133
  C    11.175892  4.181106  3.129603
  C     9.854808  0.114201  2.518851
  C     9.918434  3.783412  2.514237
  N    12.062031  0.888225  2.486932
  N    12.202525  4.318787  2.334602
  N    10.033276  0.021960  1.205436
  N    10.005842  3.700381  1.178986
  N     9.305753 -0.065490  5.070792
  N     9.549441  3.833527  5.069522
  S     8.521902 -0.251434  3.643761
  S     8.699710  3.443570  3.702509
  S    11.593974  0.528684  0.934040
  S    11.553217  4.154151  0.755342
  S    10.781688  0.700145  4.968651
  S    11.100505  4.409817  4.857027
