16  
    
  C     7.118833 -1.230844  2.315807
  C     7.760386  2.835958  2.334629
  C     6.106478 -1.876936  1.507638
  C     6.619833  2.314500  1.640367
  N     8.200985 -0.843161  1.644382
  N     8.792834  3.095569  1.562567
  N     6.359124 -1.890411  0.201399
  N     6.831683  2.275639  0.329625
  N     5.326564 -2.017614  3.912116
  N     5.973610  2.483262  4.125198
  S     4.845480 -2.540465  2.436306
  S     5.271654  2.048521  2.739577
  S     7.876802 -1.272426  0.101910
  S     8.348335  2.671489 -0.016298
  S     6.821230 -1.318363  3.994832
  S     7.564854  2.937469  4.091687
