16  
    
  C     8.402990 -0.911686  2.437781
  C     8.151305  2.941917  2.368601
  C     7.127586 -1.411789  1.979310
  C     7.015938  2.352138  1.696623
  N     9.387852 -0.916680  1.561835
  N     9.171743  3.143497  1.556931
  N     7.130136 -1.808545  0.730871
  N     7.241980  2.079320  0.435157
  N     6.694127 -0.806236  4.465869
  N     6.286969  2.565931  4.144444
  S     5.854577 -1.438405  3.190945
  S     5.630224  2.067385  2.679104
  S     8.670413 -1.576462  0.184694
  S     8.759344  2.469558  0.029657
  S     8.251039 -0.383511  4.140944
  S     7.843023  3.247114  4.060889
