16  
    
  C     4.309360 -2.285032  1.861030
  C     4.026380  1.186318  1.166726
  C     3.223003 -3.004391  1.276005
  C     2.979484  0.358241  0.629578
  N     5.255811 -1.899016  0.985939
  N     5.000543  1.456140  0.278917
  N     3.378775 -3.233460 -0.042580
  N     3.101968  0.065012 -0.676521
  N     2.553351 -2.347690  3.686181
  N     2.261017  0.960623  3.020462
  S     1.834322 -3.093779  2.373384
  S     1.623131  0.168389  1.710232
  S     4.821690 -2.609499 -0.439997
  S     4.619597  0.710496 -1.130123
  S     4.167291 -1.988610  3.540176
  S     3.743204  1.532672  2.813657
