16  
    
  C     9.928021 -0.066873  2.766134
  C     9.726577  3.795027  2.834877
  C     8.836428 -0.621952  2.054390
  C     8.633424  3.236229  2.093274
  N    10.987727  0.086325  1.983314
  N    10.764701  4.154467  2.085250
  N     9.006455 -0.794092  0.743826
  N     8.878067  2.989649  0.808274
  N     7.975703 -0.386047  4.442834
  N     7.826635  3.615681  4.560495
  S     7.394021 -0.927925  3.019406
  S     7.238348  3.175669  3.077812
  S    10.542910 -0.276208  0.423537
  S    10.358403  3.694351  0.491672
  S     9.606376  0.060914  4.530800
  S     9.394496  4.275828  4.489093
