16  
    
  C     6.144658 -1.629750  2.313242
  C     6.583471  2.047519  2.178337
  C     5.173228 -2.492181  1.671379
  C     5.376576  1.625434  1.538505
  N     7.074844 -1.118634  1.488207
  N     7.570057  2.279434  1.333244
  N     5.354935 -2.588788  0.345112
  N     5.411871  1.619299  0.196590
  N     4.385076 -2.188670  4.122612
  N     4.861551  1.898101  4.087615
  S     3.837787 -2.837258  2.654333
  S     4.070404  1.472088  2.670557
  S     6.768981 -1.791882  0.029518
  S     6.978258  1.986077 -0.194146
  S     5.918590 -1.547517  4.050114
  S     6.526798  2.277833  3.906632
