16  
    
  C     8.881514 -0.322407  2.546703
  C     8.484856  3.192309  2.519901
  C     7.643009 -0.662565  1.851551
  C     7.334034  2.622745  1.843878
  N     9.833363  0.005869  1.720577
  N     9.493933  3.501656  1.726359
  N     7.738472 -0.673685  0.556451
  N     7.429820  2.571473  0.527278
  N     7.161611 -0.740097  4.433802
  N     6.799907  2.817510  4.387153
  S     6.342084 -0.925043  3.047350
  S     6.197873  2.148193  3.024863
  S     9.306151 -0.178642  0.109420
  S     8.936933  3.275188  0.205350
  S     8.724849 -0.141185  4.335750
  S     8.333221  3.368655  4.288610
