16  
    
  C     8.368582 -0.976181  2.508282
  C     8.171444  2.636830  2.122790
  C     7.129806 -1.344209  1.965765
  C     7.041697  2.180349  1.350192
  N     9.340694 -0.972237  1.585024
  N     9.308129  2.641315  1.393553
  N     7.137483 -1.771909  0.682485
  N     7.270929  1.923191  0.042122
  N     6.749876 -0.653070  4.396947
  N     6.287390  2.190297  3.886338
  S     5.898842 -1.312386  3.147976
  S     5.610938  2.058279  2.331788
  S     8.702644 -1.484274  0.183845
  S     8.925924  2.185426 -0.090742
  S     8.372970 -0.417893  4.134974
  S     7.914584  2.763890  3.876281
