16  
    
  C     5.717447 -2.073560  1.914028
  C     6.018641  1.659180  2.050386
  C     4.537962 -2.673708  1.272894
  C     4.755227  1.529874  1.439313
  N     6.781296 -1.875730  1.155932
  N     7.040152  1.621848  1.195921
  N     4.717438 -2.928488 -0.001651
  N     4.825085  1.274375  0.118683
  N     3.928031 -2.330084  3.684715
  N     4.325208  2.064573  3.922336
  S     3.258340 -2.989795  2.362592
  S     3.448306  1.645684  2.571574
  S     6.238626 -2.290168 -0.389327
  S     6.389670  1.414413 -0.269121
  S     5.520179 -1.910667  3.662598
  S     5.961077  2.035591  3.767860
