16  
    
  C    10.994321  0.641275  2.895063
  C    10.977968  4.511769  3.343526
  C     9.775714  0.062330  2.352740
  C     9.817583  3.900208  2.708915
  N    11.937186  0.805561  1.958888
  N    12.006215  4.678876  2.520779
  N     9.718357 -0.128898  1.011960
  N     9.990900  3.603079  1.426847
  N     9.389139  0.350617  4.885458
  N     9.220434  3.942665  5.132281
  S     8.563740 -0.176782  3.553779
  S     8.427421  3.697538  3.675759
  S    11.253910  0.351799  0.500549
  S    11.484031  4.182011  1.025005
  S    10.907210  1.040165  4.638605
  S    10.762605  4.564128  5.067227
