16  
    
  C     7.152200 -1.258858  2.316906
  C     7.758021  2.838535  2.339981
  C     6.114176 -1.863022  1.487791
  C     6.616055  2.308055  1.653694
  N     8.191827 -0.819999  1.642123
  N     8.812065  3.092675  1.573299
  N     6.372984 -1.927164  0.204488
  N     6.803453  2.295216  0.346036
  N     5.353873 -2.026030  3.934090
  N     5.993052  2.477678  4.127987
  S     4.834027 -2.550032  2.433338
  S     5.261192  2.042603  2.735607
  S     7.877749 -1.276058  0.101437
  S     8.345658  2.672841 -0.020547
  S     6.821924 -1.328202  3.982906
  S     7.553642  2.935805  4.077839
