16  
    
  C     7.904534 -0.758664  2.295243
  C     8.283458  2.854212  2.385137
  C     6.837529 -1.372164  1.599858
  C     7.011724  2.566854  1.848491
  N     8.949164 -0.427670  1.503913
  N     9.234144  2.954369  1.461032
  N     6.958821 -1.419442  0.237362
  N     6.990218  2.452992  0.522586
  N     5.989190 -1.111878  4.064973
  N     6.773105  2.994131  4.357469
  S     5.496354 -1.814462  2.688671
  S     5.840553  2.682898  3.080547
  S     8.505271 -0.809028 -0.071600
  S     8.526003  2.642290 -0.010061
  S     7.592997 -0.565298  4.048937
  S     8.411112  3.088526  4.108112
