16  
    
  C     7.106695 -1.418047  2.283761
  C     7.059207  2.211943  2.086708
  C     5.880917 -1.793017  1.599506
  C     5.858842  1.812716  1.424888
  N     8.108571 -1.240937  1.460159
  N     8.118288  2.409726  1.293916
  N     5.932762 -1.797579  0.285627
  N     6.085642  1.595321  0.112419
  N     5.296204 -1.838410  4.178781
  N     5.263535  2.005626  3.947067
  S     4.543479 -2.029129  2.677038
  S     4.523296  1.674816  2.482662
  S     7.543598 -1.556685 -0.089569
  S     7.644330  1.907285 -0.178013
  S     6.842375 -1.344596  4.029788
  S     6.820258  2.569931  3.778486
