16  
    
  C     9.773684 -0.217182  2.850300
  C     9.573322  3.867546  2.723604
  C     8.585759 -0.633238  2.102068
  C     8.342654  3.526418  2.007606
  N    10.823442 -0.052493  2.096722
  N    10.647750  3.892325  1.940478
  N     8.824548 -0.857523  0.831096
  N     8.522012  3.468610  0.682038
  N     7.854428 -0.408663  4.627415
  N     7.882788  3.460510  4.552682
  S     7.241293 -0.836012  3.150350
  S     7.099380  3.228591  3.117753
  S    10.384920 -0.379958  0.548756
  S    10.128782  3.703496  0.429509
  S     9.473387  0.066490  4.552659
  S     9.500794  3.750721  4.486923
