16  
    
  C    11.647008  1.012507  3.069657
  C    11.947062  5.110471  3.085861
  C    10.401356  0.614933  2.442320
  C    10.731318  4.431804  2.633693
  N    12.668463  1.040516  2.203933
  N    12.903982  5.284796  2.197875
  N    10.426109  0.594937  1.102427
  N    10.879914  3.940930  1.404790
  N    10.024901  0.677248  5.002885
  N    10.262031  4.980438  5.111688
  S     9.132325  0.444785  3.610308
  S     9.482975  4.211195  3.841374
  S    12.002682  0.924475  0.685936
  S    12.339133  4.380892  0.829018
  S    11.554940  1.352369  4.816529
  S    11.786815  5.566513  4.749920
