16  
    
  C    11.745456  1.056556  2.825583
  C    11.757078  4.896641  3.186080
  C    10.534094  0.307893  2.379882
  C    10.586888  4.368924  2.475133
  N    12.609623  1.465502  1.873665
  N    12.725616  5.166573  2.350726
  N    10.518108  0.331979  1.026389
  N    10.677818  4.215092  1.151464
  N    10.109434  0.875495  4.872481
  N     9.895963  4.662064  4.923463
  S     9.263750  0.194967  3.600985
  S     9.246766  4.050668  3.495558
  S    11.883829  1.119208  0.423133
  S    12.208198  4.852556  0.836891
  S    11.652024  1.384090  4.529300
  S    11.480460  5.223867  4.859725
