16  
    
  C     7.058404 -1.672817  1.589102
  C     6.827350  2.107545  1.935063
  C     5.829083 -2.206727  1.036665
  C     5.616804  1.627667  1.338973
  N     8.087602 -1.619709  0.734636
  N     7.781928  2.430099  1.059162
  N     5.912283 -2.382845 -0.271163
  N     5.680879  1.464946  0.018619
  N     5.337486 -1.807001  3.540163
  N     5.143427  1.708695  3.876413
  S     4.575561 -2.391845  2.201281
  S     4.407698  1.103936  2.474130
  S     7.442739 -1.954603 -0.718935
  S     7.086189  2.071300 -0.440665
  S     6.980473 -1.596973  3.303408
  S     6.701964  2.242068  3.631857
