16  
    
  C    12.691104  1.471541  3.520813
  C    12.864991  5.591133  3.735074
  C    11.514814  0.862189  2.947861
  C    11.792083  5.032102  3.035992
  N    13.709293  1.735537  2.654192
  N    13.947011  5.747215  2.952257
  N    11.658143  0.654284  1.655365
  N    11.956721  4.829657  1.705652
  N    10.783903  1.384624  5.353897
  N    10.945638  5.086085  5.438163
  S    10.148290  0.651149  3.978291
  S    10.398409  4.600579  3.948547
  S    13.093664  1.184277  1.164438
  S    13.505014  5.307664  1.379798
  S    12.341462  1.959915  5.153768
  S    12.522937  5.730596  5.460321
