16  
    
  C    10.427741  0.631763  3.047035
  C    10.680548  4.356813  2.863891
  C     9.242450  0.023926  2.434093
  C     9.424605  3.899348  2.289054
  N    11.332541  0.915720  2.136172
  N    11.624061  4.484530  1.948539
  N     9.341974 -0.239577  1.151724
  N     9.383003  3.928729  0.940654
  N     8.748425  0.240775  4.978338
  N     8.978133  4.387873  4.787876
  S     7.987670 -0.301975  3.581366
  S     8.163161  3.815047  3.442922
  S    10.753101  0.426691  0.662827
  S    10.939634  4.328255  0.473577
  S    10.296407  0.881700  4.780272
  S    10.587530  4.785973  4.587542
