16  
    
  C     4.198771 -2.275250  1.829795
  C     4.043681  1.177791  1.203233
  C     3.095649 -2.994674  1.263018
  C     3.017449  0.275513  0.652984
  N     5.196488 -2.008452  0.961332
  N     4.982158  1.481305  0.304728
  N     3.251132 -3.313623 -0.035758
  N     3.202330 -0.099430 -0.596468
  N     2.574726 -2.606172  3.764880
  N     2.233762  0.917666  3.037822
  S     1.785669 -3.146244  2.389803
  S     1.672395  0.034768  1.728619
  S     4.702179 -2.648361 -0.533119
  S     4.533987  0.724295 -1.104903
  S     4.123621 -1.998018  3.500737
  S     3.782946  1.686049  2.852826
