16  
    
  C    12.076006  1.614155  3.360204
  C    12.284008  5.327444  3.537430
  C    11.010681  1.013387  2.672216
  C    11.129189  4.730088  2.849040
  N    13.216304  1.764630  2.649789
  N    13.308600  5.570884  2.753431
  N    11.262096  0.803154  1.394588
  N    11.405081  4.367755  1.577190
  N    10.141700  1.204428  5.105603
  N    10.311920  5.143430  5.241199
  S     9.573926  0.513790  3.631824
  S     9.775147  4.530789  3.809810
  S    12.839131  1.251841  1.110087
  S    12.922535  4.816357  1.288519
  S    11.734417  1.776786  5.085313
  S    11.924518  5.627166  5.306544
