16  
    
  C     4.242678 -2.425090  1.608081
  C     4.068597  1.215322  1.591746
  C     3.155963 -3.223623  1.094541
  C     2.858418  0.694571  1.079302
  N     5.246783 -2.233248  0.762840
  N     5.098636  1.281669  0.792096
  N     3.338223 -3.646928 -0.137340
  N     2.921677  0.452038 -0.212074
  N     2.659991 -2.894410  3.619744
  N     2.332295  1.278174  3.491183
  S     1.825879 -3.349278  2.244419
  S     1.549159  0.831875  2.120083
  S     4.762275 -2.888475 -0.664538
  S     4.452210  0.886853 -0.700652
  S     4.136360 -2.179038  3.375178
  S     4.013399  1.456172  3.312854
