16  
    
  C     8.764221 -0.993184  2.376884
  C     8.375816  3.263603  2.411915
  C     7.569260 -1.320058  1.659087
  C     7.272185  2.567082  1.787244
  N     9.815703 -0.819264  1.583325
  N     9.344041  3.495104  1.551253
  N     7.713400 -1.572983  0.355806
  N     7.369795  2.369397  0.486751
  N     7.005989 -1.265390  4.202062
  N     6.820599  2.824588  4.328067
  S     6.240221 -1.669302  2.714976
  S     6.060833  2.213362  2.938711
  S     9.293955 -1.212964  0.057152
  S     8.855530  3.018453  0.014876
  S     8.597751 -0.714696  4.092325
  S     8.308425  3.584378  4.150364
