16  
    
  C    11.759436  1.018426  2.817936
  C    11.709524  4.938645  3.200335
  C    10.538446  0.298783  2.386109
  C    10.589426  4.372710  2.472575
  N    12.601485  1.472816  1.875528
  N    12.722400  5.169055  2.325767
  N    10.513177  0.347618  1.048996
  N    10.687703  4.238979  1.161215
  N    10.104627  0.861966  4.880707
  N     9.882633  4.656080  4.907997
  S     9.264052  0.172636  3.594208
  S     9.218521  4.043813  3.491629
  S    11.884985  1.123206  0.428095
  S    12.202767  4.881910  0.834204
  S    11.651478  1.427569  4.513853
  S    11.451992  5.175283  4.858254
