16  
    
  C    10.290250  0.169841  2.624030
  C    10.310495  4.251044  3.082917
  C     9.110246 -0.284807  1.950175
  C     9.064335  3.807296  2.517562
  N    11.409910  0.169408  1.880555
  N    11.360256  4.050549  2.285723
  N     9.376071 -0.764714  0.701094
  N     9.104079  3.438201  1.239688
  N     8.454142  0.502222  4.305559
  N     8.669038  4.218799  5.096554
  S     7.836645 -0.396623  3.090942
  S     7.740956  3.965690  3.716085
  S    10.985641 -0.548650  0.473730
  S    10.790558  3.583362  0.832154
  S    10.082137  0.824081  4.197033
  S    10.261646  4.732476  4.708255
