16  
    
  C     7.741186 -0.878682  1.781791
  C     7.775342  2.955762  2.329408
  C     6.527496 -1.349599  1.208659
  C     6.640306  2.358292  1.614464
  N     8.710037 -0.795975  0.860494
  N     8.885262  3.118407  1.610711
  N     6.605977 -1.772651 -0.085363
  N     6.810930  2.206596  0.277299
  N     6.114868 -1.102618  3.743129
  N     5.906112  2.687718  4.038162
  S     5.231976 -1.444411  2.395713
  S     5.291698  2.126893  2.624066
  S     8.189423 -1.432761 -0.555629
  S     8.506081  2.665194  0.083578
  S     7.754732 -0.653366  3.489121
  S     7.472084  3.237929  4.027900
