16  
    
  C    12.081281  1.322227  3.445450
  C    12.147774  5.214100  3.128652
  C    10.812104  0.909191  2.739528
  C    10.908977  4.762742  2.539533
  N    13.148320  1.416869  2.646372
  N    13.243091  5.043316  2.370214
  N    11.106217  0.496255  1.476406
  N    11.103081  4.348903  1.282408
  N    10.159809  1.314721  5.172429
  N    10.532490  5.318687  5.051707
  S     9.400143  0.705384  3.822629
  S     9.652367  4.880463  3.718876
  S    12.714965  0.735582  1.174680
  S    12.683267  4.424481  0.938315
  S    11.786081  1.613705  5.115685
  S    12.157628  5.617791  4.837643
