16  
    
  C     6.266027 -1.665075  1.912059
  C     6.493126  2.194832  2.044016
  C     5.163514 -2.326593  1.224179
  C     5.303197  1.686529  1.385578
  N     7.339109 -1.509677  1.148853
  N     7.500440  2.395773  1.201413
  N     5.327445 -2.409253 -0.097139
  N     5.465965  1.395295  0.096187
  N     4.500988 -2.184421  3.751771
  N     4.735665  1.837047  3.901324
  S     3.818070 -2.686822  2.273479
  S     3.974949  1.436427  2.488296
  S     6.896748 -1.971323 -0.358607
  S     7.013894  1.809367 -0.260747
  S     6.028658 -1.456671  3.594302
  S     6.267636  2.424184  3.730213
