16  
    
  C     9.889205 -0.090388  2.795248
  C     9.723922  3.854430  2.802925
  C     8.763234 -0.676082  2.046780
  C     8.560743  3.376695  2.069706
  N    10.998792  0.079651  2.041449
  N    10.771768  4.068932  2.032834
  N     8.936749 -0.785879  0.731909
  N     8.709313  3.116194  0.776513
  N     7.961169 -0.330575  4.476211
  N     7.829948  3.598750  4.530298
  S     7.411357 -0.917136  3.019007
  S     7.208169  3.186687  3.043594
  S    10.520111 -0.319770  0.473443
  S    10.305268  3.688614  0.472871
  S     9.548198  0.032866  4.517521
  S     9.385919  4.209255  4.541691
