16  
    
  C     7.800339 -0.730245  2.005062
  C     8.215312  2.878049  2.477830
  C     6.717667 -1.440618  1.401535
  C     6.969807  2.615836  1.808075
  N     8.849497 -0.497807  1.173133
  N     9.193795  3.143146  1.642033
  N     6.902393 -1.702032  0.090572
  N     6.994978  2.546865  0.490380
  N     6.015354 -1.129075  3.883372
  N     6.406426  2.710949  4.343018
  S     5.369339 -1.684759  2.498341
  S     5.666680  2.355784  2.924308
  S     8.448259 -1.139297 -0.328081
  S     8.600162  2.843880  0.108607
  S     7.617596 -0.601845  3.813808
  S     8.085991  2.979940  4.234420
