16  
    
  C    10.289538  0.076462  2.780891
  C    10.220771  4.056788  3.087525
  C     9.023422 -0.383728  2.122212
  C     8.938605  3.658206  2.512196
  N    11.315917  0.079023  1.974829
  N    11.204592  4.050652  2.238911
  N     9.207345 -0.652457  0.846251
  N     8.935435  3.432436  1.182563
  N     8.557188  0.099688  4.625053
  N     8.602246  4.443249  4.996177
  S     7.747457 -0.611876  3.302003
  S     7.731462  3.939349  3.670828
  S    10.802431 -0.436534  0.498086
  S    10.628353  3.640078  0.775639
  S    10.246740  0.235332  4.536718
  S    10.263659  4.431262  4.831482
