16  
    
  C    11.253702  0.421394  3.029153
  C    11.137920  4.460648  3.363802
  C    10.097119 -0.134040  2.357007
  C     9.853536  4.204437  2.776092
  N    12.254933  0.693490  2.201827
  N    12.150540  4.306614  2.516750
  N    10.266573 -0.462021  1.074027
  N     9.874212  3.937450  1.494108
  N     9.441791  0.385044  4.791308
  N     9.481555  4.046628  5.289551
  S     8.736077 -0.323450  3.424116
  S     8.553904  4.320514  3.955399
  S    11.806753  0.077536  0.743867
  S    11.476223  4.049257  1.040987
  S    10.985666  1.084173  4.642295
  S    11.073382  4.571805  5.108671
