16  
    
  C    10.548574  0.760244  3.017109
  C    10.650451  4.532823  2.840837
  C     9.341296  0.254842  2.425371
  C     9.563458  3.760137  2.296406
  N    11.532911  0.840687  2.117803
  N    11.594898  4.715960  1.914680
  N     9.478597 -0.182324  1.161466
  N     9.686721  3.281128  1.079845
  N     8.862797  0.579104  4.910462
  N     8.836942  4.341511  4.660387
  S     8.111689  0.048733  3.552906
  S     8.145423  3.680205  3.304790
  S    10.964811  0.245368  0.686438
  S    11.165338  3.834008  0.600231
  S    10.382251  1.207145  4.710818
  S    10.356900  5.031949  4.466444
