16  
    
  C    10.997435  0.619997  3.150304
  C    11.064035  4.315321  3.440544
  C     9.880062 -0.030071  2.490942
  C     9.886631  3.818703  2.810333
  N    11.986894  1.012884  2.361014
  N    11.995628  4.535957  2.543417
  N     9.903448 -0.021892  1.181484
  N     9.863317  3.681878  1.474762
  N     9.141738  0.126892  4.937495
  N     9.273174  4.048118  5.284912
  S     8.442142 -0.124479  3.452496
  S     8.538796  3.492963  3.863930
  S    11.398176  0.631597  0.818583
  S    11.382928  4.238471  1.056283
  S    10.739849  0.643504  4.874094
  S    10.814773  4.638706  5.134957
