16  
    
  C     7.189972 -1.348198  2.306581
  C     7.834397  2.757961  2.305379
  C     6.144788 -1.929141  1.529779
  C     6.612785  2.287959  1.666523
  N     8.246688 -0.950764  1.597185
  N     8.843661  3.068296  1.455909
  N     6.306082 -1.809852  0.218493
  N     6.691975  2.101374  0.334012
  N     5.316095 -1.805251  3.953000
  N     6.034954  2.480503  4.205823
  S     4.725840 -2.243209  2.430509
  S     5.261440  2.062367  2.717710
  S     7.810250 -1.163338  0.010925
  S     8.314208  2.596525 -0.037500
  S     6.841553 -1.236081  3.963702
  S     7.581664  3.076746  4.032761
