16  
    
  C     7.165131 -1.428604  2.225323
  C     7.163203  2.223650  2.053539
  C     5.950757 -1.847831  1.599546
  C     5.932538  1.714641  1.487866
  N     8.165183 -1.101300  1.389624
  N     8.211866  2.344450  1.257506
  N     6.090640 -2.104665  0.280186
  N     5.968848  1.550790  0.169835
  N     5.366597 -1.315256  4.107538
  N     5.509273  1.963653  3.966330
  S     4.644361 -1.982774  2.793612
  S     4.667853  1.614795  2.604074
  S     7.635894 -1.688322 -0.110050
  S     7.593122  1.827724 -0.267309
  S     6.981745 -1.158723  3.955086
  S     7.017863  2.518033  3.763015
