16  
    
  C     7.296518 -1.690588  2.239334
  C     7.423490  2.386579  2.150519
  C     6.049949 -1.929718  1.568356
  C     6.226214  1.841266  1.561525
  N     8.367778 -1.610579  1.439494
  N     8.422709  2.416612  1.277169
  N     6.216561 -2.167542  0.261424
  N     6.295553  1.580434  0.261351
  N     5.514884 -2.004746  4.104870
  N     5.784772  2.263660  4.073193
  S     4.768244 -2.274984  2.637025
  S     4.944816  1.683876  2.759071
  S     7.817037 -1.914009 -0.098043
  S     7.828950  1.984950 -0.158587
  S     7.054994 -1.568537  3.974083
  S     7.354694  2.583833  3.910489
