16  
    
  C     6.200012 -1.537285  1.560023
  C     6.388810  1.999772  1.845194
  C     5.071900 -2.203828  0.945412
  C     5.169136  1.725208  1.167221
  N     7.227310 -1.382876  0.735442
  N     7.451522  2.153526  1.052368
  N     5.178002 -2.489178 -0.371293
  N     5.333667  1.542559 -0.150337
  N     4.500549 -1.908051  3.424846
  N     4.605025  1.845530  3.683973
  S     3.748987 -2.443513  2.024448
  S     3.861243  1.498231  2.274312
  S     6.807516 -2.105391 -0.728053
  S     6.913176  1.774822 -0.444018
  S     5.966110 -1.199764  3.214707
  S     6.202149  2.256802  3.612256
