16  
    
  C    12.096652  1.301594  3.494383
  C    11.880880  4.890594  3.764177
  C    10.896635  0.857249  2.898209
  C    10.742622  4.254399  3.153720
  N    13.063112  1.845308  2.735301
  N    12.747035  5.281294  2.877531
  N    10.989454  0.876682  1.590204
  N    10.759362  4.197826  1.827699
  N    10.426128  0.674629  5.379057
  N    10.213486  4.398982  5.705764
  S     9.686745  0.197848  4.005626
  S     9.467567  3.881747  4.277480
  S    12.438206  1.506834  1.188114
  S    12.102259  4.914270  1.377758
  S    11.906822  1.321896  5.210033
  S    11.759279  5.016217  5.513095
