16  
    
  C     5.900798 -2.191943  1.714956
  C     5.426199  1.178961  1.714037
  C     4.613916 -2.450741  1.164618
  C     4.194514  0.802081  1.122719
  N     6.850295 -2.067827  0.785026
  N     6.510474  1.093906  0.932145
  N     4.596208 -2.655227 -0.177348
  N     4.267059  0.575865 -0.180807
  N     4.299603 -2.319506  3.754319
  N     3.743705  1.221451  3.651686
  S     3.370051 -2.571819  2.383099
  S     2.915915  0.697747  2.278777
  S     6.157690 -2.263842 -0.699035
  S     5.892093  0.794005 -0.586202
  S     5.976314 -2.002409  3.417939
  S     5.318131  1.669066  3.413759
