16  
    
  C     8.606094 -1.050375  2.375463
  C     8.340485  3.010294  2.112546
  C     7.510808 -1.660698  1.750522
  C     7.157869  2.445251  1.555246
  N     9.578527 -0.705355  1.510256
  N     9.335187  3.212929  1.232813
  N     7.573110 -1.799709  0.406032
  N     7.230678  2.183843  0.232543
  N     6.943792 -1.345394  4.194819
  N     6.646558  2.761734  4.062714
  S     6.228213 -1.914226  2.786482
  S     5.860986  2.165416  2.663553
  S     9.008373 -1.143355  0.031024
  S     8.723543  2.764625 -0.233634
  S     8.512108 -0.913307  4.106522
  S     8.225513  3.283200  3.890257
