16  
    
  C    12.517477  1.485719  3.619742
  C    12.345845  5.196634  3.442957
  C    11.326461  0.966499  3.067223
  C    11.092950  4.751453  2.807861
  N    13.511526  1.812990  2.803317
  N    13.433322  5.213168  2.594761
  N    11.356171  0.882729  1.729579
  N    11.227388  4.586110  1.505375
  N    10.825604  1.468480  5.503183
  N    10.698361  4.923538  5.384668
  S    10.115954  0.815553  4.218210
  S     9.784827  4.593218  4.024330
  S    12.902387  1.413155  1.295860
  S    12.764813  4.844782  1.084909
  S    12.428788  1.717065  5.396117
  S    12.255125  5.438454  5.117302
