16  
    
  C    12.482398  1.737166  3.395252
  C    12.798096  5.401466  3.439721
  C    11.248684  1.250150  2.702260
  C    11.654075  5.015020  2.723072
  N    13.503437  1.951599  2.584040
  N    13.810840  5.634855  2.572008
  N    11.419044  1.266993  1.367119
  N    11.710647  4.888088  1.413833
  N    10.825978  1.099961  5.209706
  N    11.007931  4.983022  5.257766
  S    10.105199  0.657656  3.796642
  S    10.365622  4.502585  3.781142
  S    12.946811  1.684908  1.020175
  S    13.318877  5.248102  1.040566
  S    12.417225  1.550371  5.135206
  S    12.564905  5.578533  5.150852
