16  
    
  C    10.209618  0.463986  2.854010
  C    10.806597  4.418157  2.832476
  C     9.054934 -0.151240  2.283423
  C     9.599303  4.047148  2.173437
  N    11.125899  0.920264  1.954182
  N    11.800948  4.712613  1.977267
  N     9.055753 -0.149914  0.938660
  N     9.705355  3.778463  0.866719
  N     8.513933  0.008168  4.770997
  N     8.913335  3.874655  4.623601
  S     7.705558 -0.472969  3.377915
  S     8.203290  3.704156  3.129328
  S    10.425658  0.574526  0.492990
  S    11.222631  4.313304  0.482690
  S    10.072258  0.560982  4.600167
  S    10.490159  4.344818  4.588331
