16  
    
  C    11.786461  1.123838  3.347116
  C    11.909601  5.058115  3.310441
  C    10.668802  0.581521  2.688768
  C    10.707360  4.554282  2.713067
  N    12.875425  1.134657  2.624219
  N    12.992666  5.111490  2.565287
  N    10.840222  0.271348  1.396079
  N    10.881072  4.261264  1.448998
  N    10.005155  0.916373  5.195464
  N    10.140737  4.857816  5.159641
  S     9.241538  0.584575  3.725111
  S     9.315336  4.434986  3.808872
  S    12.411096  0.697615  1.094622
  S    12.456244  4.460670  1.092605
  S    11.572116  1.651526  5.085357
  S    11.722125  5.318497  5.006673
