16  
    
  C     7.183995 -1.284075  2.273582
  C     7.771484  2.786958  2.329008
  C     6.199477 -2.054282  1.506348
  C     6.558416  2.427845  1.658371
  N     8.190393 -0.848476  1.542348
  N     8.836923  2.971252  1.530437
  N     6.481629 -2.082601  0.233442
  N     6.696608  2.259394  0.353408
  N     5.339508 -2.125690  3.954527
  N     5.954522  2.334806  4.169925
  S     4.776430 -2.554555  2.473117
  S     5.244145  2.014787  2.702482
  S     7.915391 -1.258561 -0.043667
  S     8.247930  2.718724  0.024918
  S     6.882028 -1.367949  4.012755
  S     7.545586  2.980845  4.029644
