16  
    
  C     7.765904 -0.848933  1.768828
  C     7.793539  2.945630  2.346611
  C     6.568582 -1.397526  1.215373
  C     6.676470  2.392624  1.629989
  N     8.752806 -0.836945  0.904865
  N     8.920136  3.117864  1.635449
  N     6.611407 -1.744432 -0.055890
  N     6.888097  2.193056  0.321327
  N     6.144545 -1.080622  3.703433
  N     5.909919  2.672817  4.029447
  S     5.251618 -1.451972  2.371958
  S     5.300983  2.138497  2.643286
  S     8.186843 -1.421694 -0.507081
  S     8.520492  2.694900  0.068560
  S     7.759694 -0.626954  3.475463
  S     7.462286  3.219810  4.047344
