16  
    
  C    11.937574  1.293161  3.285703
  C    11.765907  4.794486  3.645390
  C    10.889406  0.628587  2.654954
  C    10.604643  4.448197  2.894473
  N    13.005100  1.544465  2.529286
  N    12.887641  4.962494  2.873296
  N    11.028674  0.458288  1.336670
  N    10.784062  4.240816  1.602477
  N    10.186274  0.984249  5.147405
  N     9.920110  4.543891  5.391429
  S     9.450139  0.524202  3.702656
  S     9.263915  4.118581  3.912440
  S    12.585123  1.062994  0.997423
  S    12.439787  4.656757  1.310282
  S    11.771084  1.492889  4.989073
  S    11.490680  5.075203  5.369471
