16  
    
  C    10.198578  0.509218  2.897248
  C    10.751583  4.269040  2.857836
  C     8.997062  0.007431  2.287524
  C     9.526485  4.126871  2.161357
  N    11.146400  1.046326  2.099376
  N    11.885201  4.545105  2.211667
  N     9.048174  0.017030  0.955541
  N     9.743281  4.277111  0.874022
  N     8.557328  0.003322  4.834689
  N     8.934903  3.787318  4.661681
  S     7.828106 -0.635805  3.459252
  S     8.138093  3.704265  3.220383
  S    10.583228  0.670556  0.583930
  S    11.313321  4.676933  0.642359
  S    10.149356  0.375524  4.595006
  S    10.523081  4.270084  4.538137
