16  
    
  C    11.082964  0.464207  3.161892
  C    11.129027  4.275303  3.021196
  C     9.888451  0.020526  2.501190
  C     9.989440  3.706368  2.376091
  N    12.047222  0.807156  2.300500
  N    12.143544  4.486643  2.220702
  N     9.993379 -0.251557  1.185769
  N    10.066292  3.570804  1.042079
  N     9.317336  0.288196  5.002250
  N     9.232544  4.122987  4.783860
  S     8.585967 -0.192989  3.597045
  S     8.587272  3.392033  3.444671
  S    11.456710  0.425614  0.782206
  S    11.611951  3.995539  0.641816
  S    10.931459  0.676561  4.923982
  S    10.854703  4.504493  4.723643
