16  
    
  C     8.947060 -0.213985  2.546300
  C     8.665961  3.431844  2.562968
  C     7.738600 -0.708013  1.914357
  C     7.405971  2.944440  1.942807
  N     9.965237 -0.083583  1.713487
  N     9.575611  3.761020  1.667411
  N     7.814174 -0.756592  0.610875
  N     7.439238  2.771902  0.616917
  N     7.153153 -0.547643  4.463524
  N     7.114333  2.784099  4.546740
  S     6.429838 -0.972536  3.022970
  S     6.235577  2.527242  3.144164
  S     9.400087 -0.385732  0.152010
  S     8.926145  3.472809  0.197524
  S     8.798428 -0.270035  4.332962
  S     8.696810  3.284368  4.315148
