16  
    
  C     9.013959 -0.580042  2.407493
  C     9.523702  3.495317  2.756110
  C     7.880796 -0.985963  1.615038
  C     8.254432  3.111074  2.085902
  N    10.129526 -0.390340  1.766533
  N    10.504077  3.377581  1.891730
  N     8.190325 -1.226103  0.373826
  N     8.346425  2.757046  0.810173
  N     7.026019 -0.397151  4.008847
  N     7.820037  3.722146  4.583808
  S     6.453325 -1.043019  2.605228
  S     6.965886  3.356769  3.202811
  S     9.799426 -0.856738  0.243293
  S     9.920638  2.917587  0.398254
  S     8.662232 -0.134951  4.069060
  S     9.512141  3.802991  4.483086
