16  
    
  C    11.611416  1.105180  2.977513
  C    11.878817  5.167127  3.092751
  C    10.347288  0.708315  2.385828
  C    10.749565  4.414765  2.591855
  N    12.634538  1.120736  2.162422
  N    12.864672  5.268321  2.173907
  N    10.401899  0.559193  1.072988
  N    10.781786  3.958606  1.355746
  N    10.077393  0.615473  5.013927
  N    10.276120  4.875852  5.058822
  S     9.169654  0.422430  3.605088
  S     9.472425  4.195165  3.777725
  S    12.007524  0.917508  0.651912
  S    12.344483  4.386279  0.865001
  S    11.576724  1.307814  4.746310
  S    11.770103  5.565814  4.783596
