16  
    
  C    10.088471  0.597935  2.734190
  C    10.673288  4.151238  2.786868
  C     8.943478  0.010277  2.151129
  C     9.451539  3.811553  2.127152
  N    11.148085  0.682417  1.905788
  N    11.668801  4.402881  1.961048
  N     9.050133 -0.129296  0.812220
  N     9.537219  3.663310  0.787660
  N     8.468172  0.128860  4.675098
  N     9.023736  4.090023  4.723593
  S     7.701300 -0.444990  3.319434
  S     8.193000  3.680925  3.349394
  S    10.587241  0.289900  0.393598
  S    11.202133  4.074443  0.434453
  S     9.996976  0.807113  4.479714
  S    10.564637  4.610298  4.477033
