16  
    
  C    12.061545  1.312047  3.481095
  C    11.893507  4.854029  3.759663
  C    10.889344  0.862077  2.887440
  C    10.751828  4.247499  3.166110
  N    13.061881  1.794547  2.724095
  N    12.755543  5.303222  2.887243
  N    10.979458  0.881085  1.559309
  N    10.761084  4.168649  1.812477
  N    10.417715  0.691251  5.373556
  N    10.182425  4.413164  5.695970
  S     9.690797  0.197966  3.993996
  S     9.446208  3.881749  4.284375
  S    12.447625  1.498879  1.192090
  S    12.111823  4.902337  1.367479
  S    11.914484  1.318793  5.198572
  S    11.731075  5.009162  5.500270
