16  
    
  C     9.934561 -0.262492  2.978338
  C    10.160969  3.555742  3.012379
  C     8.753038 -0.609457  2.172606
  C     8.866070  3.715540  2.328036
  N    10.970494  0.135785  2.275727
  N    11.165526  3.489225  2.152865
  N     9.021215 -0.585293  0.869727
  N     8.986111  3.880205  1.004776
  N     8.042551 -0.627207  4.670352
  N     8.550030  3.529528  4.929628
  S     7.397009 -0.971905  3.193256
  S     7.642300  3.790836  3.602953
  S    10.604996 -0.067053  0.690947
  S    10.571468  3.718943  0.631249
  S     9.682483 -0.168057  4.706592
  S    10.214518  3.224952  4.703971
