16  
    
  C    11.374080  0.651233  2.984290
  C    11.073517  4.591984  3.539830
  C    10.343629 -0.055475  2.217059
  C     9.814821  4.166412  2.990768
  N    12.481012  0.904591  2.320024
  N    12.098136  4.619342  2.689542
  N    10.697984 -0.294378  0.949617
  N     9.924347  3.731020  1.736631
  N     9.409570  0.362511  4.611251
  N     9.405177  4.527922  5.552808
  S     8.789963 -0.124267  3.118258
  S     8.546711  4.090949  4.205798
  S    12.314175  0.269181  0.828326
  S    11.492298  4.068310  1.263978
  S    10.982985  0.926103  4.698897
  S    10.911828  5.118546  5.236332
