16  
    
  C     8.417579 -0.852228  2.494990
  C     8.289807  2.269039  2.161498
  C     7.190720 -1.209554  1.802828
  C     7.156815  1.881365  1.317134
  N     9.491570 -0.907106  1.653817
  N     9.359371  2.546888  1.409652
  N     7.282283 -1.380122  0.456917
  N     7.368669  1.808433  0.000750
  N     6.498999 -0.654323  4.216728
  N     6.262784  2.182519  3.639281
  S     5.813804 -1.010584  2.784464
  S     5.700181  1.684184  2.214066
  S     8.898791 -1.221904  0.120370
  S     8.984237  2.283329 -0.194759
  S     8.192667 -0.609028  4.198638
  S     7.861007  2.542203  3.874222
