16  
    
  C     9.735675 -0.113068  2.852255
  C     9.759870  3.515841  2.732439
  C     8.553621 -0.647734  2.217960
  C     8.543065  3.184288  2.092079
  N    10.749764  0.126612  2.049195
  N    10.713342  3.909065  1.868226
  N     8.742918 -0.828116  0.937426
  N     8.548732  3.269556  0.773810
  N     7.885920 -0.478946  4.666946
  N     7.922757  3.230364  4.612058
  S     7.127588 -0.818538  3.224526
  S     7.093797  3.313335  3.184293
  S    10.252266 -0.339283  0.535962
  S    10.028697  3.806187  0.384677
  S     9.503943  0.089523  4.605892
  S     9.536467  3.548365  4.472686
