16  
    
  C     5.749298 -2.167566  2.085442
  C     5.912504  1.418665  1.956805
  C     4.536362 -2.628431  1.451661
  C     4.759541  0.946643  1.235429
  N     6.788139 -1.913641  1.275853
  N     6.940509  1.684335  1.144690
  N     4.674190 -2.879381  0.157630
  N     4.872765  1.060333 -0.089925
  N     3.864950 -2.157282  3.954720
  N     4.120780  0.870414  3.735791
  S     3.249114 -2.878775  2.540006
  S     3.451675  0.472979  2.273401
  S     6.222723 -2.460840 -0.237933
  S     6.390604  1.539831 -0.398558
  S     5.553989 -1.916155  3.829494
  S     5.620475  1.578424  3.650222
