16  
    
  C     5.459160 -2.315650  1.701275
  C     5.184477  1.614689  1.502791
  C     4.339843 -2.735381  0.918013
  C     4.149201  1.013197  0.728629
  N     6.556135 -2.077237  0.963356
  N     6.346525  1.675597  0.880257
  N     4.522965 -2.714514 -0.412901
  N     4.430349  0.888517 -0.574332
  N     3.541268 -2.520103  3.344197
  N     3.164998  1.531213  3.066035
  S     2.893984 -2.922018  1.891299
  S     2.769301  0.703195  1.707281
  S     6.145561 -2.395412 -0.645803
  S     6.033979  1.235171 -0.677203
  S     5.146842 -2.129383  3.419940
  S     4.782361  2.081620  3.175385
