16  
    
  C    11.977029  1.480106  3.588097
  C    11.898712  5.055544  3.730767
  C    10.908937  0.865464  2.891373
  C    10.699927  4.521427  3.198073
  N    12.877046  2.041995  2.794711
  N    12.835046  5.383708  2.849469
  N    11.080672  0.632764  1.601084
  N    10.684446  4.566119  1.896112
  N    10.507105  0.642000  5.397713
  N    10.487262  4.285511  5.828533
  S     9.716892  0.255692  4.027321
  S     9.588276  3.907766  4.467849
  S    12.416535  1.565723  1.234738
  S    12.206192  5.030980  1.377617
  S    11.911114  1.483626  5.304325
  S    11.946493  4.999102  5.468037
