16  
    
  C     8.996813 -0.514282  2.439020
  C     9.550563  3.433802  2.757519
  C     7.895424 -1.042264  1.676093
  C     8.265932  3.123650  2.151653
  N    10.161867 -0.392346  1.751725
  N    10.549687  3.366836  1.881301
  N     8.152578 -1.229677  0.355455
  N     8.367689  2.703097  0.876519
  N     6.996771 -0.305916  4.002081
  N     7.789206  3.654328  4.606458
  S     6.446513 -1.055575  2.601111
  S     6.935029  3.341716  3.196018
  S     9.786704 -0.840146  0.219383
  S     9.905610  2.942802  0.366389
  S     8.644207 -0.121384  4.035687
  S     9.504882  3.776186  4.474235
