16  
    
  C    10.323118  0.424263  2.544278
  C    10.474990  4.203094  3.078009
  C     9.135014 -0.194286  1.930180
  C     9.152119  3.821042  2.550631
  N    11.458701  0.205774  1.855728
  N    11.511502  4.149826  2.195163
  N     9.352482 -0.623912  0.679949
  N     9.272068  3.424616  1.308687
  N     8.384256  0.592404  4.272378
  N     8.656690  4.366164  4.997037
  S     7.787465 -0.363524  3.057143
  S     7.780198  3.941017  3.661572
  S    11.014749 -0.523956  0.414009
  S    10.753236  3.605587  0.749828
  S    10.012071  0.849705  4.149550
  S    10.255854  4.679582  4.747545
