16  
    
  C    11.076963  0.505875  3.244957
  C    11.179804  4.164079  3.144031
  C     9.872442  0.059439  2.524681
  C     9.929114  3.800533  2.474099
  N    12.077115  0.894010  2.489111
  N    12.181821  4.319290  2.307831
  N    10.011200 -0.000176  1.210285
  N     9.994698  3.679065  1.150215
  N     9.316494 -0.049767  5.084278
  N     9.530385  3.857471  5.052710
  S     8.509771 -0.242938  3.650190
  S     8.689413  3.432729  3.683536
  S    11.593302  0.526078  0.922636
  S    11.573277  4.148581  0.764266
  S    10.798245  0.700507  4.941658
  S    11.083241  4.425378  4.822935
