16  
    
  C     7.283159 -1.479960  2.233082
  C     7.449828  2.203974  2.190539
  C     6.094137 -2.098708  1.655617
  C     6.229108  1.777966  1.568085
  N     8.260587 -1.294263  1.375603
  N     8.542381  2.282373  1.427298
  N     6.224356 -2.487318  0.401353
  N     6.354512  1.473571  0.277143
  N     5.446047 -1.510405  4.071340
  N     5.717669  2.133954  4.105384
  S     4.716690 -2.152847  2.675153
  S     4.956782  1.583514  2.698295
  S     7.710660 -2.006163 -0.039070
  S     8.030870  1.702265 -0.084961
  S     7.060271 -1.168329  3.930002
  S     7.287888  2.657860  3.839703
