16  
    
  C     7.951159 -0.694519  2.331776
  C     8.399343  2.921802  2.347496
  C     6.828468 -1.332444  1.658196
  C     7.037762  2.648504  1.838078
  N     9.004953 -0.435897  1.562115
  N     9.313098  2.984725  1.401348
  N     6.981465 -1.364033  0.354124
  N     6.931683  2.337626  0.554910
  N     6.050043 -1.062108  4.099847
  N     6.771205  2.874297  4.373353
  S     5.535623 -1.810107  2.698003
  S     5.783446  2.710284  3.045428
  S     8.517955 -0.818932 -0.009132
  S     8.531213  2.590625  0.001969
  S     7.575989 -0.574086  4.042543
  S     8.414425  3.158292  4.081667
