16  
    
  C    11.066298  0.465845  3.180850
  C    11.126251  4.267513  3.049979
  C     9.901100  0.006203  2.518729
  C     9.984173  3.689800  2.380090
  N    12.035254  0.805151  2.313206
  N    12.157435  4.469927  2.248270
  N    10.028115 -0.227148  1.195459
  N    10.069061  3.616669  1.056548
  N     9.317563  0.240757  5.010485
  N     9.274465  4.099329  4.815895
  S     8.571588 -0.197281  3.607294
  S     8.598358  3.392009  3.477999
  S    11.468689  0.447089  0.800239
  S    11.608238  4.005905  0.651851
  S    10.928469  0.678290  4.918066
  S    10.883367  4.496477  4.716841
