16  
    
  C     4.357389 -2.491971  1.722332
  C     4.094842  1.258227  1.518733
  C     3.240621 -3.235923  1.150552
  C     2.930613  0.545173  0.971878
  N     5.271493 -2.154697  0.828245
  N     5.041826  1.410323  0.609921
  N     3.293558 -3.369432 -0.148078
  N     2.993544  0.350939 -0.348556
  N     2.551980 -2.742086  3.618441
  N     2.297801  1.091806  3.410668
  S     1.892016 -3.445168  2.274032
  S     1.543123  0.488621  2.055337
  S     4.748388 -2.752927 -0.613302
  S     4.528401  0.798968 -0.861290
  S     4.093796 -2.186056  3.451025
  S     3.875493  1.620632  3.182396
