16  
    
  C    12.590081  1.554265  3.584097
  C    12.368562  5.206615  3.472466
  C    11.338760  1.059409  3.015855
  C    11.106252  4.780998  2.844952
  N    13.539047  1.790898  2.695341
  N    13.338030  5.378672  2.532453
  N    11.406379  0.865357  1.691713
  N    11.137690  4.539339  1.574982
  N    10.816777  1.407359  5.519377
  N    10.673365  4.895269  5.397943
  S    10.046773  0.746150  4.120943
  S     9.866721  4.642691  3.974576
  S    12.860271  1.393741  1.213100
  S    12.752907  4.887895  1.090389
  S    12.460822  1.755112  5.268807
  S    12.231201  5.489036  5.231158
