16  
    
  C    12.171078  1.075164  3.449664
  C    12.311634  5.094641  3.328229
  C    10.923658  0.753489  2.738570
  C    10.997588  4.713469  2.762234
  N    13.196129  1.123813  2.592604
  N    13.262069  5.084520  2.418673
  N    11.038339  0.622755  1.437596
  N    11.028050  4.294040  1.484464
  N    10.219651  1.437105  5.129695
  N    10.534147  5.340795  5.183163
  S     9.459058  0.791547  3.745070
  S     9.696037  4.853162  3.846514
  S    12.659661  0.810266  1.068196
  S    12.614476  4.624173  0.939232
  S    11.880984  1.713801  5.026479
  S    12.169726  5.536447  5.059768
