16  
    
  C     8.470003 -0.996048  2.382004
  C     8.251490  2.708654  2.011214
  C     7.261431 -1.274599  1.670592
  C     7.035655  2.316366  1.334126
  N     9.546999 -0.875561  1.596973
  N     9.354587  2.761759  1.255297
  N     7.418081 -1.364716  0.348218
  N     7.222797  2.138448  0.017684
  N     6.642071 -1.162011  4.142296
  N     6.427041  2.325363  3.813241
  S     5.956258 -1.630452  2.666789
  S     5.683218  1.942450  2.378136
  S     9.020091 -1.133990  0.065581
  S     8.787304  2.475855 -0.276013
  S     8.273023 -0.931869  4.077824
  S     7.994976  2.845957  3.738466
