16  
    
  C    12.104468  1.635613  3.290398
  C    12.272975  5.413314  3.578343
  C    11.050144  1.004312  2.578779
  C    11.153810  4.687447  2.917726
  N    13.188622  1.863657  2.588946
  N    13.369266  5.593901  2.847704
  N    11.289051  0.819704  1.299612
  N    11.433344  4.411115  1.694048
  N    10.270964  1.217647  5.023799
  N    10.438977  4.917154  5.408434
  S     9.703617  0.727232  3.593622
  S     9.753526  4.420419  3.923478
  S    12.882689  1.297234  1.088042
  S    12.995503  5.042341  1.346203
  S    11.776172  1.801704  5.046816
  S    11.957112  5.627463  5.236601
