16  
    
  C    11.520484  1.459728  2.943982
  C    11.476913  5.004889  3.109709
  C    10.400102  0.619977  2.385045
  C    10.273421  4.530251  2.410980
  N    12.390059  1.731662  1.979198
  N    12.562486  5.313941  2.393648
  N    10.437872  0.369342  1.091198
  N    10.542769  4.381728  1.114382
  N    10.212374  0.619571  4.953797
  N     9.646996  4.318334  4.859587
  S     9.357153  0.034328  3.685359
  S     8.983045  3.964061  3.333096
  S    11.936748  0.945809  0.607301
  S    12.081553  4.980962  0.844404
  S    11.499710  1.596402  4.644252
  S    11.156775  5.034220  4.835728
