16  
    
  C    10.064996  0.072176  2.636695
  C     9.884556  4.080005  2.744862
  C     8.897101 -0.562542  2.076837
  C     8.898478  3.136909  2.233859
  N    11.055546  0.248279  1.770334
  N    10.874936  4.397015  1.923196
  N     8.964002 -0.704482  0.786656
  N     9.215773  2.681398  1.037464
  N     8.257788 -0.393076  4.513859
  N     8.140959  3.532586  4.624760
  S     7.527882 -0.862411  3.118758
  S     7.791579  2.509666  3.385543
  S    10.453089 -0.204860  0.283362
  S    10.666737  3.319610  0.581681
  S     9.838667  0.179352  4.422671
  S     9.452050  4.524185  4.358530
