16  
    
  C    11.552084  1.224238  3.014555
  C    11.411263  4.880185  3.108660
  C    10.471775  0.400974  2.543215
  C    10.320749  4.338403  2.341357
  N    12.367047  1.732272  2.061074
  N    12.416751  5.261758  2.319315
  N    10.540921  0.181300  1.241523
  N    10.480752  4.226837  1.002686
  N     9.983640  0.761382  5.079394
  N     9.561046  4.491919  4.833045
  S     9.193319  0.085722  3.804695
  S     8.963096  3.900436  3.357415
  S    11.776968  1.152430  0.614757
  S    12.014418  4.903032  0.775804
  S    11.444374  1.496159  4.791140
  S    11.090627  5.119266  4.773564
