16  
    
  C     4.602959 -2.327787  1.581778
  C     5.127086  1.585251  1.878963
  C     3.574433 -3.041557  0.862412
  C     3.804913  1.377810  1.299701
  N     5.615193 -1.955627  0.799364
  N     6.119399  1.489137  1.001739
  N     3.703407 -3.089870 -0.473532
  N     3.806759  1.216879 -0.016392
  N     2.894651 -3.056661  3.354940
  N     3.656825  1.519235  3.838739
  S     2.266887 -3.486156  1.873534
  S     2.628215  1.426562  2.614017
  S     5.154871 -2.317727 -0.815701
  S     5.394654  1.276716 -0.435689
  S     4.387779 -2.300175  3.307818
  S     5.268839  1.744425  3.600385
