16  
    
  C    11.877797  1.137398  3.397096
  C    11.895177  5.002521  3.411983
  C    10.672202  0.586414  2.728698
  C    10.691246  4.615759  2.727034
  N    12.970783  1.197419  2.612742
  N    12.959979  5.067215  2.562350
  N    10.875144  0.413937  1.418980
  N    10.876013  4.231270  1.494380
  N    10.030797  0.989040  5.187298
  N    10.055656  4.838420  5.192630
  S     9.271339  0.550881  3.768674
  S     9.310016  4.435625  3.759175
  S    12.477632  0.707778  1.098817
  S    12.470116  4.500347  1.114097
  S    11.553450  1.636170  4.978669
  S    11.676947  5.238170  5.077706
