16  
    
  C     9.764804 -0.437175  2.554085
  C     9.679212  3.392495  2.552022
  C     8.488273 -0.930798  2.013010
  C     8.448362  3.210699  1.951158
  N    10.731846 -0.294376  1.701808
  N    10.744948  3.667316  1.799153
  N     8.472365 -0.946848  0.703236
  N     8.515821  3.177026  0.637441
  N     8.080525 -0.542728  4.516732
  N     8.006145  2.869044  4.493116
  S     7.182108 -1.012881  3.215182
  S     7.142261  2.859551  3.127012
  S    10.070825 -0.609808  0.206099
  S    10.094347  3.513089  0.262235
  S     9.718897 -0.263075  4.298180
  S     9.624193  3.204664  4.199500
