16  
    
  C     7.226324 -1.352028  2.214698
  C     7.359261  2.140331  2.120366
  C     6.054162 -1.970962  1.646977
  C     6.163711  1.567652  1.560614
  N     8.253347 -1.300134  1.394264
  N     8.329459  2.339216  1.242830
  N     6.127545 -2.203929  0.346737
  N     6.284639  1.324994  0.260088
  N     5.452383 -1.396268  4.086385
  N     5.588019  2.056031  4.026356
  S     4.746813 -2.098446  2.781036
  S     4.841334  1.639083  2.632134
  S     7.730501 -1.898668 -0.073956
  S     7.743356  1.784529 -0.189246
  S     7.021377 -0.901941  3.845540
  S     7.202857  2.501278  3.822594
