16  
    
  C    10.320622  0.447023  2.546754
  C    10.488125  4.185994  3.089492
  C     9.130340 -0.168463  1.944184
  C     9.170461  3.823987  2.551856
  N    11.457506  0.218044  1.853798
  N    11.507815  4.174245  2.184071
  N     9.348008 -0.613427  0.686162
  N     9.277994  3.418257  1.305472
  N     8.382756  0.597409  4.264720
  N     8.654582  4.389429  4.972644
  S     7.775470 -0.355711  3.039870
  S     7.804620  3.935986  3.643755
  S    11.017561 -0.515085  0.391062
  S    10.752882  3.609715  0.737670
  S    10.005031  0.860709  4.152139
  S    10.264134  4.673165  4.760075
