16  
    
  C     9.908402 -0.142019  2.902581
  C    10.173516  3.556148  2.784851
  C     8.736303 -0.674776  2.179905
  C     8.819401  3.358015  2.253733
  N    10.973227  0.042003  2.183390
  N    11.089559  3.751835  1.832157
  N     8.913074 -0.698495  0.881996
  N     8.809794  3.305906  0.910210
  N     8.176066 -0.747276  4.715463
  N     8.620244  3.337660  4.816696
  S     7.395137 -0.810260  3.310079
  S     7.615578  3.239929  3.519259
  S    10.527641 -0.286946  0.623282
  S    10.342914  3.536031  0.379276
  S     9.723461 -0.186527  4.564799
  S    10.205086  3.770622  4.505085
