16  
    
  C     6.287403 -1.621603  1.722319
  C     6.431365  2.159768  2.026833
  C     5.164553 -2.198409  1.067596
  C     5.256128  1.601096  1.339695
  N     7.369609 -1.428707  0.934254
  N     7.457958  2.354416  1.219307
  N     5.402116 -2.527038 -0.226552
  N     5.432837  1.275667  0.064077
  N     4.540876 -2.078697  3.580667
  N     4.667373  1.904941  3.816206
  S     3.856535 -2.561406  2.163883
  S     3.922472  1.327726  2.450550
  S     6.894702 -2.004648 -0.552509
  S     7.029876  1.804431 -0.318822
  S     6.052264 -1.471662  3.495490
  S     6.185779  2.574047  3.679321
