16  
    
  C     6.070262 -2.132734  1.713777
  C     6.131434  1.773973  1.806380
  C     4.818704 -2.503487  1.095540
  C     4.847823  1.813037  1.216249
  N     7.129564 -2.171442  0.933084
  N     7.169012  1.599058  0.968031
  N     4.915869 -2.639236 -0.212113
  N     4.902433  1.737238 -0.101147
  N     4.276157 -2.124060  3.660768
  N     4.400817  1.905196  3.738295
  S     3.442175 -2.499395  2.199268
  S     3.502458  1.961278  2.318721
  S     6.515762 -2.540808 -0.574604
  S     6.479129  1.506518 -0.540530
  S     5.945286 -1.881207  3.453045
  S     6.074229  1.870708  3.557295
