16  
    
  C     7.088901 -1.400024  2.267892
  C     7.115726  2.236144  2.091722
  C     5.847812 -1.677139  1.645158
  C     5.913237  1.788602  1.434338
  N     8.136616 -1.171228  1.406145
  N     8.154490  2.344832  1.266825
  N     5.964437 -1.880919  0.314915
  N     6.024546  1.604962  0.122769
  N     5.307517 -1.823737  4.128719
  N     5.308425  1.981304  3.927197
  S     4.550170 -2.018946  2.697877
  S     4.515754  1.671023  2.548583
  S     7.547243 -1.593577 -0.063622
  S     7.626664  1.920558 -0.209976
  S     6.901250 -1.313034  4.019615
  S     6.822195  2.575502  3.768126
