16  
    
  C     6.001858 -2.372041  1.825630
  C     6.099439  1.566706  1.871690
  C     4.732361 -2.525617  1.155977
  C     4.714493  1.615710  1.355248
  N     7.012578 -2.205116  0.946222
  N     7.083708  1.415643  0.976554
  N     4.817601 -2.686549 -0.173010
  N     4.676516  1.515048  0.036818
  N     4.173177 -2.145821  3.621621
  N     4.515037  2.222787  3.842109
  S     3.375044 -2.488467  2.221630
  S     3.497719  2.023472  2.493764
  S     6.416012 -2.499131 -0.559112
  S     6.272357  1.346421 -0.518476
  S     5.850350 -2.091970  3.519964
  S     6.143638  1.906564  3.579783
