16  
    
  C     3.232646 -2.934958  1.547878
  C     3.564006  0.556900  1.434591
  C     2.060382 -3.195618  0.736767
  C     2.349491  0.239828  0.758555
  N     4.359029 -2.720062  0.923903
  N     4.580759  0.760426  0.610944
  N     2.282823 -3.047539 -0.551314
  N     2.388202  0.433656 -0.562401
  N     1.383867 -3.562409  3.203057
  N     1.890135  0.127284  3.334692
  S     0.663696 -3.626993  1.655075
  S     1.015398 -0.003073  1.857275
  S     3.965659 -2.856391 -0.689335
  S     3.925815  0.744406 -0.973177
  S     3.014951 -3.118583  3.230433
  S     3.445783  0.690791  3.167964
