16  
    
  C     7.068674 -1.556172  2.257353
  C     7.038224  2.354096  2.103020
  C     5.809744 -1.814333  1.563546
  C     5.891538  1.800677  1.411798
  N     8.126503 -1.368180  1.507020
  N     8.139216  2.389726  1.366023
  N     5.978494 -1.826604  0.260570
  N     6.063702  1.517179  0.109830
  N     5.225690 -1.790025  4.045958
  N     5.226151  2.020962  3.820001
  S     4.468403 -2.086369  2.625859
  S     4.487802  1.660204  2.400642
  S     7.545214 -1.450753 -0.057732
  S     7.681616  1.906057 -0.183132
  S     6.872743 -1.376585  4.015540
  S     6.810330  2.541089  3.837146
