16  
    
  C    10.125900  0.606355  2.895841
  C    10.719821  4.345753  2.896440
  C     9.023344 -0.067015  2.253208
  C     9.517378  4.109058  2.106500
  N    11.059580  0.990025  2.058506
  N    11.785835  4.650556  2.167748
  N     9.079070 -0.016020  0.922520
  N     9.697272  4.181888  0.788337
  N     8.513769  0.130983  4.786739
  N     8.943214  3.864358  4.638016
  S     7.834846 -0.596702  3.437124
  S     8.151168  3.677572  3.172363
  S    10.517514  0.633888  0.548306
  S    11.360687  4.540019  0.602019
  S    10.134324  0.352513  4.649237
  S    10.539127  4.265000  4.583063
