16  
    
  C     8.773306 -0.246846  2.513333
  C     8.667487  3.050193  2.551291
  C     7.583280 -0.738047  1.857964
  C     7.428244  2.693423  1.903184
  N     9.747825  0.029575  1.707681
  N     9.744911  3.211413  1.767260
  N     7.682774 -0.868190  0.571595
  N     7.562796  2.572949  0.605399
  N     7.011119 -0.684405  4.334693
  N     6.740065  2.915723  4.330822
  S     6.229691 -0.974642  2.913722
  S     5.983376  2.447837  2.934608
  S     9.203156 -0.338248  0.181940
  S     9.163613  2.800835  0.279878
  S     8.506351 -0.089073  4.193198
  S     8.344930  3.250673  4.266023
