16  
    
  C     6.328834 -1.678891  2.205965
  C     6.585289  2.153973  2.156495
  C     5.158556 -2.184784  1.548870
  C     5.362740  1.609990  1.564744
  N     7.367701 -1.418112  1.369029
  N     7.519160  2.527968  1.281001
  N     5.221598 -2.153858  0.195368
  N     5.459283  1.508567  0.256902
  N     4.605023 -2.138216  4.056793
  N     4.916660  1.742885  4.099453
  S     3.803669 -2.491767  2.594131
  S     4.187587  1.086100  2.717823
  S     6.763665 -1.600572 -0.180119
  S     6.939641  2.138937 -0.180625
  S     6.227304 -1.778439  3.911683
  S     6.501361  2.283137  3.871741
