16  
    
  C    12.139863  1.368403  3.585093
  C    11.832410  4.945802  3.770160
  C    10.930247  0.785945  2.927665
  C    10.679763  4.293806  3.187783
  N    13.010986  1.900963  2.735604
  N    12.775586  5.271944  2.840122
  N    10.982536  0.852798  1.600504
  N    10.689331  4.243666  1.864181
  N    10.432671  0.626436  5.419012
  N    10.293370  4.358664  5.709029
  S     9.676167  0.207324  4.006134
  S     9.516168  3.881353  4.281970
  S    12.436209  1.534992  1.171281
  S    12.126752  4.957302  1.390688
  S    11.917787  1.348468  5.264353
  S    11.823544  5.029765  5.531898
