16  
    
  C     7.313132 -1.535344  2.183976
  C     7.594917  2.515073  2.157054
  C     6.142717 -2.019027  1.467706
  C     6.353693  2.020401  1.590804
  N     8.343627 -1.275388  1.355886
  N     8.537308  2.840483  1.285752
  N     6.190011 -1.981796  0.121068
  N     6.324006  1.982507  0.276825
  N     5.602904 -2.125622  3.946981
  N     5.908263  2.173670  4.099595
  S     4.880820 -2.577116  2.538222
  S     5.027990  1.942703  2.735998
  S     7.768620 -1.554032 -0.166871
  S     7.890672  2.449717 -0.270747
  S     7.192662 -1.595014  3.863344
  S     7.466664  2.666921  3.879102
