16  
    
  C    12.482133  1.599694  3.370422
  C    12.771116  5.508257  3.419418
  C    11.297352  1.220054  2.702767
  C    11.575309  5.029610  2.712143
  N    13.456104  1.954709  2.535847
  N    13.903237  5.695287  2.679683
  N    11.376764  1.140875  1.349932
  N    11.845025  4.908023  1.404040
  N    10.814232  1.157303  5.244977
  N    10.971342  4.918000  5.270130
  S    10.054912  0.607120  3.795151
  S    10.294560  4.519597  3.783418
  S    12.949958  1.700740  1.007478
  S    13.438249  5.257643  1.152206
  S    12.442945  1.565116  5.132707
  S    12.541551  5.564760  5.128076
