16  
    
  C    11.384828  0.635789  2.985057
  C    11.078872  4.621325  3.539318
  C    10.343116 -0.037691  2.210780
  C     9.835000  4.178781  2.992948
  N    12.475226  0.906390  2.320277
  N    12.097547  4.632063  2.700315
  N    10.693191 -0.282614  0.958329
  N     9.934983  3.719621  1.732492
  N     9.413138  0.369205  4.613621
  N     9.408360  4.519934  5.548420
  S     8.801200 -0.120471  3.114689
  S     8.549157  4.083499  4.208384
  S    12.297866  0.275010  0.829778
  S    11.496299  4.062242  1.256388
  S    10.988783  0.943441  4.704437
  S    10.907111  5.119308  5.234031
