16  
    
  C     4.065200 -2.668604  1.565578
  C     4.188710  1.465503  1.553088
  C     2.867236 -3.156190  0.973931
  C     2.901699  1.190992  1.004451
  N     5.179985 -2.737686  0.821945
  N     5.242756  1.316273  0.726357
  N     3.024364 -3.526245 -0.317627
  N     2.934381  0.973143 -0.316558
  N     2.331739 -2.607124  3.388972
  N     2.486275  1.409963  3.574851
  S     1.550643 -3.228623  2.068612
  S     1.637401  1.364436  2.179280
  S     4.660558 -3.302177 -0.682547
  S     4.516031  1.049558 -0.778507
  S     3.987824 -2.317806  3.240164
  S     4.154895  1.622456  3.325593
