16  
    
  C     5.060529 -2.357013  1.579324
  C     4.898784  1.593782  2.016399
  C     3.861896 -2.997894  1.034053
  C     3.721864  1.054491  1.386526
  N     6.107880 -2.333994  0.772859
  N     5.970963  1.780137  1.276242
  N     3.970217 -3.425854 -0.206919
  N     3.981207  0.730808  0.131533
  N     3.258254 -2.463618  3.486030
  N     3.127006  1.282428  3.822722
  S     2.472763 -2.852332  2.089962
  S     2.383109  0.718070  2.418593
  S     5.495697 -2.967617 -0.686848
  S     5.534111  1.226372 -0.226331
  S     4.846011 -1.935866  3.240863
  S     4.661398  1.815971  3.732392
