16  
    
  C    12.645919  1.579363  3.633959
  C    12.848115  5.487657  3.716995
  C    11.487011  1.069471  2.912122
  C    11.714593  4.827216  3.127530
  N    13.718591  1.680478  2.845471
  N    13.878430  5.783352  2.923787
  N    11.738210  0.682995  1.642173
  N    11.950874  4.622394  1.839260
  N    10.824283  1.542156  5.397013
  N    11.077547  5.183580  5.644800
  S    10.127281  0.930427  3.971996
  S    10.339121  4.734361  4.200638
  S    13.277404  1.131067  1.343406
  S    13.447477  5.241585  1.419077
  S    12.443919  2.007604  5.265394
  S    12.680735  5.821003  5.388331
