16  
    
  C     3.307611 -3.235467  1.239006
  C     3.626299  0.592014  1.374553
  C     2.076999 -3.344521  0.498719
  C     2.399683  0.305089  0.666613
  N     4.358835 -3.007835  0.512153
  N     4.646289  0.801001  0.554211
  N     2.269453 -3.303119 -0.816299
  N     2.532771  0.104942 -0.642572
  N     1.528235 -3.438830  2.970099
  N     1.794134  0.436880  3.149219
  S     0.658574 -3.508795  1.551431
  S     1.029047  0.078678  1.715285
  S     3.881768 -3.032695 -1.016869
  S     4.126472  0.412869 -0.971241
  S     3.173702 -3.326511  2.926367
  S     3.377706  0.663294  3.084237
