16  
    
  C     4.629021 -2.075539  1.584447
  C     4.752958  1.526656  1.773195
  C     3.348164 -2.369843  0.990696
  C     3.501858  1.355045  1.077643
  N     5.642034 -1.906128  0.707340
  N     5.813147  1.607102  0.966045
  N     3.417073 -2.620260 -0.338456
  N     3.611811  1.159166 -0.254787
  N     2.903944 -2.246449  3.480313
  N     2.909261  1.385422  3.694324
  S     2.014351 -2.547826  2.073362
  S     2.157359  1.197505  2.235872
  S     5.022288 -2.381014 -0.803614
  S     5.222199  1.348190 -0.558541
  S     4.545373 -2.065911  3.289632
  S     4.552118  1.686355  3.453534
