16  
    
  C    11.961989  1.473534  3.416191
  C    12.321497  5.152642  3.210255
  C    10.842703  0.778776  2.770105
  C    11.000902  4.825850  2.651558
  N    13.062336  1.528626  2.677779
  N    13.371917  4.991361  2.377244
  N    11.095412  0.459510  1.475671
  N    11.072186  4.370712  1.407254
  N    10.136385  1.161386  5.235908
  N    10.435615  5.371446  5.069377
  S     9.520748  0.704616  3.743749
  S     9.636399  4.821146  3.690570
  S    12.713606  0.822333  1.252573
  S    12.720472  4.470139  0.931920
  S    11.757482  1.610175  5.145339
  S    12.049570  5.690294  4.858990
