16  
    
  C     7.309288 -1.678366  2.158718
  C     7.442357  2.414881  2.113104
  C     6.125082 -2.154249  1.511191
  C     6.174445  1.996305  1.545410
  N     8.355178 -1.368009  1.356328
  N     8.468036  2.474216  1.286237
  N     6.259448 -2.213718  0.168599
  N     6.146463  1.903953  0.219553
  N     5.523202 -2.058884  4.048759
  N     5.859300  2.115844  4.055774
  S     4.817895 -2.315650  2.634181
  S     4.962184  1.755453  2.745085
  S     7.813504 -1.654557 -0.181683
  S     7.831247  2.205812 -0.230384
  S     7.136044 -1.702362  3.931828
  S     7.405743  2.677984  3.836879
