16  
    
  C    11.358460  1.007243  3.346393
  C    11.502893  4.738081  2.758429
  C    10.067704  0.574379  2.814706
  C    10.273607  4.204084  2.184602
  N    12.295074  1.202268  2.406740
  N    12.520734  4.934641  1.911297
  N    10.072023  0.358680  1.496986
  N    10.318649  4.165155  0.819294
  N     9.612172  0.754230  5.263925
  N     9.876396  4.359431  4.769052
  S     8.701076  0.463486  3.850288
  S     9.046728  4.010020  3.378716
  S    11.520702  0.878254  0.969473
  S    11.904946  4.514365  0.378784
  S    11.269671  1.231266  5.054834
  S    11.392951  4.987401  4.537544
