16  
    
  C    11.762481  0.982026  2.826697
  C    11.671573  4.969844  3.154057
  C    10.571737  0.342313  2.364418
  C    10.567967  4.373243  2.487144
  N    12.576742  1.474418  1.897110
  N    12.722433  5.188281  2.334875
  N    10.501121  0.354232  1.059841
  N    10.710004  4.274197  1.175957
  N    10.109582  0.845061  4.881366
  N     9.860954  4.644806  4.898606
  S     9.271361  0.149134  3.586332
  S     9.193374  4.039239  3.492195
  S    11.879002  1.117160  0.438986
  S    12.197375  4.903311  0.819150
  S    11.648122  1.469662  4.502744
  S    11.421879  5.128897  4.860644
