16  
    
  C     5.739053 -2.185148  1.930535
  C     6.073053  1.662638  2.073015
  C     4.575991 -2.630064  1.250782
  C     4.767573  1.520600  1.458743
  N     6.758525 -1.842004  1.113242
  N     7.068382  1.546185  1.198633
  N     4.747052 -2.851061 -0.073816
  N     4.770486  1.348490  0.151076
  N     3.906654 -2.296552  3.747529
  N     4.353384  2.124007  3.937267
  S     3.263242 -2.956374  2.337973
  S     3.450989  1.735322  2.595683
  S     6.247814 -2.294997 -0.382233
  S     6.378908  1.344268 -0.298219
  S     5.537298 -1.929695  3.615875
  S     6.007010  2.068794  3.720282
