16  
    
  C    11.085706  0.595585  2.870583
  C    11.066420  4.263009  3.300766
  C     9.817777  0.007850  2.371885
  C     9.855794  3.820707  2.629117
  N    11.970117  0.887401  1.927921
  N    12.062938  4.476096  2.449889
  N     9.859960 -0.378492  1.119288
  N     9.929971  3.795933  1.297814
  N     9.419633  0.516549  4.886618
  N     9.234213  4.248963  5.159884
  S     8.595941 -0.150527  3.613043
  S     8.486908  3.752101  3.743144
  S    11.304409  0.277155  0.501431
  S    11.546609  4.191651  0.928875
  S    10.937079  1.067740  4.495236
  S    10.861697  4.449323  5.051803
