16  
    
  C     7.829830 -0.720690  2.128644
  C     8.294030  2.836148  2.447632
  C     6.749027 -1.484540  1.510769
  C     7.007798  2.604764  1.890921
  N     8.865643 -0.390295  1.346637
  N     9.282601  2.917440  1.540291
  N     6.966725 -1.681253  0.204873
  N     7.053733  2.574000  0.554316
  N     6.085758 -1.262825  3.935148
  N     6.642369  3.025871  4.322777
  S     5.386886 -1.698255  2.531360
  S     5.722109  2.445486  3.081874
  S     8.412155 -0.956770 -0.130303
  S     8.543165  2.841900  0.022285
  S     7.618664 -0.588518  3.813885
  S     8.273425  2.970662  4.161281
