16  
    
  C     7.217034 -1.651814  1.825910
  C     6.974017  2.112626  1.926595
  C     6.001173 -2.039792  1.132966
  C     5.749686  1.678083  1.309543
  N     8.249402 -1.540061  1.015713
  N     7.993829  2.274011  1.066469
  N     6.115513 -2.388243 -0.115976
  N     5.816582  1.594066 -0.017267
  N     5.328194 -1.817250  3.584284
  N     5.314528  1.578634  3.800856
  S     4.614591 -2.220541  2.180665
  S     4.453949  1.411279  2.419654
  S     7.682710 -1.923376 -0.505798
  S     7.373528  2.040776 -0.411195
  S     6.898569 -1.267635  3.473551
  S     6.860683  2.103328  3.637462
