16  
    
  C     4.099783 -2.901167  1.541468
  C     4.120658  1.223824  1.498700
  C     2.876497 -3.357519  0.924034
  C     2.810593  0.932237  0.913640
  N     5.132135 -2.833912  0.702217
  N     5.143840  1.262857  0.640324
  N     2.980951 -3.598847 -0.355467
  N     2.893903  0.738868 -0.401275
  N     2.077773 -2.692640  3.246013
  N     2.458082  1.286052  3.473250
  S     1.454301 -3.461313  1.911244
  S     1.588940  0.750154  2.142008
  S     4.522766 -3.290743 -0.774921
  S     4.524999  0.972958 -0.861143
  S     3.694901 -2.350280  3.236742
  S     4.025384  1.550736  3.253985
