16  
    
  C     5.879303 -2.176355  1.708845
  C     5.458545  1.177418  1.711648
  C     4.599275 -2.477437  1.166448
  C     4.231545  0.760306  1.135953
  N     6.884776 -2.036735  0.827294
  N     6.521401  1.100227  0.909236
  N     4.584388 -2.604473 -0.174037
  N     4.334946  0.567522 -0.181301
  N     4.313505 -2.321694  3.745570
  N     3.746376  1.230268  3.655547
  S     3.377753 -2.573872  2.389362
  S     2.934163  0.709949  2.270149
  S     6.169985 -2.281540 -0.680666
  S     5.922615  0.787779 -0.589741
  S     5.969936 -2.028441  3.446718
  S     5.332028  1.647380  3.431959
