16  
    
  C     4.469925 -2.145904  1.884398
  C     3.986071  1.172529  1.184568
  C     3.308345 -2.713986  1.242687
  C     2.831442  0.670373  0.492584
  N     5.499551 -2.038507  1.066246
  N     5.041826  1.303734  0.393912
  N     3.507129 -3.115856  0.000196
  N     3.083253  0.282972 -0.785355
  N     2.591995 -2.362180  3.705642
  N     2.309112  0.930187  3.027085
  S     1.955504 -3.043653  2.330651
  S     1.525510  0.294819  1.642018
  S     5.017132 -2.546615 -0.434133
  S     4.642290  0.744073 -1.109765
  S     4.177834 -1.860843  3.602924
  S     3.848207  1.476131  2.848270
