16  
    
  C    11.061093  0.495592  3.191415
  C    11.120403  4.234252  3.054256
  C     9.903082 -0.044930  2.539603
  C     9.934561  3.679306  2.393917
  N    12.022837  0.803020  2.345991
  N    12.181641  4.443722  2.259492
  N    10.058857 -0.169357  1.227377
  N    10.070260  3.665120  1.090705
  N     9.318728  0.169137  5.033602
  N     9.335830  4.057749  4.869969
  S     8.546923 -0.202750  3.621003
  S     8.622770  3.395896  3.521421
  S    11.498053  0.475496  0.824876
  S    11.608789  4.029966  0.681755
  S    10.915931  0.681488  4.902225
  S    10.925872  4.486612  4.718430
