16  
    
  C    12.845777  1.541084  3.335412
  C    12.466755  5.088373  3.302275
  C    11.597052  1.114059  2.778555
  C    11.245114  4.713166  2.690092
  N    13.811015  1.721207  2.440435
  N    13.512646  5.394164  2.520899
  N    11.595734  0.895950  1.464659
  N    11.352203  4.623295  1.353869
  N    11.304049  1.335950  5.337170
  N    10.585763  4.911817  5.161057
  S    10.355945  1.013585  3.986349
  S     9.898682  4.449356  3.704377
  S    13.119291  1.343010  0.942395
  S    12.881837  5.103251  0.944369
  S    12.854522  2.008502  5.057817
  S    12.234987  5.239893  5.026002
