16  
    
  C    11.669762  1.136261  2.862687
  C    11.806748  4.922567  3.168030
  C    10.403455  0.586060  2.327501
  C    10.648445  4.304631  2.523291
  N    12.546396  1.483348  1.915719
  N    12.786399  5.143671  2.326213
  N    10.508834  0.308661  1.007292
  N    10.767819  4.220355  1.187844
  N    10.097667  0.853698  4.870076
  N    10.018443  4.693256  5.000794
  S     9.302388  0.259661  3.544070
  S     9.290561  4.088197  3.616803
  S    11.893599  1.017019  0.456245
  S    12.276188  4.700759  0.791878
  S    11.695945  1.245629  4.616316
  S    11.528087  5.363120  4.810816
