16  
    
  C    10.011513 -0.073296  2.657658
  C     9.899044  3.920234  2.737714
  C     8.782254 -0.465625  2.043888
  C     9.007057  2.851482  2.245296
  N    11.014252  0.247780  1.834085
  N    10.892819  4.182228  1.917872
  N     8.876330 -0.690914  0.720744
  N     9.212466  2.494295  0.960409
  N     8.333827 -0.463134  4.586401
  N     8.409477  3.430140  4.726323
  S     7.546295 -0.731767  3.180786
  S     7.809911  2.477280  3.483289
  S    10.448979 -0.226459  0.315361
  S    10.622960  3.423425  0.525228
  S     9.896038  0.147815  4.381311
  S     9.538751  4.577909  4.303034
