16  
    
  C     6.101579 -1.569959  2.382363
  C     6.645898  2.115012  2.194012
  C     5.092568 -2.371648  1.682375
  C     5.342815  1.776644  1.609300
  N     7.059360 -1.139213  1.601480
  N     7.648451  2.291528  1.319573
  N     5.387044 -2.641734  0.428622
  N     5.408200  1.588629  0.287240
  N     4.428556 -2.326613  4.223053
  N     4.939829  1.812016  4.106432
  S     3.760095 -2.835702  2.799915
  S     4.089376  1.429454  2.717930
  S     6.752148 -1.727981  0.052766
  S     6.982351  1.979091 -0.185458
  S     5.915635 -1.506241  4.091410
  S     6.511413  2.252756  3.931406
