16  
    
  C     7.269062 -1.639325  2.253029
  C     7.510113  2.210798  2.200441
  C     6.033366 -2.051501  1.584540
  C     6.294118  1.629025  1.647681
  N     8.341439 -1.629764  1.470085
  N     8.478571  2.453691  1.307127
  N     6.188340 -2.109962  0.285841
  N     6.358944  1.391568  0.322938
  N     5.470209 -1.797375  4.063721
  N     5.787317  2.137964  4.114456
  S     4.696688 -2.304968  2.645238
  S     4.892599  1.740327  2.744863
  S     7.799801 -1.994674 -0.045033
  S     7.932996  1.920836 -0.126921
  S     7.079802 -1.468659  4.000137
  S     7.345240  2.640115  3.862013
