16  
    
  C     9.101517 -0.564442  2.524157
  C     9.585302  3.519382  2.747148
  C     7.924006 -0.856282  1.785094
  C     8.308910  3.202721  2.122342
  N    10.216189 -0.457459  1.769777
  N    10.591538  3.258303  1.938811
  N     8.129602 -1.110330  0.478395
  N     8.304698  2.818833  0.827156
  N     7.189632 -0.650627  4.196402
  N     7.853152  3.678244  4.593210
  S     6.577589 -1.147458  2.736508
  S     6.964373  3.391174  3.221682
  S     9.753771 -0.929724  0.233207
  S     9.972188  2.892706  0.453033
  S     8.795844 -0.330378  4.213928
  S     9.480759  4.128902  4.452492
