16  
    
  C     5.427602 -2.234615  1.853321
  C     5.227885  1.659022  1.582073
  C     4.312713 -2.711623  1.121349
  C     4.212083  1.038868  0.770642
  N     6.480950 -2.020631  1.057864
  N     6.291077  2.059190  0.905424
  N     4.461316 -2.717474 -0.222111
  N     4.488887  0.855791 -0.518797
  N     3.644146 -2.704140  3.541520
  N     3.372126  1.037107  3.248411
  S     2.904745 -3.008082  2.094768
  S     2.795680  0.659351  1.720095
  S     6.044793 -2.293140 -0.491933
  S     6.002535  1.589897 -0.724621
  S     5.205542 -2.203346  3.563859
  S     4.856802  1.688536  3.351305
