16  
    
  C    12.580720  1.700225  3.368527
  C    12.823693  5.367302  3.342899
  C    11.332254  1.321234  2.744336
  C    11.628159  4.843682  2.706322
  N    13.590207  2.004624  2.565242
  N    13.845696  5.562310  2.533749
  N    11.377944  1.319514  1.435735
  N    11.645211  4.817960  1.400402
  N    10.857143  0.978497  5.274724
  N    11.072178  5.053083  5.186609
  S    10.079518  0.724719  3.804660
  S    10.352034  4.479485  3.829041
  S    12.982465  1.689980  1.047316
  S    13.144090  5.289801  0.958235
  S    12.386746  1.582907  5.090561
  S    12.635656  5.593046  5.143142
