16  
    
  C     7.044971 -1.589081  2.274789
  C     7.093758  2.275400  2.098512
  C     5.840045 -1.830838  1.558683
  C     5.919402  1.844375  1.392934
  N     8.119807 -1.386048  1.503744
  N     8.166222  2.379980  1.305150
  N     5.977021 -1.856901  0.216120
  N     6.144859  1.533849  0.137741
  N     5.238760 -1.697049  4.027066
  N     5.180035  2.003738  3.846272
  S     4.436898 -2.118408  2.551168
  S     4.492008  1.647033  2.367360
  S     7.579374 -1.438730 -0.033052
  S     7.680037  1.905194 -0.186275
  S     6.862074 -1.433379  3.937835
  S     6.743671  2.505643  3.823968
