16  
    
  C    10.145957  0.526742  2.914163
  C    10.670175  4.457859  2.870242
  C     8.978560 -0.033512  2.278083
  C     9.527233  4.012657  2.100656
  N    11.049383  0.967255  2.029215
  N    11.753034  4.699625  2.155423
  N     9.059701 -0.133761  0.954400
  N     9.695846  4.086403  0.773436
  N     8.475425  0.136034  4.766179
  N     8.912871  3.880669  4.622997
  S     7.810125 -0.558267  3.389770
  S     8.216461  3.691382  3.125607
  S    10.482766  0.630619  0.485635
  S    11.324521  4.427657  0.513706
  S    10.134257  0.400917  4.678540
  S    10.537565  4.273361  4.657590
