16  
    
  C     9.008821 -0.576603  2.461128
  C     9.495103  3.495645  2.690105
  C     7.875052 -0.930926  1.644594
  C     8.261838  3.128314  2.080274
  N    10.139997 -0.404147  1.767386
  N    10.537921  3.400661  1.880537
  N     8.225343 -1.220875  0.361720
  N     8.294673  2.813894  0.771037
  N     7.057922 -0.491872  4.024762
  N     7.835274  3.765173  4.584075
  S     6.441700 -1.039763  2.613305
  S     6.991253  3.371325  3.226032
  S     9.819417 -0.879346  0.227692
  S     9.945812  2.895187  0.446212
  S     8.680384 -0.155466  4.096176
  S     9.489128  3.832612  4.456280
