16  
    
  C    12.533383  1.469680  3.610187
  C    12.351585  5.210331  3.434868
  C    11.346401  1.018701  3.054953
  C    11.132701  4.757629  2.837359
  N    13.501238  1.811367  2.750935
  N    13.406463  5.249190  2.584174
  N    11.355100  0.865043  1.725698
  N    11.205289  4.580029  1.483761
  N    10.826734  1.473035  5.505234
  N    10.705680  4.915262  5.362696
  S    10.115028  0.791276  4.192364
  S     9.797129  4.609169  4.026345
  S    12.891948  1.413868  1.300131
  S    12.756428  4.849913  1.086308
  S    12.428938  1.720228  5.357038
  S    12.244266  5.453348  5.153535
