16  
    
  C     8.285588 -0.901325  2.482757
  C     8.116375  3.044151  2.336748
  C     7.044512 -1.337560  1.888418
  C     7.024574  2.410908  1.712651
  N     9.339621 -0.888979  1.655849
  N     9.169272  3.234496  1.588359
  N     7.160164 -1.685761  0.609268
  N     7.291339  2.098407  0.460196
  N     6.476998 -0.808609  4.370756
  N     6.382098  2.541699  4.220072
  S     5.686375 -1.483160  3.072485
  S     5.666188  2.092305  2.786297
  S     8.748414 -1.398440  0.186631
  S     8.756122  2.644772  0.063862
  S     8.086781 -0.362164  4.150393
  S     7.914705  3.288395  3.992524
