16  
    
  C     6.199403 -1.658741  2.315374
  C     6.567832  2.051548  2.162269
  C     5.176521 -2.457303  1.635547
  C     5.351403  1.582311  1.527554
  N     7.066240 -1.134561  1.486730
  N     7.569077  2.269170  1.297972
  N     5.331743 -2.602085  0.356996
  N     5.446508  1.618790  0.174398
  N     4.379715 -2.157694  4.057752
  N     4.859193  1.920451  4.077399
  S     3.853129 -2.836828  2.625532
  S     4.067597  1.485911  2.663180
  S     6.781443 -1.800862  0.001885
  S     6.972261  1.990140 -0.182649
  S     5.917220 -1.555367  4.025999
  S     6.509347  2.279466  3.896673
