16  
    
  C     6.177230 -1.563321  1.505504
  C     6.388299  2.080556  1.856382
  C     5.007880 -2.106755  0.878147
  C     5.186407  1.706836  1.171638
  N     7.265543 -1.398199  0.753341
  N     7.428269  2.169467  1.041211
  N     5.231493 -2.494225 -0.377815
  N     5.357428  1.465533 -0.120689
  N     4.512095 -1.920888  3.378516
  N     4.630320  1.796950  3.698385
  S     3.784840 -2.455072  2.038410
  S     3.857698  1.470024  2.272244
  S     6.818260 -2.074669 -0.711729
  S     6.921153  1.761877 -0.446941
  S     5.956084 -1.173903  3.215322
  S     6.199965  2.298543  3.617029
