16  
    
  C     8.190548 -0.859857  2.488009
  C     8.190644  2.986858  2.372302
  C     7.003115 -1.323957  1.827452
  C     7.078827  2.333665  1.742825
  N     9.209638 -0.651584  1.693646
  N     9.186591  3.231372  1.526146
  N     7.149258 -1.686928  0.567216
  N     7.159998  2.197536  0.429608
  N     6.347337 -0.879303  4.324509
  N     6.357137  2.864125  4.194535
  S     5.652482 -1.465531  2.902330
  S     5.755812  2.139758  2.806097
  S     8.710682 -1.252131  0.213312
  S     8.696507  2.706292 -0.017255
  S     7.953215 -0.431049  4.175908
  S     8.008199  3.292979  4.086498
