16  
    
  C     9.141932 -0.364925  2.483576
  C     9.364443  3.187777  2.696160
  C     7.942884 -0.955827  1.939728
  C     8.071663  2.734891  2.099814
  N    10.100478 -0.200696  1.551569
  N    10.373929  3.160911  1.823164
  N     7.998154 -1.410688  0.680366
  N     8.190614  2.480521  0.804045
  N     7.378168 -0.361529  4.327232
  N     7.666944  3.213914  4.552402
  S     6.671276 -1.167787  3.074226
  S     6.754805  2.924072  3.193491
  S     9.523121 -0.951592  0.176251
  S     9.761887  2.762330  0.300610
  S     8.964905  0.092047  4.148354
  S     9.285047  3.615648  4.388104
