16  
    
  C     4.679196 -2.043798  1.640067
  C     4.388367  1.549242  1.429513
  C     3.385443 -2.171464  1.067379
  C     3.252305  0.977040  0.781404
  N     5.674947 -2.130761  0.731023
  N     5.431664  1.797468  0.650228
  N     3.344666 -2.182548 -0.284589
  N     3.364651  0.952822 -0.560471
  N     3.015413 -1.766052  3.587306
  N     2.785544  0.871961  3.274559
  S     2.102710 -2.167248  2.254186
  S     1.959352  0.633247  1.889576
  S     4.938806 -2.354070 -0.773731
  S     4.897166  1.357949 -0.850630
  S     4.683018 -1.781999  3.360354
  S     4.288859  1.551722  3.120080
