16  
    
  C     8.390906 -0.888248  2.441658
  C     8.147111  2.944895  2.380795
  C     7.119286 -1.429853  1.981398
  C     7.010767  2.364790  1.688983
  N     9.373798 -0.933133  1.578795
  N     9.159074  3.161551  1.540766
  N     7.121849 -1.785950  0.722686
  N     7.250113  2.078184  0.423467
  N     6.670477 -0.817977  4.442969
  N     6.306064  2.542577  4.130471
  S     5.861015 -1.441202  3.169229
  S     5.637796  2.073370  2.692117
  S     8.668580 -1.563649  0.201325
  S     8.761059  2.476428  0.037422
  S     8.247748 -0.376448  4.137329
  S     7.841308  3.258670  4.076548
