16  
    
  C     9.752426 -0.630884  2.663967
  C     9.641203  3.399125  2.594256
  C     8.497385 -0.920701  2.051486
  C     8.354020  3.114085  1.896805
  N    10.714972 -0.389455  1.738875
  N    10.669937  3.581795  1.762028
  N     8.541076 -1.049974  0.710303
  N     8.492577  3.181031  0.549703
  N     8.049559 -0.532391  4.544067
  N     7.979839  2.875494  4.469275
  S     7.203265 -0.980300  3.184563
  S     7.102823  2.925553  3.064487
  S    10.050361 -0.622187  0.236220
  S    10.097471  3.452311  0.260129
  S     9.649445 -0.284234  4.365704
  S     9.597077  3.177726  4.342530
