16  
    
  C     9.617667 -0.592455  2.752308
  C     9.442128  3.206878  2.583222
  C     8.370889 -0.794478  2.072610
  C     8.194072  3.022649  1.868589
  N    10.662590 -0.527601  1.982467
  N    10.526397  3.265070  1.837631
  N     8.453230 -1.017836  0.778213
  N     8.356900  3.016402  0.559643
  N     7.843740 -0.576704  4.641486
  N     7.639632  3.016942  4.360317
  S     7.035419 -0.997249  3.246301
  S     6.853858  3.022323  2.940887
  S    10.123617 -0.900041  0.463560
  S    10.014795  3.175935  0.225373
  S     9.514063 -0.447330  4.483633
  S     9.284464  3.417434  4.302876
