16  
    
  C     7.688699 -0.893524  1.768152
  C     7.750629  2.984421  2.231217
  C     6.455146 -1.504569  1.239711
  C     6.542422  2.459058  1.577734
  N     8.644701 -0.847745  0.857553
  N     8.829767  3.061067  1.464931
  N     6.473639 -1.762486 -0.053416
  N     6.725577  2.141134  0.336632
  N     6.021279 -1.127305  3.764283
  N     5.915992  2.658114  4.023620
  S     5.169671 -1.514665  2.450777
  S     5.174291  2.126175  2.670728
  S     8.011089 -1.357037 -0.583110
  S     8.346123  2.537211 -0.047299
  S     7.632969 -0.806116  3.475403
  S     7.468161  3.266126  3.914746
