16  
    
  C    11.280950  1.032332  3.319983
  C    11.641367  4.569391  2.878260
  C     9.976251  0.656417  2.812820
  C    10.401392  4.204603  2.216547
  N    12.298227  1.064178  2.457553
  N    12.576081  4.873561  2.013501
  N    10.041104  0.427375  1.506893
  N    10.467448  4.107235  0.858798
  N     9.598531  0.952439  5.230634
  N     9.868180  4.539490  4.763757
  S     8.700077  0.431802  3.901327
  S     9.127751  3.965415  3.391764
  S    11.561824  0.690811  0.969345
  S    12.023387  4.528628  0.430511
  S    11.250638  1.138424  5.045797
  S    11.497067  4.802141  4.601648
