16  
    
  C     8.678537 -0.525726  2.428565
  C     8.539113  3.162894  2.581584
  C     7.485143 -0.848513  1.726146
  C     7.372483  2.712564  1.914625
  N     9.798255 -0.460753  1.677073
  N     9.584952  3.346427  1.758524
  N     7.727609 -1.223421  0.458203
  N     7.456915  2.532002  0.578710
  N     6.879001 -0.762296  4.146463
  N     6.839799  2.839857  4.440793
  S     6.076382 -0.949223  2.675562
  S     6.079477  2.511216  3.037160
  S     9.337667 -0.951413  0.185568
  S     9.031814  2.980593  0.268848
  S     8.511319 -0.233305  4.116086
  S     8.441262  3.211761  4.374884
