16  
    
  C     7.794080 -0.843522  1.761911
  C     7.839167  2.934386  2.371884
  C     6.561002 -1.438673  1.242302
  C     6.719773  2.431991  1.626062
  N     8.817375 -0.870242  0.943071
  N     8.932301  3.119529  1.656293
  N     6.638478 -1.713396 -0.029802
  N     6.994453  2.191550  0.374024
  N     6.180568 -1.046851  3.687068
  N     5.925526  2.659565  4.062063
  S     5.276941 -1.466216  2.348446
  S     5.299363  2.147746  2.652092
  S     8.183024 -1.409375 -0.473385
  S     8.523135  2.718127  0.055345
  S     7.747900 -0.604665  3.467173
  S     7.459082  3.200547  4.058495
