16  
    
  C    10.047242 -0.190338  2.763374
  C    10.086535  3.886778  2.694751
  C     8.805677 -0.446510  2.150050
  C     9.046124  2.957832  2.312914
  N    11.066988  0.059616  1.918178
  N    10.959564  4.179258  1.720424
  N     8.830187 -0.607969  0.807631
  N     9.000115  2.614075  1.031693
  N     8.240724 -0.287696  4.658358
  N     8.466622  3.471604  4.723210
  S     7.498036 -0.757914  3.256342
  S     7.812440  2.651678  3.445206
  S    10.417093 -0.273431  0.409934
  S    10.380070  3.352616  0.372238
  S     9.872965 -0.101165  4.470419
  S     9.910646  4.256783  4.440547
