16  
    
  C     6.178554 -1.561076  1.495878
  C     6.392884  2.108135  1.868359
  C     4.999223 -2.088183  0.856708
  C     5.188276  1.696336  1.180924
  N     7.269773 -1.408608  0.756307
  N     7.426887  2.174433  1.046555
  N     5.249275 -2.493522 -0.376743
  N     5.353995  1.445030 -0.114476
  N     4.509248 -1.922138  3.375402
  N     4.633466  1.786148  3.704936
  S     3.789408 -2.460200  2.040221
  S     3.854403  1.462890  2.270053
  S     6.819605 -2.066304 -0.707787
  S     6.925942  1.759008 -0.452781
  S     5.956949 -1.167770  3.214625
  S     6.200687  2.308103  3.614214
