16  
    
  C     7.159014 -1.426035  2.231557
  C     7.162609  2.219763  2.049942
  C     5.948090 -1.837586  1.600167
  C     5.929809  1.718840  1.484378
  N     8.159907 -1.098336  1.386471
  N     8.207214  2.339897  1.254042
  N     6.087901 -2.103636  0.276404
  N     5.963696  1.551925  0.167820
  N     5.362901 -1.326411  4.109748
  N     5.505711  1.960209  3.965160
  S     4.642080 -1.981035  2.792887
  S     4.667649  1.615879  2.599822
  S     7.635497 -1.686470 -0.105447
  S     7.590549  1.831281 -0.263970
  S     6.984572 -1.164873  3.952505
  S     7.014305  2.522908  3.766775
