16  
    
  C    12.171459  1.064862  3.458816
  C    12.308176  5.103503  3.327063
  C    10.916863  0.757037  2.737953
  C    11.005508  4.713312  2.755302
  N    13.191161  1.121129  2.589310
  N    13.267956  5.083313  2.413008
  N    11.036961  0.620387  1.436054
  N    11.030546  4.291113  1.478756
  N    10.219857  1.437475  5.124620
  N    10.534704  5.339011  5.179604
  S     9.463999  0.789556  3.744795
  S     9.690801  4.856045  3.844108
  S    12.657204  0.810064  1.071336
  S    12.612071  4.617878  0.934171
  S    11.878931  1.716576  5.031336
  S    12.169524  5.535775  5.052651
