16  
    
  C    10.310227 -0.002876  2.812073
  C    10.234552  3.890059  3.072810
  C     9.053165 -0.269250  2.204857
  C     8.958143  3.674802  2.522735
  N    11.357940  0.063158  2.000227
  N    11.281633  4.032323  2.287487
  N     9.139274 -0.547040  0.910687
  N     9.116637  3.467039  1.202307
  N     8.516206 -0.111256  4.685740
  N     8.620799  4.385944  5.011546
  S     7.739147 -0.605350  3.318248
  S     7.626144  3.968678  3.683279
  S    10.749217 -0.331230  0.474321
  S    10.658922  3.712437  0.773584
  S    10.144667  0.060144  4.503166
  S    10.269668  4.300248  4.735712
