16  
    
  C    11.975616  1.612851  3.527789
  C    12.077764  5.030522  3.826088
  C    10.915525  0.842488  2.857628
  C    10.800819  4.616083  3.277354
  N    12.884489  2.102602  2.694065
  N    12.908545  5.392501  2.858931
  N    11.104900  0.701381  1.534986
  N    10.764765  4.566700  1.908388
  N    10.395586  0.848845  5.399288
  N    10.558978  4.447803  5.779347
  S     9.693860  0.243674  4.011198
  S     9.654956  4.085729  4.418485
  S    12.516743  1.474388  1.162454
  S    12.146772  5.176046  1.411121
  S    11.884076  1.635093  5.281727
  S    12.134479  4.982130  5.567743
