16  
    
  C     9.077133 -0.315238  2.394263
  C     9.373691  3.175962  2.693796
  C     7.880497 -0.926353  1.865002
  C     8.159289  2.796887  2.076232
  N    10.065965 -0.187383  1.526793
  N    10.359773  3.156368  1.829847
  N     8.013193 -1.378833  0.632026
  N     8.191699  2.542356  0.753659
  N     7.333547 -0.344794  4.320091
  N     7.680473  3.232905  4.583819
  S     6.661089 -1.151719  3.021956
  S     6.819722  2.893960  3.195068
  S     9.519684 -0.965496  0.152273
  S     9.772489  2.734127  0.335243
  S     8.889387  0.125010  4.126800
  S     9.315115  3.656021  4.475361
