16  
    
  C     4.287285 -2.481801  1.747055
  C     4.070313  1.273851  1.434233
  C     3.159566 -3.119645  1.155453
  C     2.919571  0.641948  0.903095
  N     5.315572 -2.251519  0.895093
  N     5.088988  1.414528  0.558989
  N     3.304580 -3.314449 -0.187221
  N     2.987800  0.279078 -0.362807
  N     2.520325 -2.710008  3.648899
  N     2.323652  1.067809  3.384442
  S     1.895830 -3.484745  2.328700
  S     1.615969  0.361732  1.983235
  S     4.758268 -2.704165 -0.630856
  S     4.505504  0.774177 -0.845598
  S     4.088818 -2.146616  3.448196
  S     3.830603  1.652812  3.127226
