16  
    
  C    12.589155  1.639338  3.399488
  C    12.827365  5.309744  3.352440
  C    11.312101  1.300867  2.769448
  C    11.619406  4.818630  2.748662
  N    13.587137  1.991891  2.547537
  N    13.788810  5.548264  2.427063
  N    11.442480  1.325934  1.438094
  N    11.627424  4.757433  1.393442
  N    10.896227  0.933228  5.276192
  N    11.065678  5.077155  5.245835
  S    10.058560  0.768020  3.805407
  S    10.313520  4.459330  3.870569
  S    12.995974  1.710726  1.032636
  S    13.113984  5.323400  0.949044
  S    12.416711  1.621788  5.114725
  S    12.678884  5.586875  5.055724
