16  
    
  C     9.034611 -0.303529  2.519003
  C     9.485547  3.553929  2.837008
  C     7.821518 -0.817842  1.906605
  C     8.241840  3.144762  2.212373
  N    10.023233 -0.168705  1.657872
  N    10.525401  3.573958  2.013733
  N     7.876194 -0.940705  0.589388
  N     8.365950  2.788232  0.942240
  N     7.394216 -0.820363  4.531913
  N     7.632224  3.505639  4.693146
  S     6.567747 -1.155161  3.112064
  S     6.796215  3.151916  3.252142
  S     9.434680 -0.557819  0.148732
  S     9.928878  3.156471  0.483828
  S     8.974278 -0.421243  4.215925
  S     9.271768  3.948058  4.550137
