16  
    
  C     9.798004 -0.077165  2.846770
  C     9.849012  3.558223  2.706190
  C     8.590145 -0.542777  2.190229
  C     8.581916  3.204130  2.125195
  N    10.697269  0.449748  2.012640
  N    10.849757  3.731488  1.851895
  N     8.624414 -0.596475  0.860338
  N     8.540975  3.321839  0.794539
  N     8.188657 -0.737610  4.761889
  N     8.162901  3.145469  4.583481
  S     7.306936 -0.971704  3.337556
  S     7.243884  2.878334  3.194324
  S    10.104650  0.134127  0.472378
  S    10.094752  3.673260  0.279583
  S     9.581530  0.138113  4.544511
  S     9.761717  3.618016  4.469593
