16  
    
  C     7.098966 -1.416213  2.092084
  C     7.052013  2.103345  2.040905
  C     5.945925 -1.901947  1.349713
  C     5.858908  1.732229  1.319214
  N     8.205774 -1.369438  1.344802
  N     8.160685  2.262773  1.330455
  N     6.143531 -2.079896  0.046826
  N     6.031931  1.583945  0.019762
  N     5.183157 -1.677251  3.766036
  N     5.166793  1.870899  3.821737
  S     4.517497 -2.125312  2.309768
  S     4.475122  1.555056  2.346238
  S     7.700393 -1.715848 -0.224442
  S     7.633900  2.017493 -0.296879
  S     6.846696 -1.479321  3.775719
  S     6.815986  2.284906  3.717078
