16  
    
  C    11.295700  1.246628  3.191685
  C    11.384716  4.901722  2.916527
  C    10.071222  0.664820  2.654942
  C    10.301655  4.225031  2.223626
  N    12.342957  1.363396  2.334168
  N    12.359100  5.194264  2.072344
  N    10.180260  0.565599  1.338842
  N    10.429807  4.005269  0.924511
  N     9.816765  0.690527  5.272466
  N     9.653678  4.578404  4.779319
  S     8.937437  0.143553  3.947715
  S     8.984512  3.925259  3.393318
  S    11.714388  0.959568  0.807781
  S    11.916284  4.627898  0.520444
  S    11.314442  1.371189  4.913183
  S    11.244420  5.044657  4.618567
