16  
    
  C    12.545467  1.638057  3.496568
  C    12.369638  5.298680  3.477358
  C    11.316727  1.013235  2.932990
  C    11.194116  4.783195  2.882463
  N    13.538209  1.778680  2.634777
  N    13.330307  5.471433  2.621230
  N    11.371242  0.895584  1.627501
  N    11.221068  4.505643  1.586378
  N    10.857144  1.256416  5.425548
  N    10.645553  4.910149  5.448730
  S    10.019520  0.778582  4.092650
  S     9.844178  4.631879  3.984665
  S    12.893944  1.362250  1.094178
  S    12.696589  4.955917  1.109571
  S    12.434737  1.804758  5.249541
  S    12.227097  5.491439  5.222200
