16  
    
  C    10.264020  0.520697  2.934738
  C    10.814155  4.199540  2.910393
  C     9.119660 -0.072848  2.281312
  C     9.565315  4.119580  2.215530
  N    11.231788  0.849238  2.102519
  N    11.805223  4.572776  2.095842
  N     9.105955  0.045685  0.956299
  N     9.595055  4.385307  0.904458
  N     8.683987 -0.233740  4.842040
  N     8.980665  3.637332  4.679440
  S     7.895281 -0.606583  3.415589
  S     8.238794  3.832883  3.209054
  S    10.568616  0.724322  0.588616
  S    11.191134  4.734359  0.595662
  S    10.173884  0.495336  4.747543
  S    10.553997  4.261358  4.769001
