16  
    
  C     4.255825 -2.436806  1.616780
  C     4.116691  1.219125  1.658952
  C     3.140905 -3.201758  1.087250
  C     2.874644  0.739614  1.086470
  N     5.232933 -2.247042  0.770730
  N     5.128623  1.281520  0.790512
  N     3.292113 -3.630822 -0.150983
  N     2.925244  0.518114 -0.215746
  N     2.670775 -2.886021  3.627513
  N     2.351428  1.297556  3.495376
  S     1.823842 -3.349512  2.269093
  S     1.530219  0.866969  2.142384
  S     4.783249 -2.924352 -0.693344
  S     4.438549  0.864222 -0.704150
  S     4.119432 -2.172499  3.344252
  S     4.018110  1.436970  3.337591
