16  
    
  C    10.971277  0.678479  3.282237
  C    11.247461  4.225660  3.209536
  C     9.836192  0.200716  2.551456
  C    10.000950  3.783463  2.611712
  N    12.037458  0.825206  2.528448
  N    12.197337  4.399641  2.286093
  N    10.026639  0.111990  1.251174
  N     9.974206  3.771887  1.287393
  N     9.255694 -0.057337  5.052555
  N     9.577609  3.781426  5.152896
  S     8.554009 -0.295540  3.552179
  S     8.709836  3.476010  3.774646
  S    11.598174  0.541452  0.946873
  S    11.497404  4.147967  0.780173
  S    10.747811  0.671435  5.057773
  S    11.137420  4.333772  4.960025
