16  
    
  C     7.125932 -1.676440  1.659109
  C     6.897397  2.055189  1.891401
  C     5.906006 -2.161191  1.061781
  C     5.704923  1.555878  1.269606
  N     8.145944 -1.506054  0.791918
  N     7.838582  2.299474  1.002671
  N     6.010314 -2.341720 -0.281245
  N     5.714943  1.603249 -0.064414
  N     5.364447 -1.771012  3.523684
  N     5.253527  1.613212  3.860693
  S     4.599458 -2.329754  2.190382
  S     4.403056  1.240261  2.465759
  S     7.640142 -2.026750 -0.669720
  S     7.244161  2.066419 -0.475873
  S     7.002866 -1.408783  3.400255
  S     6.808367  2.201689  3.676178
