16  
    
  C     5.742513 -2.120675  2.117769
  C     5.931073  1.463167  1.974897
  C     4.574705 -2.677614  1.475525
  C     4.761788  0.957971  1.253919
  N     6.741749 -1.889951  1.245036
  N     6.955836  1.758972  1.188680
  N     4.676717 -2.859687  0.137594
  N     4.847676  1.091919 -0.073002
  N     3.871479 -2.182944  3.921950
  N     4.143531  0.902361  3.762625
  S     3.249014 -2.896904  2.561215
  S     3.436268  0.510479  2.295942
  S     6.221550 -2.480452 -0.223779
  S     6.413306  1.565542 -0.403739
  S     5.521674 -1.901610  3.814688
  S     5.625199  1.585307  3.653273
