16  
    
  C     7.095647 -1.419262  2.269454
  C     7.084047  2.210551  2.080529
  C     5.861218 -1.735630  1.631485
  C     5.892181  1.805769  1.417966
  N     8.121569 -1.203206  1.423712
  N     8.130274  2.382520  1.259098
  N     5.942834 -1.831140  0.303600
  N     6.067343  1.606127  0.119758
  N     5.302108 -1.836869  4.164247
  N     5.279901  1.995127  3.941042
  S     4.552629 -2.022774  2.685560
  S     4.519701  1.674353  2.518334
  S     7.548599 -1.575335 -0.077423
  S     7.635468  1.914497 -0.179488
  S     6.861815 -1.331472  4.027118
  S     6.816539  2.572405  3.772262
