16  
    
  C     8.424469 -0.964683  2.429251
  C     8.248165  2.366302  2.088152
  C     7.211240 -1.262659  1.687606
  C     7.132687  1.887950  1.316044
  N     9.520987 -0.893518  1.711646
  N     9.334129  2.657725  1.422789
  N     7.371899 -1.323722  0.387842
  N     7.436679  1.761266  0.043652
  N     6.499801 -1.001787  4.138746
  N     6.234306  2.256713  3.672933
  S     5.758807 -0.996514  2.691572
  S     5.675371  1.701691  2.245930
  S     9.006989 -1.092173  0.134590
  S     8.946476  2.363648 -0.214748
  S     8.173889 -0.720179  4.129414
  S     7.888627  2.493608  3.712205
