16  
    
  C     8.679781 -0.911580  2.319386
  C     8.398597  3.280501  2.246181
  C     7.557549 -1.538437  1.706074
  C     7.248457  2.614832  1.719802
  N     9.747689 -0.743697  1.543645
  N     9.387605  3.579866  1.387744
  N     7.694428 -1.665764  0.401422
  N     7.386923  2.296174  0.447199
  N     7.056039 -1.471112  4.184437
  N     6.775032  2.809176  4.266156
  S     6.256224 -1.766013  2.828684
  S     5.973680  2.209873  2.954272
  S     9.265244 -1.218485  0.059596
  S     8.830365  2.939806 -0.031995
  S     8.574540 -0.802173  4.030635
  S     8.269397  3.489190  3.981461
