16  
    
  C     9.834313 -0.236941  2.530428
  C     9.762970  3.661023  2.475904
  C     8.544158 -0.627936  2.023801
  C     8.569182  3.063851  1.970313
  N    10.688673  0.170070  1.583341
  N    10.751024  3.978144  1.660252
  N     8.425585 -0.644320  0.705530
  N     8.622513  3.078552  0.643075
  N     8.266354 -0.664635  4.542692
  N     8.267252  2.983745  4.483121
  S     7.302884 -0.950582  3.239583
  S     7.316062  2.650898  3.170107
  S     9.896102 -0.077285  0.118126
  S    10.091047  3.687021  0.160579
  S     9.823634 -0.051595  4.253354
  S     9.690803  3.848684  4.222205
