16  
    
  C     4.222503 -2.322563  1.825057
  C     4.056954  1.112084  1.187898
  C     3.109269 -3.007373  1.270207
  C     2.989718  0.303008  0.663518
  N     5.172902 -1.951431  0.966541
  N     4.982923  1.514700  0.289665
  N     3.254823 -3.308860 -0.012410
  N     3.215371 -0.072306 -0.601543
  N     2.564873 -2.538372  3.748334
  N     2.219372  0.918254  3.013965
  S     1.794411 -3.127565  2.384509
  S     1.659405  0.051271  1.710676
  S     4.732326 -2.635236 -0.503616
  S     4.540615  0.708859 -1.121083
  S     4.140752 -2.004080  3.494723
  S     3.784605  1.670101  2.857824
