16  
    
  C     4.730777 -2.284593  1.613277
  C     4.909664  1.461585  1.879352
  C     3.504628 -2.694514  0.928629
  C     3.613423  1.326593  1.273127
  N     5.759591 -2.076032  0.803732
  N     5.927378  1.354243  1.030587
  N     3.645340 -2.728378 -0.373099
  N     3.628977  1.178530 -0.054007
  N     2.820894 -2.492779  3.369393
  N     3.190929  1.279931  3.816252
  S     2.130177 -3.035979  1.970763
  S     2.316266  1.402431  2.434619
  S     5.171475 -2.241820 -0.713610
  S     5.246460  1.256806 -0.492220
  S     4.393808 -1.930808  3.301793
  S     4.784797  1.586599  3.591287
