16  
    
  C     9.776385 -0.126092  2.890569
  C     9.781937  3.530512  2.721752
  C     8.609503 -0.717589  2.228785
  C     8.440018  3.303422  2.121993
  N    10.839462  0.086059  2.075056
  N    10.756712  3.950915  1.882822
  N     8.704887 -0.823549  0.898165
  N     8.533106  3.262070  0.784593
  N     7.923680 -0.503239  4.643224
  N     7.881128  3.274612  4.633694
  S     7.158482 -0.786411  3.181702
  S     7.030186  3.312302  3.149326
  S    10.262426 -0.380392  0.534988
  S    10.063626  3.805642  0.359951
  S     9.456609  0.085973  4.591020
  S     9.533995  3.614664  4.472280
