16  
    
  C    10.418633  0.636916  3.039770
  C    10.661915  4.353337  2.850012
  C     9.246247  0.013831  2.430987
  C     9.412486  3.896239  2.280794
  N    11.347246  0.902607  2.144230
  N    11.620348  4.491813  1.945860
  N     9.326752 -0.241751  1.142614
  N     9.383128  3.925939  0.936177
  N     8.747372  0.260037  4.982708
  N     8.976292  4.408027  4.782194
  S     7.994668 -0.296092  3.584662
  S     8.162507  3.805686  3.448070
  S    10.759475  0.428857  0.667796
  S    10.948973  4.311795  0.486080
  S    10.299290  0.892855  4.780946
  S    10.585523  4.796522  4.579292
