16  
    
  C    12.659790  1.623360  3.764952
  C    12.260374  5.001157  3.454126
  C    11.345280  1.333494  3.119072
  C    11.173884  4.487078  2.722279
  N    13.763712  1.639125  2.988528
  N    13.388352  5.192190  2.695762
  N    11.536052  1.175231  1.807208
  N    11.337882  4.328745  1.417016
  N    10.886623  1.364991  5.607068
  N    10.489755  4.909016  5.158428
  S     9.994865  1.292389  4.231910
  S     9.798257  4.291628  3.815461
  S    13.140374  1.326371  1.392999
  S    12.937373  4.790906  1.144800
  S    12.492039  1.805793  5.507294
  S    12.133983  5.096990  5.138308
