16  
    
  C    10.992274  0.487279  3.240185
  C    11.058126  4.277722  3.361389
  C     9.837923  0.055946  2.497811
  C     9.836358  3.741187  2.791912
  N    11.945411  0.965236  2.444533
  N    12.059452  4.591763  2.520987
  N    10.057838 -0.055190  1.203130
  N     9.891856  3.774423  1.466799
  N     9.131976  0.157010  4.952581
  N     9.347002  4.000488  5.307401
  S     8.410781 -0.174785  3.481376
  S     8.578840  3.501128  3.941838
  S    11.468786  0.725615  0.866712
  S    11.408991  4.213066  0.998237
  S    10.719523  0.616466  4.925792
  S    10.910635  4.520715  5.100874
