16  
    
  C     9.551116 -0.425015  2.741370
  C     9.359471  3.213294  2.575218
  C     8.305275 -0.806519  2.104972
  C     8.090458  3.038640  1.782071
  N    10.592017 -0.563393  1.977502
  N    10.418201  3.240549  1.774821
  N     8.435791 -1.022891  0.817004
  N     8.310583  2.938097  0.455057
  N     7.809129 -0.632048  4.654708
  N     7.580700  3.148844  4.397969
  S     7.011365 -1.012160  3.240356
  S     6.748393  2.980728  2.927304
  S    10.038243 -0.962841  0.464111
  S     9.958318  3.044840  0.246402
  S     9.415105 -0.429284  4.504500
  S     9.241066  3.498354  4.327445
