16  
    
  C    11.778891  1.113530  3.348733
  C    11.903949  5.069238  3.318604
  C    10.650448  0.593647  2.684707
  C    10.721615  4.541964  2.695552
  N    12.867548  1.136296  2.617791
  N    12.996275  5.111376  2.561665
  N    10.832739  0.252122  1.402906
  N    10.862569  4.255513  1.437648
  N    10.001890  0.914103  5.191328
  N    10.150855  4.865029  5.164264
  S     9.242321  0.587134  3.719694
  S     9.318683  4.433584  3.813898
  S    12.402470  0.695062  1.093898
  S    12.458509  4.459013  1.086375
  S    11.570361  1.645975  5.094681
  S    11.729746  5.331143  4.999761
