16  
    
  C    11.224484  0.577359  2.986335
  C    11.152454  4.328409  3.332682
  C    10.076324 -0.127393  2.419087
  C     9.834962  4.207660  2.745571
  N    12.215926  0.763175  2.127179
  N    12.162481  4.282565  2.456823
  N    10.164748 -0.451257  1.138493
  N     9.880986  3.942242  1.425662
  N     9.414097  0.417986  4.825752
  N     9.474884  4.036313  5.287647
  S     8.753153 -0.294892  3.448794
  S     8.576971  4.255880  3.921664
  S    11.724556  0.042670  0.694091
  S    11.504174  4.062094  0.975502
  S    10.979781  1.074253  4.623441
  S    11.060614  4.552408  5.133333
