16  
    
  C    12.920297  1.639667  3.352711
  C    12.352986  5.129849  3.353700
  C    11.635936  1.190019  2.846462
  C    11.216735  4.658565  2.643446
  N    13.861998  1.722898  2.456717
  N    13.412995  5.321195  2.558379
  N    11.693112  0.878437  1.570560
  N    11.333996  4.599001  1.378227
  N    11.255830  1.399333  5.379868
  N    10.514629  4.912459  5.022133
  S    10.351067  1.152986  4.024358
  S     9.823755  4.392129  3.614124
  S    13.179518  1.223248  0.995254
  S    12.945856  5.006667  1.032781
  S    12.786153  1.964266  5.028988
  S    12.108266  5.098524  5.145319
