16  
    
  C    11.233079  0.454505  3.014809
  C    11.091741  4.447396  3.395586
  C    10.171721 -0.221317  2.369211
  C     9.797797  4.242971  2.841648
  N    12.386073  0.540895  2.312360
  N    12.140545  4.436676  2.585418
  N    10.423082 -0.418897  1.065194
  N     9.861304  3.972473  1.557642
  N     9.392950  0.370145  4.770705
  N     9.449205  4.208272  5.350377
  S     8.757612 -0.331017  3.418057
  S     8.531054  4.348163  3.994544
  S    11.984145  0.137648  0.745907
  S    11.439537  4.012399  1.115852
  S    10.918354  0.983506  4.604071
  S    11.090663  4.628154  5.127475
