16  
    
  C     4.567565 -2.676208  1.575972
  C     5.097725  1.393972  1.708761
  C     3.303727 -2.778060  0.909962
  C     3.795340  1.162356  1.077225
  N     5.649852 -2.596107  0.777350
  N     6.103458  1.515358  0.875326
  N     3.415266 -2.838023 -0.411414
  N     3.855142  1.346568 -0.250528
  N     2.774255 -2.710220  3.400784
  N     3.456717  1.027843  3.662879
  S     1.960097 -2.815586  1.980225
  S     2.549236  0.717031  2.232597
  S     5.058857 -2.798894 -0.784660
  S     5.445668  1.514991 -0.634509
  S     4.398469 -2.397389  3.267150
  S     5.079740  1.406028  3.449982
