16  
    
  C     6.902046 -1.882547  1.679751
  C     6.644002  2.159337  1.968458
  C     5.674860 -2.291431  1.112128
  C     5.498154  1.527216  1.355940
  N     7.883761 -1.655044  0.759719
  N     7.541061  2.625623  1.119695
  N     5.652269 -2.263499 -0.234403
  N     5.674989  1.333805  0.045646
  N     5.199366 -2.014819  3.639946
  N     5.080077  1.599837  3.963872
  S     4.389414 -2.442100  2.260378
  S     4.301272  1.076778  2.569717
  S     7.199341 -1.854638 -0.714184
  S     7.057911  2.089169 -0.383782
  S     6.850121 -1.714505  3.437664
  S     6.568822  2.340022  3.733161
