16  
    
  C     4.299145 -2.336744  1.848216
  C     4.073811  1.148019  1.200398
  C     3.168882 -3.024003  1.278152
  C     2.999285  0.340667  0.632913
  N     5.197567 -1.888242  0.941170
  N     4.956053  1.486606  0.276751
  N     3.338004 -3.256533 -0.038980
  N     3.141735  0.017971 -0.626353
  N     2.555757 -2.395821  3.699863
  N     2.270569  0.961314  3.008884
  S     1.815470 -3.102026  2.381092
  S     1.630976  0.120994  1.706371
  S     4.789343 -2.617047 -0.432850
  S     4.597181  0.702759 -1.140443
  S     4.160487 -2.002946  3.516776
  S     3.741516  1.573915  2.825848
