16  
    
  C    10.191705  0.564693  2.660532
  C    10.759983  4.283490  2.847562
  C     8.983228  0.033621  2.013091
  C     9.474155  3.931119  2.282807
  N    11.193519  0.728937  1.812281
  N    11.714619  4.240257  1.904631
  N     9.135059 -0.260435  0.738168
  N     9.428304  3.660691  0.986479
  N     8.329764  0.494056  4.448966
  N     8.967207  4.178834  4.748439
  S     7.753667 -0.369627  3.153113
  S     8.147957  3.655078  3.382182
  S    10.671935  0.076044  0.394665
  S    10.994917  3.848596  0.476374
  S     9.955994  0.833814  4.376457
  S    10.557585  4.668853  4.550326
