16  
    
  C    11.035581  0.522365  3.206495
  C    11.147287  4.141560  3.062425
  C     9.902819 -0.078928  2.573135
  C     9.923695  3.779634  2.445372
  N    12.093768  0.865353  2.444405
  N    12.166823  4.361101  2.238515
  N    10.007193 -0.054951  1.245163
  N    10.008067  3.667463  1.115329
  N     9.331437  0.024398  5.092900
  N     9.455631  3.939042  4.990215
  S     8.501781 -0.221656  3.641531
  S     8.665045  3.410426  3.618001
  S    11.574744  0.516514  0.877647
  S    11.613858  4.109415  0.770123
  S    10.855607  0.693975  4.892308
  S    11.022715  4.462159  4.760517
