16  
    
  C     5.761448 -2.150605  1.873543
  C     6.101690  1.630319  2.021809
  C     4.588152 -2.701074  1.251691
  C     4.781690  1.587208  1.453269
  N     6.842162 -1.896987  1.099070
  N     7.071792  1.440629  1.117923
  N     4.684557 -2.677696 -0.084478
  N     4.767250  1.396047  0.138976
  N     3.965720 -2.320369  3.680294
  N     4.458632  2.127297  3.964937
  S     3.216488 -2.868322  2.318190
  S     3.493725  1.900943  2.636406
  S     6.329038 -2.295072 -0.462167
  S     6.312287  1.208198 -0.334033
  S     5.579774 -1.960404  3.605458
  S     6.093561  2.137694  3.704786
