16  
    
  C    11.764089  0.971605  2.844078
  C    11.662622  4.983176  3.117278
  C    10.586625  0.378454  2.353349
  C    10.544883  4.375310  2.494334
  N    12.560410  1.472768  1.912468
  N    12.720178  5.208231  2.353430
  N    10.493370  0.356295  1.051890
  N    10.722313  4.296005  1.181079
  N    10.117992  0.833848  4.877407
  N     9.841911  4.635151  4.897427
  S     9.280817  0.135947  3.581466
  S     9.179992  4.037214  3.493830
  S    11.872805  1.109674  0.447854
  S    12.194511  4.912445  0.806834
  S    11.643164  1.492678  4.498767
  S    11.404660  5.103099  4.862203
