16  
    
  C     4.221798 -2.236880  1.762314
  C     4.003841  1.234054  1.196455
  C     3.081136 -2.965935  1.220331
  C     3.033883  0.279821  0.696205
  N     5.222505 -2.098854  0.925095
  N     4.971850  1.441189  0.330914
  N     3.252308 -3.283077 -0.043160
  N     3.171132 -0.094974 -0.580456
  N     2.589039 -2.702683  3.774807
  N     2.295399  0.935426  3.075172
  S     1.780026 -3.180364  2.401271
  S     1.697880  0.026127  1.773224
  S     4.668817 -2.670206 -0.547116
  S     4.547775  0.743970 -1.089361
  S     4.086578 -1.984053  3.525755
  S     3.750754  1.682288  2.835863
