16  
    
  C    11.342518  0.637619  2.972571
  C    11.050279  4.447549  3.623431
  C    10.301976  0.054233  2.193138
  C     9.817712  3.989199  3.028162
  N    12.511740  0.875502  2.345542
  N    12.073296  4.497155  2.774634
  N    10.805513 -0.401184  1.028717
  N     9.834638  3.892183  1.722954
  N     9.308301  0.346658  4.601840
  N     9.375725  4.660467  5.473893
  S     8.814754 -0.221065  3.146829
  S     8.489782  4.159796  4.155908
  S    12.313583  0.177184  0.843208
  S    11.393717  4.106671  1.265256
  S    10.898535  0.752968  4.612604
  S    11.004155  5.033578  5.206845
