16  
    
  C     9.701355 -0.129458  2.484548
  C     9.765360  3.476999  2.579299
  C     8.415727 -0.610393  1.969776
  C     8.509040  3.137599  1.913122
  N    10.674751 -0.055804  1.576184
  N    10.689473  3.817379  1.684670
  N     8.399941 -0.784569  0.627836
  N     8.502737  3.185733  0.583838
  N     8.212715 -0.625308  4.533190
  N     8.120243  2.942434  4.479890
  S     7.342376 -1.010782  3.217802
  S     7.338743  2.731822  3.046282
  S     9.994137 -0.443526  0.109861
  S    10.029210  3.670598  0.127224
  S     9.789435 -0.189857  4.242252
  S     9.764883  3.484750  4.390696
