16  
    
  C    11.907510  1.088769  3.348383
  C    11.902451  4.998592  3.420578
  C    10.700533  0.658860  2.737522
  C    10.724781  4.599646  2.717234
  N    12.990252  1.241570  2.613453
  N    12.938883  5.041738  2.616374
  N    10.877082  0.450573  1.448141
  N    10.831654  4.202770  1.467014
  N    10.034639  1.040256  5.169353
  N    10.019554  4.842214  5.218140
  S     9.298635  0.527516  3.780492
  S     9.309533  4.432821  3.743330
  S    12.497748  0.715462  1.105801
  S    12.474514  4.522858  1.115714
  S    11.546164  1.620815  4.951166
  S    11.659079  5.209756  5.124771
