16  
    
  C     3.291029 -3.073480  1.151385
  C     3.628759  0.663652  1.344810
  C     2.034343 -3.368174  0.443387
  C     2.430565  0.183182  0.690518
  N     4.411271 -3.001769  0.444273
  N     4.720767  0.768715  0.587080
  N     2.221151 -3.495698 -0.865534
  N     2.627021  0.017741 -0.605524
  N     1.577051 -3.428283  3.005169
  N     1.749686  0.422457  3.200820
  S     0.715245 -3.518064  1.536205
  S     1.057241  0.120816  1.726140
  S     3.886480 -3.116749 -1.136256
  S     4.182094  0.433499 -0.999508
  S     3.208041 -3.276601  2.853232
  S     3.417827  0.705387  3.056959
