16  
    
  C    12.068802  1.613920  3.354358
  C    12.281848  5.323568  3.533239
  C    11.006955  1.004025  2.682612
  C    11.132135  4.731617  2.852333
  N    13.218490  1.754470  2.649818
  N    13.309514  5.566415  2.748974
  N    11.260769  0.801346  1.400184
  N    11.394982  4.365569  1.572486
  N    10.141191  1.204144  5.102464
  N    10.308262  5.152772  5.242306
  S     9.572586  0.509666  3.633575
  S     9.772443  4.533454  3.806621
  S    12.836667  1.253145  1.114965
  S    12.924545  4.811127  1.285621
  S    11.733035  1.775871  5.087035
  S    11.923972  5.627427  5.303129
