16  
    
  C     8.754813 -0.991626  2.381894
  C     8.371822  3.267134  2.414836
  C     7.566276 -1.327796  1.661100
  C     7.263908  2.568283  1.785888
  N     9.812473 -0.815402  1.585259
  N     9.341315  3.495703  1.549854
  N     7.708782 -1.581909  0.350111
  N     7.373364  2.363733  0.485014
  N     7.015546 -1.276747  4.202207
  N     6.822384  2.824243  4.319240
  S     6.243455 -1.674210  2.715127
  S     6.056593  2.213125  2.938866
  S     9.290915 -1.213728  0.060678
  S     8.855755  3.016380  0.006245
  S     8.598745 -0.717807  4.089145
  S     8.308826  3.582776  4.144856
