16  
    
  C     7.270086 -1.564251  2.142769
  C     7.578055  2.674074  2.188270
  C     6.099743 -1.993266  1.452767
  C     6.365248  2.221781  1.544221
  N     8.310734 -1.225450  1.346884
  N     8.524910  2.931339  1.296709
  N     6.265675 -2.012247  0.118199
  N     6.431991  2.005338  0.238058
  N     5.552686 -2.135525  4.019720
  N     5.906360  2.289930  4.121375
  S     4.932104 -2.623502  2.576483
  S     5.097208  1.959234  2.708568
  S     7.822667 -1.449156 -0.213678
  S     7.951421  2.545038 -0.164376
  S     7.098151 -1.533414  3.874147
  S     7.552415  2.671348  3.938008
