16  
    
  C    10.344610  0.112533  2.676606
  C    10.189175  4.138712  3.111345
  C     9.195871 -0.477154  2.099656
  C     8.945020  3.850925  2.469133
  N    11.418979  0.075014  1.910146
  N    11.249304  4.079735  2.341503
  N     9.325466 -0.888103  0.843413
  N     9.091232  3.470829  1.180924
  N     8.508918  0.359887  4.383819
  N     8.733662  4.159431  5.043381
  S     7.784927 -0.416253  3.103751
  S     7.770792  3.962088  3.728326
  S    10.946542 -0.546090  0.420517
  S    10.702890  3.534989  0.877868
  S    10.136560  0.779989  4.284403
  S    10.246293  4.764250  4.754868
