16  
    
  C    12.849619  1.597612  3.559840
  C    12.278390  4.997316  3.398889
  C    11.576432  1.356514  2.879591
  C    11.175013  4.519247  2.637499
  N    13.876628  1.619332  2.733102
  N    13.365400  5.214390  2.753056
  N    11.644085  1.007058  1.610747
  N    11.393387  4.445353  1.334283
  N    11.034559  1.836609  5.424448
  N    10.460075  4.453617  5.061376
  S    10.259848  1.336241  4.027330
  S     9.743307  4.251536  3.607427
  S    13.228212  1.247340  1.211549
  S    13.004118  4.850919  1.142324
  S    12.703418  1.880285  5.196592
  S    11.979474  5.157761  5.145107
