16  
    
  C    11.226309  0.540124  3.002666
  C    11.146751  4.352270  3.321345
  C    10.081602 -0.124610  2.412009
  C     9.831235  4.211965  2.758422
  N    12.226486  0.756176  2.139149
  N    12.162930  4.283828  2.460628
  N    10.173773 -0.457460  1.122394
  N     9.878174  3.937501  1.440466
  N     9.418687  0.409621  4.819050
  N     9.477831  4.032992  5.286889
  S     8.750004 -0.301239  3.440802
  S     8.574279  4.269894  3.927800
  S    11.739829  0.048319  0.704920
  S    11.502748  4.061142  0.989991
  S    10.984878  1.079908  4.627993
  S    11.062305  4.555986  5.133114
