16  
    
  C     7.733690 -0.909989  1.745919
  C     7.755056  2.944241  2.315143
  C     6.450907 -1.341258  1.178947
  C     6.629555  2.358344  1.564816
  N     8.685810 -0.755046  0.831781
  N     8.826304  3.121018  1.586924
  N     6.612449 -1.777865 -0.081637
  N     6.789760  2.232729  0.274272
  N     6.105799 -1.112254  3.801342
  N     5.911059  2.704361  4.070674
  S     5.215512 -1.442627  2.418462
  S     5.265366  2.110743  2.605834
  S     8.176255 -1.439909 -0.604703
  S     8.468721  2.622431  0.082338
  S     7.725324 -0.689475  3.508654
  S     7.485023  3.254942  3.996226
