16  
    
  C     4.254968 -2.421557  1.770890
  C     3.955659  1.342585  1.335878
  C     3.075676 -2.988059  1.159354
  C     2.880655  0.568902  0.792029
  N     5.287027 -2.305154  0.938192
  N     4.992580  1.415161  0.505634
  N     3.162640 -3.127850 -0.164190
  N     3.019628  0.232446 -0.494251
  N     2.598571 -2.754133  3.675058
  N     2.331287  0.992893  3.226602
  S     1.880282 -3.471898  2.352692
  S     1.694160  0.128792  1.950728
  S     4.744862 -2.701813 -0.530414
  S     4.569149  0.716862 -0.945738
  S     4.076017 -2.025326  3.428961
  S     3.817002  1.724531  3.021562
