16  
    
  C    12.651226  1.567847  3.800461
  C    12.409922  5.035313  3.423353
  C    11.395501  1.356344  3.097200
  C    11.163394  4.542355  2.756831
  N    13.653137  1.706685  2.947705
  N    13.447605  5.174733  2.668966
  N    11.473042  1.123781  1.790614
  N    11.364136  4.363958  1.439805
  N    10.865846  1.224528  5.668151
  N    10.511811  4.955805  5.168629
  S     9.989610  1.256676  4.233678
  S     9.801872  4.333485  3.846445
  S    13.122704  1.310309  1.420578
  S    12.865218  4.781545  1.117945
  S    12.491348  1.806447  5.543920
  S    12.122534  5.114703  5.146093
