16  
    
  C     8.419927 -0.937364  2.481189
  C     8.160493  2.928519  2.324376
  C     7.127349 -1.384063  2.007260
  C     7.025779  2.298727  1.706536
  N     9.375568 -0.896324  1.501176
  N     9.270387  3.046307  1.568953
  N     7.168845 -1.897438  0.749390
  N     7.166440  2.029297  0.409101
  N     6.746554 -0.766456  4.526929
  N     6.240877  2.674311  4.145734
  S     5.842367 -1.424408  3.258654
  S     5.605582  2.048775  2.651464
  S     8.689581 -1.611844  0.123577
  S     8.757855  2.472291  0.042619
  S     8.303264 -0.407606  4.148644
  S     7.841023  3.187007  4.000066
