16  
    
  C     4.193257 -2.759615  1.581166
  C     4.257560  1.212172  1.736914
  C     2.984245 -3.290746  1.070216
  C     2.975908  1.253237  1.096704
  N     5.177005 -2.549393  0.675117
  N     5.212969  1.058876  0.823380
  N     3.104293 -3.664123 -0.233057
  N     2.887805  1.004365 -0.229161
  N     2.549654 -2.506851  3.478091
  N     2.512326  1.486470  3.653298
  S     1.658294 -3.164243  2.232423
  S     1.717587  1.531906  2.266143
  S     4.600351 -3.180211 -0.716114
  S     4.531448  0.917133 -0.653436
  S     4.167447 -2.173145  3.189716
  S     4.156642  1.535057  3.470981
