16  
    
  C    10.578423  0.764093  3.005485
  C    10.649383  4.528206  2.824524
  C     9.372808  0.275792  2.415038
  C     9.596416  3.704413  2.329911
  N    11.571443  0.878504  2.110167
  N    11.612477  4.687299  1.919408
  N     9.470701 -0.199600  1.154705
  N     9.726204  3.239336  1.080292
  N     8.875031  0.585989  4.907576
  N     8.850077  4.336500  4.651038
  S     8.098274  0.086140  3.551027
  S     8.125412  3.664939  3.311569
  S    10.994938  0.226199  0.685773
  S    11.198592  3.844270  0.614420
  S    10.390575  1.213471  4.691912
  S    10.339569  5.040333  4.434690
