16  
    
  C    11.656798  1.304498  2.917180
  C    11.844357  5.052741  3.076525
  C    10.406128  0.674956  2.384202
  C    10.608113  4.448637  2.529130
  N    12.588152  1.490852  1.956679
  N    12.885549  5.183279  2.288738
  N    10.424077  0.527737  1.046604
  N    10.802839  4.037453  1.256240
  N    10.120844  0.717944  4.913090
  N    10.142851  4.723273  5.079864
  S     9.181685  0.301283  3.569058
  S     9.373587  4.139170  3.728433
  S    11.967981  0.870229  0.541637
  S    12.341348  4.540201  0.806643
  S    11.684362  1.191388  4.622068
  S    11.612936  5.468073  4.761253
