16  
    
  C     4.090806 -2.881776  1.592643
  C     4.183338  1.257362  1.559824
  C     2.863167 -3.242108  0.914094
  C     2.864052  1.053674  0.987120
  N     5.169218 -2.885768  0.849270
  N     5.210614  1.289488  0.719741
  N     2.970512 -3.438092 -0.368902
  N     2.924798  0.930946 -0.326442
  N     2.165202 -2.629512  3.358926
  N     2.480394  1.308897  3.508619
  S     1.517782 -3.376833  2.020007
  S     1.611972  1.034048  2.098640
  S     4.655815 -3.277271 -0.722843
  S     4.457222  1.049535 -0.791163
  S     3.820593 -2.307262  3.222350
  S     4.118831  1.666568  3.243278
