16  
    
  C     8.723969 -0.486411  2.425733
  C     8.544849  3.210343  2.633226
  C     7.549948 -0.977057  1.680129
  C     7.347059  2.747351  1.945784
  N     9.816193 -0.527355  1.658380
  N     9.528139  3.425331  1.785500
  N     7.719592 -1.284011  0.387883
  N     7.505611  2.466309  0.664909
  N     6.861985 -0.814519  4.115614
  N     6.833636  2.795441  4.478773
  S     6.122297 -0.938698  2.656286
  S     6.057511  2.474603  3.018610
  S     9.338356 -1.036916  0.142540
  S     9.013806  3.004394  0.183415
  S     8.461590 -0.309973  4.159590
  S     8.448765  3.230185  4.393098
