16  
    
  C     9.044271 -0.297622  2.514402
  C     9.492710  3.548523  2.832736
  C     7.827701 -0.823440  1.905564
  C     8.252722  3.145514  2.222308
  N    10.027707 -0.172798  1.656635
  N    10.532193  3.581015  2.011923
  N     7.879798 -0.942843  0.590706
  N     8.377316  2.789834  0.954912
  N     7.393444 -0.816888  4.529694
  N     7.633226  3.511315  4.690052
  S     6.567898 -1.156239  3.112141
  S     6.797805  3.156662  3.251188
  S     9.433814 -0.560076  0.149433
  S     9.929977  3.150738  0.482115
  S     8.972056 -0.422850  4.217039
  S     9.274883  3.949437  4.547090
