16  
    
  C    11.974788  1.465474  3.440279
  C    12.341074  5.112074  3.199036
  C    10.857547  0.793473  2.751528
  C    11.019105  4.816300  2.661221
  N    13.047691  1.532481  2.674817
  N    13.380608  5.005604  2.406984
  N    11.110793  0.440225  1.498732
  N    11.093675  4.382629  1.413276
  N    10.131853  1.139214  5.245529
  N    10.429616  5.377018  5.057624
  S     9.528958  0.696145  3.735803
  S     9.641155  4.813048  3.698838
  S    12.710459  0.856898  1.257304
  S    12.716660  4.482592  0.943546
  S    11.748394  1.616693  5.139972
  S    12.026377  5.703371  4.874538
