16  
    
  C     4.581153 -2.155051  1.584132
  C     4.849153  1.513188  1.889839
  C     3.378521 -2.571882  0.904927
  C     3.567906  1.328626  1.214701
  N     5.671271 -2.019503  0.801390
  N     5.844574  1.445555  1.002592
  N     3.507823 -2.613491 -0.460467
  N     3.571158  1.260409 -0.098669
  N     2.825815 -2.256779  3.443895
  N     3.106916  1.191321  3.658892
  S     2.098076 -2.796382  2.049507
  S     2.195296  1.307605  2.224276
  S     5.123888 -2.294684 -0.739630
  S     5.195797  1.245517 -0.524865
  S     4.489840 -2.017583  3.311640
  S     4.709411  1.701864  3.626059
