16  
    
  C    10.274442 -0.129730  2.845709
  C    10.346181  3.943625  3.102565
  C     9.055020 -0.425498  2.190055
  C     9.065823  3.750933  2.510510
  N    11.309543 -0.011334  2.002442
  N    11.364285  3.862733  2.269670
  N     9.075080 -0.417404  0.858154
  N     9.033891  3.590408  1.177651
  N     8.454031 -0.423208  4.711702
  N     8.581325  4.175263  4.981760
  S     7.682552 -0.543160  3.213811
  S     7.698303  3.955734  3.606621
  S    10.663510 -0.168859  0.451582
  S    10.712535  3.741005  0.751765
  S    10.087546 -0.054816  4.641224
  S    10.191963  4.155830  4.836020
