16  
    
  C     9.766177 -0.008858  2.827330
  C     9.895416  3.516735  2.650753
  C     8.557304 -0.573437  2.204418
  C     8.582479  3.163841  2.104255
  N    10.701834  0.481725  1.989326
  N    10.882798  3.816587  1.780340
  N     8.630975 -0.521381  0.849186
  N     8.607051  3.253070  0.803680
  N     8.208664 -0.782695  4.725966
  N     8.154112  3.160683  4.621585
  S     7.286602 -0.996280  3.344756
  S     7.235046  2.867990  3.228205
  S    10.115781  0.152713  0.451708
  S    10.112062  3.680400  0.306791
  S     9.636573  0.126128  4.534574
  S     9.726617  3.660038  4.401351
