16  
    
  C    12.094598  1.277771  3.436256
  C    12.216232  5.133176  3.174717
  C    10.877061  0.779086  2.761666
  C    10.964549  4.776806  2.625339
  N    13.179550  1.130302  2.693592
  N    13.247697  5.123794  2.315286
  N    11.020774  0.530920  1.433744
  N    11.009261  4.335818  1.381835
  N    10.148766  1.427520  5.176714
  N    10.544159  5.291007  5.108564
  S     9.506038  0.740972  3.781689
  S     9.630107  4.902137  3.772007
  S    12.640674  0.789213  1.141755
  S    12.687801  4.460609  0.939743
  S    11.804712  1.658044  5.062826
  S    12.161815  5.540932  4.798336
