16  
    
  C    10.160043 -0.180540  2.855592
  C    10.380563  3.818024  3.148541
  C     8.905082 -0.472284  2.151169
  C     9.076928  3.970106  2.480502
  N    11.255033 -0.031553  2.091390
  N    11.440028  3.742641  2.317387
  N     9.070784 -0.351324  0.825527
  N     9.148236  3.927068  1.159936
  N     8.340324 -0.559636  4.667580
  N     8.528556  3.859659  4.925557
  S     7.534626 -0.569552  3.219278
  S     7.695585  3.889346  3.510508
  S    10.657033  0.009043  0.576161
  S    10.794642  3.649805  0.770985
  S     9.939930 -0.229511  4.528968
  S    10.173854  3.898466  4.890187
