16  
    
  C     8.510630 -1.040323  2.338849
  C     8.243191  2.667831  2.066961
  C     7.324542 -1.503907  1.647125
  C     7.043350  2.286891  1.362412
  N     9.576297 -0.851776  1.550226
  N     9.275962  2.843335  1.267530
  N     7.483875 -1.529358  0.301780
  N     7.149378  2.221731  0.025503
  N     6.733843 -1.190123  4.212650
  N     6.530834  2.458816  3.921963
  S     6.002905 -1.793319  2.837307
  S     5.743319  2.046823  2.480660
  S     9.058739 -1.078263 -0.030311
  S     8.775013  2.611655 -0.279800
  S     8.336246 -0.938455  4.098196
  S     8.097241  3.052308  3.774964
