16  
    
  C    12.064416  1.300088  3.463061
  C    12.214469  5.201109  3.412391
  C    10.922617  0.784149  2.702513
  C    11.071905  4.715814  2.741456
  N    13.117569  1.659346  2.756144
  N    13.380995  5.257855  2.714056
  N    11.204450  0.625384  1.413241
  N    11.353809  4.349630  1.519499
  N    10.107556  1.164712  5.178457
  N    10.336566  5.338914  5.127059
  S     9.614484  0.534284  3.712569
  S     9.616497  4.646060  3.830864
  S    12.741965  1.201271  1.197066
  S    12.886451  4.723988  1.196119
  S    11.666720  1.747866  5.127194
  S    11.955000  5.668794  5.041484
