16  
    
  C     4.693419 -2.277729  1.604122
  C     4.962100  1.294688  1.908259
  C     3.563306 -2.818104  0.895308
  C     3.648660  1.262511  1.297874
  N     5.684763 -1.910571  0.821152
  N     5.948062  1.447574  1.035751
  N     3.719651 -2.911015 -0.411425
  N     3.688804  1.175271 -0.054601
  N     2.856297 -2.752037  3.387096
  N     3.307663  1.704834  3.890262
  S     2.250450 -3.238007  1.911727
  S     2.362574  1.411662  2.511848
  S     5.253678 -2.328521 -0.731240
  S     5.268354  1.284984 -0.460538
  S     4.345272 -2.001360  3.299827
  S     5.036997  1.461530  3.643063
