16  
    
  C     9.098314 -0.448505  2.536802
  C     9.097217  3.497343  2.752570
  C     7.828844 -0.770963  1.918871
  C     7.831083  3.099927  2.144984
  N    10.013676 -0.109430  1.652510
  N    10.064801  3.544751  1.864093
  N     7.819270 -0.909407  0.613540
  N     7.879119  2.986863  0.824728
  N     7.307006 -0.825362  4.494836
  N     7.335639  3.250672  4.626324
  S     6.513007 -1.028956  3.080413
  S     6.503780  2.829063  3.244831
  S     9.316937 -0.375091  0.142100
  S     9.402013  3.332938  0.323508
  S     8.853885 -0.330325  4.305288
  S     8.962307  3.592645  4.505524
