16  
    
  C     4.621685 -2.128022  1.544589
  C     4.578161  1.657715  1.531607
  C     3.291291 -2.226942  1.016140
  C     3.402921  1.046822  0.912038
  N     5.620373 -2.249161  0.645646
  N     5.595604  1.888323  0.704738
  N     3.284562 -2.340104 -0.324941
  N     3.544488  0.946950 -0.408548
  N     3.024667 -2.050611  3.566860
  N     2.773545  1.258308  3.365176
  S     2.067609 -2.122597  2.217403
  S     2.084760  0.807994  2.001976
  S     4.864257 -2.299793 -0.832889
  S     4.994245  1.521335 -0.822766
  S     4.648060 -1.850177  3.250805
  S     4.372595  1.677001  3.320548
