16  
    
  C     7.325945 -1.785707  2.231403
  C     7.457102  2.400036  2.120577
  C     6.115207 -2.097510  1.501461
  C     6.187888  2.002421  1.559505
  N     8.281342 -1.397237  1.422291
  N     8.448914  2.493504  1.223535
  N     6.260718 -2.233873  0.199239
  N     6.233763  1.932895  0.220231
  N     5.580831 -2.036743  4.070673
  N     5.811042  2.214273  4.099348
  S     4.728255 -2.284389  2.603629
  S     4.932967  1.680573  2.762822
  S     7.825559 -1.724097 -0.133810
  S     7.803818  2.081949 -0.212618
  S     7.170174 -1.664210  3.923846
  S     7.375518  2.628379  3.841031
