16  
    
  C     4.862113 -2.512587  1.633087
  C     4.928109  1.529750  2.020720
  C     3.633750 -2.907379  1.006337
  C     3.743805  1.082159  1.304586
  N     5.907881 -2.405152  0.810787
  N     5.890800  1.901678  1.166932
  N     3.730367 -3.195745 -0.341297
  N     3.903989  0.888014 -0.000896
  N     3.054630 -2.333425  3.474053
  N     3.219851  1.119528  3.848872
  S     2.261937 -2.840476  2.077981
  S     2.453610  0.716345  2.363279
  S     5.371763 -2.989513 -0.681553
  S     5.447484  1.398554 -0.343664
  S     4.750136 -2.107227  3.308056
  S     4.832495  1.514289  3.769119
