16  
    
  C     7.190170 -1.611687  1.862389
  C     6.990370  2.144950  1.914565
  C     5.993876 -2.064712  1.182739
  C     5.757244  1.686335  1.289938
  N     8.242469 -1.555500  1.028239
  N     8.006308  2.266958  1.072727
  N     6.139368 -2.362539 -0.131926
  N     5.872994  1.601861 -0.032773
  N     5.330352 -1.813512  3.619714
  N     5.311906  1.600915  3.818729
  S     4.588536 -2.201408  2.199485
  S     4.457421  1.434867  2.390331
  S     7.721909 -1.895364 -0.486103
  S     7.385125  2.026495 -0.393226
  S     6.880094 -1.260813  3.520264
  S     6.874778  2.100451  3.681654
