16  
    
  C     6.167128 -1.862003  1.649123
  C     6.323165  1.872415  1.877226
  C     5.020978 -2.476282  1.037566
  C     5.051463  1.706857  1.148097
  N     7.155188 -1.659143  0.789268
  N     7.401303  1.929358  1.111135
  N     5.132998 -2.671178 -0.289784
  N     5.175986  1.730561 -0.157673
  N     4.300757 -1.732914  3.488044
  N     4.479665  1.968678  3.691412
  S     3.626318 -2.466396  2.139230
  S     3.737519  1.782968  2.185692
  S     6.648696 -2.217998 -0.654452
  S     6.841547  1.848280 -0.493249
  S     5.998621 -1.464426  3.295055
  S     6.144193  1.929352  3.610847
