16  
    
  C     3.278886 -3.166374  1.219826
  C     3.606993  0.614851  1.338314
  C     2.058574 -3.348218  0.488201
  C     2.407283  0.258730  0.677638
  N     4.379963 -3.015524  0.488240
  N     4.694361  0.795537  0.579809
  N     2.238221 -3.393677 -0.846508
  N     2.591319  0.071590 -0.621126
  N     1.572548 -3.433638  2.970454
  N     1.780387  0.439922  3.177027
  S     0.668121 -3.511647  1.541243
  S     1.051094  0.098009  1.718205
  S     3.889819 -3.059340 -1.055093
  S     4.137930  0.415539 -0.987603
  S     3.195150 -3.312106  2.888329
  S     3.379922  0.674408  3.068930
