16  
    
  C     9.621447  0.020732  2.883170
  C     9.754366  3.564936  2.741386
  C     8.531590 -0.616787  2.229190
  C     8.437234  3.380400  2.095816
  N    10.663319  0.310045  2.048563
  N    10.735468  3.825136  1.860244
  N     8.673037 -0.725239  0.873829
  N     8.538930  3.376960  0.747534
  N     7.889873 -0.260040  4.691486
  N     8.050398  3.221962  4.657380
  S     7.240363 -0.957407  3.363893
  S     7.098397  3.059417  3.237717
  S    10.203776 -0.190621  0.558629
  S    10.102648  3.689042  0.387418
  S     9.521587  0.041076  4.563874
  S     9.718394  3.415574  4.461999
