16  
    
  C     8.593741 -1.092244  2.343400
  C     8.341004  2.743018  2.063769
  C     7.423011 -1.608228  1.756921
  C     7.118830  2.315978  1.465424
  N     9.608901 -0.758100  1.507993
  N     9.370974  3.006043  1.242469
  N     7.525515 -1.626359  0.409085
  N     7.194055  2.263935  0.119944
  N     6.773064 -1.249753  4.203916
  N     6.569156  2.584323  3.956498
  S     6.033292 -1.876826  2.856732
  S     5.782075  2.112145  2.615901
  S     9.039156 -1.084964 -0.018148
  S     8.735619  2.678249 -0.271135
  S     8.421363 -0.933363  4.047761
  S     8.085792  3.124618  3.747668
