16  
    
  C     4.239748 -2.334322  1.816244
  C     4.063215  1.099099  1.183229
  C     3.113300 -3.012537  1.267918
  C     2.985321  0.312907  0.665804
  N     5.165190 -1.936787  0.965223
  N     4.977643  1.519858  0.287300
  N     3.261077 -3.302813 -0.006079
  N     3.213438 -0.060503 -0.602184
  N     2.561945 -2.516168  3.741852
  N     2.221561  0.921991  3.008853
  S     1.797405 -3.122411  2.383725
  S     1.654977  0.058589  1.707002
  S     4.741769 -2.631438 -0.490578
  S     4.546196  0.705113 -1.126396
  S     4.144835 -2.005356  3.495684
  S     3.781059  1.660479  2.856637
