16  
    
  C    10.971801  0.634583  3.140728
  C    11.013211  4.315038  3.451139
  C     9.844649  0.045647  2.465290
  C     9.793544  3.844450  2.792958
  N    11.933209  1.004431  2.277767
  N    12.027731  4.561578  2.593212
  N     9.913060  0.002336  1.122192
  N     9.917141  3.653130  1.498062
  N     9.161197  0.134678  4.947888
  N     9.232251  4.058288  5.255360
  S     8.458388 -0.129600  3.464812
  S     8.521962  3.494176  3.838953
  S    11.379756  0.576245  0.770904
  S    11.371882  4.238339  1.060156
  S    10.760775  0.668706  4.865194
  S    10.784836  4.682350  5.137345
