16  
    
  C     8.836372 -0.949583  2.376934
  C     8.531603  3.228200  2.519794
  C     7.604709 -1.253723  1.671678
  C     7.355310  2.642013  1.975360
  N     9.935722 -0.858175  1.615258
  N     9.509477  3.531982  1.679410
  N     7.751799 -1.350456  0.344016
  N     7.426010  2.518412  0.668869
  N     6.879754 -0.821233  4.143508
  N     6.805253  2.842460  4.391063
  S     6.218295 -1.427176  2.733013
  S     6.072231  2.196690  3.060149
  S     9.370136 -1.142240  0.034829
  S     8.901490  3.054550  0.110177
  S     8.494358 -0.657458  4.075401
  S     8.279670  3.489285  4.187965
