16  
    
  C    10.945313  0.618221  3.279557
  C    11.074919  4.355311  3.269849
  C     9.848394  0.098058  2.516156
  C     9.841039  3.862894  2.725387
  N    11.992064  0.953596  2.568466
  N    12.074733  4.525356  2.413885
  N     9.987464  0.142714  1.201483
  N     9.902830  3.707614  1.402807
  N     9.098090  0.177029  5.014906
  N     9.545175  3.898059  5.275983
  S     8.475355 -0.306904  3.533797
  S     8.652568  3.496771  3.927796
  S    11.609299  0.658564  0.961638
  S    11.457978  4.209244  0.955559
  S    10.697153  0.579600  4.981808
  S    11.144967  4.299089  5.045788
