16  
    
  C     5.864266 -2.365803  2.043735
  C     5.794567  1.342868  1.797462
  C     4.602313 -2.585206  1.356579
  C     4.629236  0.828879  1.115334
  N     6.846040 -2.058333  1.241784
  N     6.828529  1.616948  0.973674
  N     4.650636 -2.628929  0.034280
  N     4.825825  0.717941 -0.192040
  N     4.087702 -2.471936  3.974831
  N     3.979539  0.938027  3.641798
  S     3.261969 -2.640085  2.490366
  S     3.264513  0.489481  2.224282
  S     6.278592 -2.363847 -0.307865
  S     6.381287  1.121385 -0.518748
  S     5.707061 -2.061041  3.711463
  S     5.581779  1.387407  3.511248
