16  
    
  C     7.905853 -1.061369  1.877433
  C     7.958365  2.961816  2.429485
  C     6.629972 -1.417302  1.272205
  C     6.834672  2.340050  1.711621
  N     8.915473 -0.949020  0.976454
  N     9.009562  3.246142  1.688405
  N     6.746127 -1.659082 -0.057248
  N     6.984360  2.227280  0.396356
  N     6.035011 -0.884489  3.770880
  N     6.036334  2.499290  4.128989
  S     5.337779 -1.569217  2.432534
  S     5.370890  2.217556  2.650378
  S     8.328690 -1.329211 -0.528764
  S     8.619645  2.794291  0.147272
  S     7.675214 -0.516241  3.568364
  S     7.611631  3.130106  4.144304
