16  
    
  C    12.022083  1.372835  3.466125
  C    12.280378  5.096647  3.338984
  C    10.908946  0.867242  2.768980
  C    11.065930  4.692639  2.670164
  N    13.106393  1.591215  2.725680
  N    13.351597  5.032493  2.485040
  N    11.184045  0.392343  1.524929
  N    11.176533  4.422540  1.363433
  N    10.155241  1.089233  5.204194
  N    10.396528  5.387865  5.052537
  S     9.481515  0.645292  3.748655
  S     9.664916  4.785000  3.721107
  S    12.701415  0.961892  1.215853
  S    12.729506  4.530621  0.991211
  S    11.715337  1.654700  5.145172
  S    12.001800  5.736778  4.922484
