16  
    
  C     8.757752 -0.973958  2.334671
  C     8.384264  3.286747  2.216035
  C     7.541804 -1.524427  1.708600
  C     7.239253  2.548480  1.710147
  N     9.720845 -0.649936  1.486626
  N     9.321581  3.567155  1.329017
  N     7.726501 -1.758030  0.418867
  N     7.332336  2.297106  0.406724
  N     7.041129 -1.497705  4.303859
  N     6.744353  2.821478  4.258051
  S     6.193242 -1.860134  2.879319
  S     5.972774  2.218079  2.875524
  S     9.228905 -1.213801 -0.017580
  S     8.815585  2.860820 -0.092692
  S     8.542927 -0.856468  4.047825
  S     8.256649  3.411938  3.903390
