16  
    
  C     7.228405 -1.315228  2.311010
  C     7.828721  2.841875  2.327890
  C     6.144742 -1.875657  1.532356
  C     6.666219  2.275723  1.691797
  N     8.278493 -0.947449  1.595927
  N     8.835857  3.062076  1.509986
  N     6.324897 -1.793491  0.219073
  N     6.819559  2.142946  0.397996
  N     5.225912 -1.848527  3.929109
  N     6.017865  2.467915  4.097890
  S     4.735206 -2.351548  2.488419
  S     5.264411  2.070064  2.727373
  S     7.840668 -1.173786  0.003300
  S     8.290627  2.615566 -0.010272
  S     6.791828 -1.255710  4.001177
  S     7.585050  3.023940  4.020358
