16  
    
  C    10.861245  0.672971  2.960844
  C    10.789560  4.469800  2.805941
  C     9.646938  0.142164  2.408519
  C     9.671060  3.742944  2.224209
  N    11.882538  0.589649  2.083391
  N    11.868623  4.599625  2.050160
  N     9.740540 -0.114866  1.091530
  N     9.965774  3.281475  1.013517
  N     9.029768  0.679430  4.830851
  N     8.742537  4.368072  4.447218
  S     8.271715  0.232511  3.430864
  S     8.405160  3.277198  3.247805
  S    11.268027  0.100643  0.630329
  S    11.476973  3.720709  0.647480
  S    10.605316  1.203607  4.593674
  S    10.291018  5.021524  4.409966
