16  
    
  C     5.448436 -2.270936  1.860216
  C     5.290332  1.588844  1.650830
  C     4.250812 -2.638279  1.134503
  C     4.256822  0.977358  0.871901
  N     6.522166 -1.899349  1.098893
  N     6.219634  2.129498  0.897290
  N     4.405526 -2.678741 -0.207852
  N     4.489229  0.912077 -0.439178
  N     3.600580 -2.708642  3.674649
  N     3.373446  0.928741  3.264799
  S     2.929893 -3.037396  2.143442
  S     2.844799  0.584561  1.753939
  S     6.006874 -2.304952 -0.471604
  S     5.935050  1.693866 -0.664520
  S     5.218436 -2.173324  3.633254
  S     4.923527  1.637988  3.366124
