16  
    
  C    10.892706  0.775385  2.987200
  C    10.909353  4.434369  3.378122
  C     9.673432  0.226730  2.362323
  C     9.771173  3.785481  2.746075
  N    11.941570  0.900373  2.168790
  N    11.931685  4.716981  2.564876
  N     9.791619 -0.003688  1.033511
  N     9.936035  3.676074  1.421048
  N     9.278046  0.218675  4.942742
  N     9.196315  4.032912  5.270236
  S     8.435462 -0.218727  3.574775
  S     8.426385  3.550223  3.864979
  S    11.404731  0.471883  0.631733
  S    11.518303  4.206590  1.089050
  S    10.841967  0.762073  4.736676
  S    10.670748  4.670746  5.068378
