16  
    
  C     6.323961 -1.622643  1.821468
  C     6.420680  2.244586  1.978851
  C     5.139958 -2.126705  1.104636
  C     5.260112  1.608852  1.380124
  N     7.354942 -1.493787  1.014978
  N     7.518305  2.338701  1.233279
  N     5.368283 -2.544049 -0.133995
  N     5.445269  1.318627  0.101750
  N     4.556658 -2.150057  3.603693
  N     4.682857  1.864071  3.867295
  S     3.826113 -2.612651  2.199522
  S     3.912809  1.364774  2.464466
  S     6.906446 -1.993982 -0.527344
  S     7.039905  1.815757 -0.308188
  S     6.040685 -1.461297  3.533251
  S     6.225329  2.523943  3.682353
