16  
    
  C    10.961650  0.591252  2.924604
  C    10.884763  4.531286  3.326351
  C     9.685707  0.180410  2.339556
  C     9.772209  3.884487  2.689765
  N    11.888506  0.879420  2.047955
  N    11.937593  4.724160  2.546585
  N     9.716121 -0.023664  1.052310
  N     9.985922  3.583306  1.420369
  N     9.394959  0.317096  4.889652
  N     9.234804  3.918930  5.165926
  S     8.543393 -0.206500  3.545900
  S     8.414910  3.659024  3.719471
  S    11.293024  0.366472  0.584668
  S    11.512261  4.190227  1.066528
  S    10.889741  0.954480  4.591335
  S    10.731417  4.612861  5.091151
