16  
    
  C     8.793889 -0.752947  2.417582
  C     8.530694  3.216132  2.579160
  C     7.591941 -1.052277  1.699080
  C     7.397548  2.639092  1.991716
  N     9.901084 -0.646638  1.611334
  N     9.524011  3.561243  1.739943
  N     7.785852 -1.352019  0.384454
  N     7.476041  2.495182  0.669177
  N     6.792039 -0.769979  4.145541
  N     6.839190  2.800059  4.450658
  S     6.109161 -1.050346  2.679544
  S     6.050967  2.359244  3.078441
  S     9.388459 -1.093985  0.080940
  S     8.978715  3.041930  0.246017
  S     8.456692 -0.482686  4.080007
  S     8.376111  3.309238  4.270667
