16  
    
  C     5.769860 -2.151259  2.113076
  C     5.900910  1.324564  1.906502
  C     4.553741 -2.578972  1.447275
  C     4.692637  0.952517  1.199428
  N     6.808263 -2.054971  1.278511
  N     6.938761  1.587484  1.129609
  N     4.684715 -2.888175  0.144547
  N     4.828431  0.924550 -0.124632
  N     3.970063 -2.187738  3.921792
  N     4.097265  0.844648  3.684896
  S     3.202177 -2.816932  2.532465
  S     3.446203  0.413055  2.211449
  S     6.249289 -2.398300 -0.259098
  S     6.375935  1.456140 -0.421020
  S     5.601304 -1.960015  3.822895
  S     5.618451  1.552717  3.636582
