16  
    
  C    10.039595 -0.058089  2.976913
  C    10.313434  3.532777  3.150390
  C     8.852898 -0.424384  2.201588
  C     9.067830  3.769249  2.431704
  N    11.132519  0.162857  2.192449
  N    11.322089  3.543047  2.312009
  N     9.004392 -0.353643  0.869711
  N     9.114344  3.903679  1.099537
  N     8.112848 -0.507127  4.613320
  N     8.513681  3.564700  4.910557
  S     7.465804 -0.765459  3.091979
  S     7.727804  3.989160  3.511983
  S    10.616482 -0.030142  0.592892
  S    10.790018  3.766312  0.754826
  S     9.773209 -0.355770  4.697699
  S    10.140875  3.473344  4.909033
