16  
    
  C    10.177998  0.562870  2.669322
  C    10.751976  4.319376  2.779538
  C     8.965056  0.110868  2.072045
  C     9.482647  3.876717  2.276086
  N    11.219291  0.761536  1.828501
  N    11.799207  4.235763  1.918547
  N     9.074685 -0.203154  0.770278
  N     9.516074  3.703629  0.963396
  N     8.349778  0.425754  4.525619
  N     8.950716  4.173467  4.746002
  S     7.746862 -0.420551  3.193078
  S     8.147247  3.638661  3.391726
  S    10.646608  0.108254  0.396677
  S    11.018036  3.904312  0.449473
  S     9.955960  0.817134  4.395614
  S    10.549492  4.649504  4.496772
