16  
    
  C     8.998183 -0.201508  2.370675
  C     9.448659  3.190955  2.711940
  C     7.876480 -0.928937  1.846176
  C     8.140738  2.889030  2.080984
  N    10.047262 -0.226851  1.523526
  N    10.454513  3.179659  1.810488
  N     8.029216 -1.337321  0.571237
  N     8.187722  2.605347  0.774165
  N     7.252007 -0.367542  4.292503
  N     7.672028  3.260749  4.645642
  S     6.592854 -1.128552  2.990247
  S     6.892104  2.877827  3.217280
  S     9.559259 -0.961302  0.114811
  S     9.795643  2.721779  0.389640
  S     8.851436  0.151239  4.070701
  S     9.299908  3.654836  4.456334
