16  
    
  C     4.733085 -2.521014  1.617624
  C     5.089235  1.369463  1.863262
  C     3.476137 -2.687781  0.927105
  C     3.857941  1.008330  1.242290
  N     5.788214 -2.627533  0.830862
  N     6.091408  1.645235  1.041190
  N     3.585922 -3.017843 -0.322541
  N     3.888783  1.069258 -0.093307
  N     2.908464 -2.386593  3.432604
  N     3.335375  0.883979  3.789323
  S     2.127900 -2.868230  2.044698
  S     2.471568  0.743668  2.317556
  S     5.212088 -2.906227 -0.715870
  S     5.374790  1.590127 -0.469777
  S     4.565966 -2.250425  3.297514
  S     4.898535  1.454538  3.583964
