16  
    
  C     9.974659 -0.174880  2.965617
  C    10.340696  3.422633  3.088929
  C     8.805587 -0.569549  2.176588
  C     9.043747  3.733907  2.471419
  N    11.073751  0.118662  2.251268
  N    11.345602  3.501458  2.210427
  N     9.046806 -0.510520  0.866630
  N     8.997620  3.830965  1.152104
  N     8.085108 -0.627654  4.638831
  N     8.485589  3.560078  4.964492
  S     7.389984 -0.879435  3.156056
  S     7.697135  3.937569  3.537293
  S    10.612427 -0.002703  0.682543
  S    10.639244  3.801276  0.702874
  S     9.688662 -0.216982  4.683727
  S    10.118540  3.274490  4.758906
