16  
    
  C     5.398660 -2.171216  1.512187
  C     5.083550  1.687114  1.615211
  C     4.288229 -2.744728  0.818836
  C     4.071113  0.869148  0.990652
  N     6.438486 -1.987011  0.770401
  N     6.163746  1.848805  0.846560
  N     4.520691 -2.947172 -0.453319
  N     4.430138  0.209268 -0.113465
  N     3.514315 -2.471683  3.274846
  N     3.107561  1.841547  3.182815
  S     2.854817 -2.875867  1.799893
  S     2.581595  0.880274  1.960213
  S     6.089540 -2.457990 -0.758422
  S     5.920202  0.857881 -0.464263
  S     5.079546 -1.870252  3.198361
  S     4.704096  2.401560  3.155838
