16  
    
  C     4.223732 -2.240931  1.752988
  C     3.991168  1.229776  1.192086
  C     3.079396 -2.953835  1.217993
  C     3.025127  0.287682  0.708907
  N     5.231095 -2.113705  0.910929
  N     4.974614  1.441528  0.333846
  N     3.246845 -3.273881 -0.044094
  N     3.167472 -0.084192 -0.572556
  N     2.592990 -2.721651  3.773586
  N     2.308702  0.938366  3.082236
  S     1.781030 -3.189128  2.402424
  S     1.704710  0.027201  1.786250
  S     4.666290 -2.675121 -0.547997
  S     4.552783  0.745681 -1.087567
  S     4.077833 -1.980714  3.529789
  S     3.741746  1.679851  2.832788
