16  
    
  C     9.738579 -0.108791  2.861404
  C     9.740555  3.526174  2.747003
  C     8.534455 -0.618665  2.197239
  C     8.543509  3.166037  2.088348
  N    10.714970  0.135344  2.049010
  N    10.697477  3.890222  1.888488
  N     8.749059 -0.838712  0.932789
  N     8.541643  3.273492  0.763337
  N     7.883201 -0.461628  4.686049
  N     7.933235  3.224455  4.602182
  S     7.130620 -0.829222  3.236153
  S     7.120430  3.305857  3.187474
  S    10.250907 -0.325534  0.539784
  S    10.025423  3.803748  0.382568
  S     9.509718  0.087003  4.602336
  S     9.546498  3.533358  4.475091
