16  
    
  C     4.776730 -2.018075  1.849437
  C     4.167982  1.080847  1.311696
  C     3.593193 -2.484665  1.243660
  C     2.964900  0.845739  0.610042
  N     5.802218 -1.825180  0.972562
  N     5.230570  1.317330  0.569376
  N     3.705702 -2.700926 -0.078538
  N     3.124415  0.808953 -0.696808
  N     2.905260 -2.027774  3.670638
  N     2.382343  1.182840  3.096336
  S     2.187069 -2.492579  2.244125
  S     1.601944  0.656898  1.676330
  S     5.240467 -2.327837 -0.501743
  S     4.714877  1.138362 -0.970487
  S     4.541539 -1.793060  3.590287
  S     4.042485  1.247221  2.989320
