16  
    
  C     5.424871 -2.194391  1.513129
  C     5.119170  1.593328  1.573406
  C     4.263913 -2.635530  0.753639
  C     4.144025  0.778810  0.974841
  N     6.543088 -2.002126  0.865691
  N     6.232255  1.759602  0.856067
  N     4.513534 -2.816087 -0.522217
  N     4.420849  0.437165 -0.272659
  N     3.516438 -2.461752  3.266092
  N     3.141677  1.824262  3.148047
  S     2.866893 -2.877740  1.787180
  S     2.637216  0.856108  1.847707
  S     6.136492 -2.483410 -0.740689
  S     5.970470  0.994269 -0.550167
  S     5.100600 -1.957085  3.276136
  S     4.725804  2.356570  3.050117
