16  
    
  C     5.388923 -2.226317  1.537733
  C     5.031376  1.804986  1.654311
  C     4.251640 -2.791587  0.865814
  C     4.002816  0.969262  1.155596
  N     6.412710 -2.001704  0.718522
  N     6.119782  1.870435  0.913237
  N     4.468997 -3.148059 -0.383216
  N     4.303491  0.253436  0.060635
  N     3.461347 -2.361189  3.309990
  N     3.018082  1.879730  3.383219
  S     2.856837 -3.003575  1.880876
  S     2.545079  0.839760  2.107656
  S     5.951371 -2.520718 -0.782107
  S     5.861450  0.750824 -0.329757
  S     5.063699 -1.770116  3.194959
  S     4.626876  2.318327  3.248103
