16  
    
  C     9.760986  0.002922  2.818365
  C     9.901276  3.511941  2.650987
  C     8.557633 -0.575639  2.199230
  C     8.583889  3.162119  2.099918
  N    10.698135  0.480934  1.987387
  N    10.878802  3.825817  1.773843
  N     8.633186 -0.512431  0.853533
  N     8.613536  3.244348  0.799080
  N     8.210043 -0.785083  4.722129
  N     8.150898  3.162805  4.626334
  S     7.286077 -0.998946  3.344949
  S     7.237788  2.867190  3.232327
  S    10.115728  0.154164  0.450016
  S    10.114086  3.680637  0.310206
  S     9.642470  0.123490  4.534984
  S     9.722681  3.664427  4.392928
