16  
    
  C     9.089814 -0.431078  2.561240
  C     9.182022  3.503834  2.763594
  C     7.836606 -0.770558  1.973089
  C     7.862786  3.116445  2.178880
  N    10.025623 -0.121331  1.642066
  N    10.187700  3.576304  1.862597
  N     7.813854 -0.918705  0.627893
  N     7.918906  3.030914  0.859213
  N     7.316223 -0.875042  4.511777
  N     7.359592  3.298642  4.649149
  S     6.520646 -1.035653  3.065998
  S     6.509056  2.843487  3.259255
  S     9.312480 -0.384022  0.136455
  S     9.487412  3.288665  0.365140
  S     8.872724 -0.335716  4.273536
  S     8.999490  3.635902  4.493119
