16  
    
  C     9.006285 -0.207918  2.371357
  C     9.443716  3.186413  2.708671
  C     7.874996 -0.932714  1.842545
  C     8.141639  2.880553  2.076041
  N    10.046114 -0.224422  1.523043
  N    10.443857  3.177719  1.810009
  N     8.030507 -1.338228  0.579207
  N     8.187199  2.599426  0.769374
  N     7.258164 -0.365010  4.297047
  N     7.671770  3.258419  4.641654
  S     6.601000 -1.130124  2.993091
  S     6.886984  2.878529  3.213988
  S     9.554165 -0.962576  0.117891
  S     9.792833  2.722281  0.386495
  S     8.854182  0.149187  4.076565
  S     9.302377  3.656412  4.462086
