16  
    
  C    11.984626  1.524375  3.556485
  C    11.923407  5.081721  3.795371
  C    10.897786  0.833127  2.934852
  C    10.716808  4.535761  3.202856
  N    12.883168  2.081177  2.779423
  N    12.841974  5.378214  2.847339
  N    11.083960  0.651342  1.642334
  N    10.638386  4.569251  1.878646
  N    10.495212  0.666906  5.409430
  N    10.506714  4.299079  5.830321
  S     9.707056  0.250876  4.035505
  S     9.614288  3.934823  4.464860
  S    12.438671  1.558140  1.240721
  S    12.213754  5.059004  1.379202
  S    11.897014  1.504097  5.252820
  S    11.981149  4.993498  5.478006
