16  
    
  C    11.464953  0.814660  3.016146
  C    11.101982  4.756674  3.516892
  C    10.351410  0.176513  2.362846
  C     9.946382  4.118702  2.968245
  N    12.624785  0.813765  2.297391
  N    12.083610  4.890736  2.598532
  N    10.506332 -0.031491  1.054918
  N    10.054627  3.656124  1.724577
  N     9.440326  0.584028  4.672086
  N     9.455067  4.485270  5.453435
  S     8.927172 -0.108489  3.270125
  S     8.618401  3.939811  4.075948
  S    12.108236  0.387828  0.753375
  S    11.611677  4.052655  1.313918
  S    10.977445  1.115823  4.675511
  S    10.980825  5.153149  5.193665
