16  
    
  C    12.517579  1.475096  3.609444
  C    12.344877  5.204587  3.445121
  C    11.335185  0.987973  3.066989
  C    11.108689  4.752337  2.818586
  N    13.508637  1.813766  2.782548
  N    13.426895  5.226937  2.589370
  N    11.353591  0.875280  1.728711
  N    11.221470  4.584845  1.494459
  N    10.826572  1.471181  5.500918
  N    10.702884  4.920331  5.375139
  S    10.118339  0.805980  4.208167
  S     9.788635  4.599684  4.026270
  S    12.898643  1.413747  1.298570
  S    12.760079  4.846326  1.084971
  S    12.427939  1.717917  5.381558
  S    12.250699  5.444412  5.131279
