16  
    
  C     8.464674 -0.943442  2.388112
  C     8.267546  2.687036  2.006966
  C     7.289127 -1.271766  1.705453
  C     7.067147  2.325306  1.332358
  N     9.563182 -0.882397  1.610022
  N     9.376295  2.786534  1.235424
  N     7.420861 -1.310268  0.364849
  N     7.215467  2.117285  0.008259
  N     6.645059 -1.159664  4.120229
  N     6.415933  2.313004  3.791246
  S     5.910510 -1.591160  2.640928
  S     5.676288  1.921361  2.370108
  S     9.011257 -1.149366  0.074805
  S     8.804388  2.440485 -0.268200
  S     8.257124 -0.927847  4.072053
  S     7.953498  2.792431  3.728669
