16  
    
  C     8.639298 -0.964733  2.364284
  C     8.350150  3.088371  2.149470
  C     7.528484 -1.690811  1.717934
  C     7.157420  2.487515  1.518640
  N     9.576513 -0.716217  1.491688
  N     9.283127  3.316971  1.249170
  N     7.615923 -1.814665  0.423697
  N     7.245452  2.175766  0.233959
  N     6.942242 -1.406188  4.208872
  N     6.691243  2.793762  4.047749
  S     6.241177 -1.911472  2.821962
  S     5.904771  2.185802  2.704006
  S     9.064918 -1.158345 -0.006986
  S     8.728984  2.777459 -0.186011
  S     8.538007 -0.905079  4.131380
  S     8.266799  3.338518  3.956154
