16  
    
  C     4.629459 -2.053123  1.568691
  C     4.738075  1.533421  1.752586
  C     3.344194 -2.361036  0.985793
  C     3.484873  1.351246  1.068187
  N     5.649105 -1.916834  0.705328
  N     5.796221  1.619750  0.968201
  N     3.405979 -2.632421 -0.322850
  N     3.602859  1.131392 -0.259764
  N     2.903166 -2.257033  3.491841
  N     2.898038  1.407809  3.700752
  S     2.015475 -2.514129  2.072486
  S     2.151274  1.185852  2.223139
  S     5.002641 -2.379687 -0.807334
  S     5.231327  1.369565 -0.568983
  S     4.555586 -2.065097  3.288833
  S     4.541636  1.685489  3.440525
