16  
    
  C    10.053024 -0.096466  2.988279
  C    10.340081  3.518081  3.144784
  C     8.863303 -0.405786  2.224663
  C     9.058745  3.688252  2.448245
  N    11.130214  0.167585  2.219421
  N    11.350099  3.532954  2.275459
  N     9.002523 -0.404077  0.899564
  N     9.148823  3.904768  1.140524
  N     8.085320 -0.534119  4.622757
  N     8.473423  3.561071  4.914561
  S     7.476853 -0.784050  3.097386
  S     7.726385  3.998033  3.516284
  S    10.601484 -0.023919  0.611301
  S    10.738975  3.778970  0.738357
  S     9.729905 -0.333928  4.662600
  S    10.130058  3.425156  4.890071
