16  
    
  C     5.397592 -2.178097  1.520988
  C     5.086186  1.678815  1.622388
  C     4.289348 -2.736046  0.817312
  C     4.069040  0.863783  0.982657
  N     6.437121 -1.985062  0.765949
  N     6.162256  1.850075  0.848239
  N     4.521560 -2.939037 -0.462192
  N     4.427398  0.211498 -0.122960
  N     3.509980 -2.474090  3.277296
  N     3.112283  1.843780  3.183890
  S     2.854773 -2.874611  1.798071
  S     2.584915  0.878876  1.951391
  S     6.095086 -2.459570 -0.757600
  S     5.923636  0.863520 -0.468096
  S     5.082972 -1.872546  3.201322
  S     4.707632  2.403120  3.151184
