16  
    
  C     3.450537 -3.095768  1.039255
  C     3.715845  0.532226  1.384473
  C     2.165788 -3.442732  0.429987
  C     2.467758  0.159018  0.686883
  N     4.414173 -2.836643  0.166185
  N     4.745633  0.835422  0.615868
  N     2.247700 -3.564615 -0.880799
  N     2.712224 -0.008255 -0.613190
  N     1.642310 -3.340120  2.959713
  N     1.955466  0.360370  3.167714
  S     0.840364 -3.595994  1.536161
  S     1.096681  0.123807  1.735350
  S     3.830687 -3.343419 -1.317681
  S     4.257440  0.446631 -0.937741
  S     3.222243 -3.051375  2.834487
  S     3.526978  0.855806  3.119865
