16  
    
  C     5.817731 -2.316026  2.066234
  C     5.809094  1.363311  1.806629
  C     4.567738 -2.628298  1.394598
  C     4.645324  0.812968  1.151097
  N     6.880986 -2.062864  1.264954
  N     6.869589  1.589809  1.012928
  N     4.671645 -2.671421  0.055869
  N     4.854003  0.804573 -0.166625
  N     4.052009 -2.422740  3.955776
  N     4.000527  0.889112  3.643225
  S     3.234715 -2.670244  2.511661
  S     3.310677  0.452447  2.223702
  S     6.272849 -2.371964 -0.278593
  S     6.384914  1.199989 -0.505745
  S     5.687222 -2.038192  3.722495
  S     5.593126  1.425969  3.534175
