16  
    
  C    12.001044  1.596309  3.484066
  C    12.158125  5.024777  3.770956
  C    10.962941  0.896872  2.827383
  C    10.871741  4.509395  3.312394
  N    12.972488  1.899993  2.634423
  N    13.049042  5.476359  2.877644
  N    11.076347  0.677777  1.512468
  N    10.769692  4.624968  1.957838
  N    10.319921  1.025893  5.326139
  N    10.565768  4.577119  5.841367
  S     9.769479  0.332669  3.920602
  S     9.647991  4.241294  4.473721
  S    12.531861  1.439995  1.124134
  S    12.251343  5.214266  1.404845
  S    11.826680  1.701028  5.239423
  S    12.146557  4.983605  5.517923
