16  
    
  C    10.949107  0.516286  3.228161
  C    11.083988  4.256558  3.376501
  C     9.821807  0.049770  2.467894
  C     9.868643  3.838140  2.740302
  N    11.967902  0.939068  2.488299
  N    12.036878  4.597857  2.528054
  N    10.080858 -0.012937  1.146690
  N     9.904131  3.748982  1.408065
  N     9.090445  0.175229  4.988288
  N     9.428614  3.971545  5.321312
  S     8.415684 -0.221387  3.517386
  S     8.581819  3.491067  3.969370
  S    11.527314  0.739396  0.910000
  S    11.427614  4.206022  0.966749
  S    10.722153  0.604463  4.979687
  S    10.999705  4.435221  5.057208
