16  
    
  C     5.813377 -2.158892  1.878389
  C     6.074053  1.712006  1.958990
  C     4.591898 -2.442172  1.186334
  C     4.760574  1.683549  1.427665
  N     6.889739 -2.055842  1.052541
  N     7.050072  1.373540  1.110011
  N     4.767212 -2.697827 -0.139472
  N     4.658065  1.339122  0.156288
  N     4.003858 -2.349987  3.699440
  N     4.497989  2.055910  3.979168
  S     3.246595 -2.804678  2.272716
  S     3.579276  2.000200  2.616690
  S     6.294352 -2.296851 -0.466920
  S     6.278579  1.138445 -0.357831
  S     5.621078 -1.985117  3.597906
  S     6.157088  2.138950  3.682779
