16  
    
  C     3.676109 -2.709797  1.166316
  C     4.013606  1.034491  1.447308
  C     2.589017 -3.491305  0.663665
  C     2.856295  0.370147  0.899534
  N     4.686844 -2.593709  0.329897
  N     5.010121  1.236415  0.581098
  N     2.810320 -3.991162 -0.538709
  N     2.962277  0.127155 -0.406474
  N     1.964646 -2.966590  3.126212
  N     2.302430  0.700621  3.470317
  S     1.247012 -3.657631  1.763335
  S     1.454342  0.310698  2.008358
  S     4.262898 -3.455019 -1.041474
  S     4.445007  0.752913 -0.895091
  S     3.523096 -2.449857  2.893011
  S     3.892580  1.240513  3.239558
