16  
    
  C    12.083505  1.444101  3.358178
  C    12.284120  5.135414  3.746587
  C    10.937728  0.856916  2.648788
  C    10.982088  4.884490  3.231127
  N    13.146011  1.565313  2.608160
  N    13.223630  5.312979  2.834184
  N    11.135948  0.605491  1.355235
  N    10.974821  4.759485  1.907980
  N    10.302412  1.141547  5.216480
  N    10.580453  4.844291  5.671952
  S     9.618176  0.685657  3.769619
  S     9.694213  4.596043  4.306044
  S    12.679621  1.173026  1.020691
  S    12.515738  4.939737  1.373323
  S    11.861782  1.735340  5.028117
  S    12.143853  5.299554  5.494250
