16  
    
  C    12.538859  1.634842  3.492717
  C    12.371080  5.290019  3.474849
  C    11.318218  1.011741  2.941789
  C    11.192702  4.788548  2.887197
  N    13.548646  1.779760  2.642523
  N    13.325268  5.466360  2.619515
  N    11.374603  0.895390  1.639999
  N    11.213370  4.505482  1.581022
  N    10.852926  1.265726  5.430464
  N    10.646424  4.908214  5.450327
  S    10.018614  0.774962  4.094178
  S     9.847960  4.633902  3.980079
  S    12.891008  1.364634  1.098715
  S    12.699088  4.949776  1.106367
  S    12.439964  1.802264  5.252754
  S    12.227704  5.491944  5.223754
