16  
    
  C     4.582070 -2.104552  1.528609
  C     5.078098  1.418344  1.911344
  C     3.531760 -2.869230  0.829751
  C     3.735527  1.236754  1.401600
  N     5.659106 -1.830166  0.826869
  N     6.042474  1.364769  1.005520
  N     3.817748 -3.083135 -0.433544
  N     3.664231  1.157929  0.082796
  N     2.900186 -2.860678  3.362407
  N     3.464243  1.763752  3.820923
  S     2.257975 -3.419255  1.912111
  S     2.528257  1.432302  2.528194
  S     5.290968 -2.366787 -0.728362
  S     5.240159  1.335886 -0.455893
  S     4.377701 -2.119920  3.297329
  S     5.046027  1.479080  3.674760
