16  
    
  C    12.851738  1.550237  3.329358
  C    12.465029  5.082388  3.307365
  C    11.587369  1.107159  2.780434
  C    11.252279  4.714910  2.679664
  N    13.814920  1.714931  2.439747
  N    13.511903  5.396894  2.526501
  N    11.595582  0.890411  1.468983
  N    11.351721  4.623610  1.355243
  N    11.308089  1.334459  5.335001
  N    10.573197  4.913917  5.159533
  S    10.361425  1.020383  3.985570
  S     9.897700  4.448427  3.697678
  S    13.121165  1.340606  0.946212
  S    12.877509  5.097636  0.947371
  S    12.850862  2.010167  5.059449
  S    12.231776  5.233941  5.030766
