16  
    
  C     4.780784 -2.023950  1.850922
  C     4.173686  1.077798  1.319978
  C     3.594504 -2.481929  1.243129
  C     2.973367  0.850922  0.615771
  N     5.799501 -1.817570  0.963163
  N     5.227033  1.328360  0.569447
  N     3.703653 -2.696586 -0.084107
  N     3.122336  0.808658 -0.695401
  N     2.910048 -2.018444  3.668475
  N     2.382131  1.176504  3.098640
  S     2.186203 -2.484107  2.243600
  S     1.608466  0.661575  1.678954
  S     5.236184 -2.327603 -0.503321
  S     4.719197  1.142159 -0.967381
  S     4.547214 -1.795051  3.589091
  S     4.044496  1.247146  2.985995
