16  
    
  C     8.320900 -0.865884  2.438789
  C     8.127312  2.731047  2.307768
  C     7.133605 -1.543002  2.055502
  C     6.982471  2.263564  1.609609
  N     9.321219 -0.920931  1.512908
  N     9.203433  2.882595  1.550333
  N     7.139456 -1.984203  0.764245
  N     7.231533  1.977649  0.324715
  N     6.797047 -0.728338  4.475020
  N     6.242740  2.791048  3.941599
  S     5.906291 -1.389741  3.264762
  S     5.609139  2.054403  2.662644
  S     8.663422 -1.609268  0.181666
  S     8.757603  2.461307  0.035139
  S     8.425448 -0.433082  4.147415
  S     7.856064  3.099539  3.981887
