16  
    
  C    12.814492  1.551891  3.584885
  C    12.371064  4.987626  3.451888
  C    11.553306  1.233139  3.006140
  C    11.227330  4.542097  2.709464
  N    13.858390  1.533437  2.755368
  N    13.395484  5.182565  2.683542
  N    11.644076  1.168892  1.706207
  N    11.402497  4.324874  1.422785
  N    10.969315  1.897961  5.392774
  N    10.436881  4.387708  5.155924
  S    10.125717  1.388355  4.063475
  S     9.769470  4.215049  3.588264
  S    13.239526  1.310099  1.248700
  S    12.956846  4.818882  1.140076
  S    12.637960  1.887790  5.362956
  S    11.922023  5.159785  5.160862
