16  
    
  C     4.258922 -2.518639  1.622150
  C     4.200997  1.150319  1.666430
  C     3.087825 -3.166998  1.089685
  C     2.890068  0.887710  1.084464
  N     5.243199 -2.264590  0.740505
  N     5.152785  1.279636  0.763283
  N     3.238982 -3.523116 -0.194730
  N     2.892341  0.634638 -0.220924
  N     2.651423 -2.855692  3.632630
  N     2.405097  1.335211  3.559939
  S     1.831283 -3.366430  2.295709
  S     1.503078  0.925116  2.179650
  S     4.779416 -3.015186 -0.708296
  S     4.455484  0.823351 -0.706415
  S     4.113253 -2.135168  3.295411
  S     4.022369  1.423372  3.421314
