16  
    
  C     5.200728 -2.238122  1.552394
  C     4.984346  1.563372  1.950709
  C     4.057815 -2.800501  0.958854
  C     3.868706  0.951627  1.309303
  N     6.264000 -2.201073  0.721174
  N     6.119614  1.666980  1.226162
  N     4.258754 -3.281490 -0.283724
  N     4.157093  0.469563  0.103275
  N     3.403463 -2.242566  3.390596
  N     2.993492  1.527945  3.709489
  S     2.779717 -3.129984  2.082427
  S     2.405934  0.812748  2.339216
  S     5.786858 -2.803917 -0.707071
  S     5.697693  0.962098 -0.229354
  S     5.006954 -1.799930  3.159146
  S     4.538108  2.239172  3.482566
