16  
    
  C     8.841776 -0.897264  2.379204
  C     8.536332  3.215264  2.486669
  C     7.636108 -1.322028  1.729445
  C     7.344925  2.605131  1.883677
  N     9.937998 -0.888155  1.547849
  N     9.483362  3.555990  1.572064
  N     7.748251 -1.384619  0.384930
  N     7.376402  2.478038  0.552042
  N     6.885130 -1.014319  4.150372
  N     6.771567  2.818634  4.398905
  S     6.202789 -1.543246  2.756825
  S     6.099272  2.213132  3.011376
  S     9.362975 -1.184629 -0.010792
  S     8.851532  3.032019  0.128445
  S     8.519438 -0.689774  4.096287
  S     8.267448  3.544162  4.159573
