16  
    
  C    11.004374  0.544523  3.201299
  C    11.056178  4.304233  3.396090
  C     9.840716 -0.004702  2.532339
  C     9.853437  3.742623  2.809004
  N    11.981786  0.997914  2.416305
  N    12.037424  4.559283  2.498406
  N     9.971039 -0.051763  1.207850
  N     9.862286  3.743020  1.487609
  N     9.143551  0.139449  4.937021
  N     9.308956  4.024946  5.300845
  S     8.426019 -0.142998  3.456854
  S     8.566113  3.500790  3.903244
  S    11.435579  0.690326  0.841827
  S    11.402508  4.228168  1.033949
  S    10.723843  0.626186  4.892287
  S    10.856694  4.579029  5.124712
