16  
    
  C     8.606867 -1.016936  2.373997
  C     8.339872  3.033383  2.119109
  C     7.523222 -1.677356  1.738967
  C     7.163116  2.465050  1.536676
  N     9.572743 -0.713991  1.503777
  N     9.320681  3.246911  1.231516
  N     7.587609 -1.804846  0.411409
  N     7.232552  2.174781  0.228784
  N     6.949626 -1.363687  4.196653
  N     6.664839  2.775586  4.057853
  S     6.237666 -1.913302  2.794726
  S     5.873475  2.171146  2.675040
  S     9.023571 -1.148578  0.020471
  S     8.723563  2.770305 -0.213576
  S     8.520820 -0.911167  4.117838
  S     8.241491  3.303650  3.918737
