16  
    
  C    10.233297  0.472855  2.883519
  C    10.733382  4.469475  2.882698
  C     8.997718 -0.040910  2.263870
  C     9.577507  4.029637  2.109223
  N    11.083774  0.959864  2.001019
  N    11.759754  4.721840  2.068535
  N     9.036230 -0.191020  0.951462
  N     9.720399  3.945542  0.786622
  N     8.480474  0.085839  4.774302
  N     8.888586  3.873938  4.623057
  S     7.752644 -0.525368  3.375435
  S     8.232898  3.699613  3.118277
  S    10.448286  0.612989  0.482337
  S    11.260047  4.358198  0.487242
  S    10.111422  0.472090  4.659992
  S    10.513072  4.298615  4.651190
