16  
    
  C     6.095765 -2.023527  1.702455
  C     6.205573  1.930106  1.832937
  C     4.840390 -2.302880  1.075425
  C     4.920260  1.830297  1.153158
  N     7.194848 -2.084931  0.911929
  N     7.224396  1.769792  1.004087
  N     4.945918 -2.656848 -0.221900
  N     5.058321  1.663021 -0.165624
  N     4.307723 -2.046291  3.605140
  N     4.387137  1.725827  3.697366
  S     3.567603 -2.516195  2.156022
  S     3.598115  1.998346  2.243966
  S     6.564155 -2.457984 -0.607707
  S     6.637767  1.637182 -0.499315
  S     5.921085 -1.668773  3.399331
  S     6.068425  1.852913  3.582634
