16  
    
  C     4.275898 -2.653105  1.549339
  C     4.208898  1.146973  1.752373
  C     3.040598 -3.174142  1.064286
  C     2.923167  1.167228  1.148981
  N     5.280012 -2.652871  0.665003
  N     5.204631  0.994416  0.889696
  N     3.048880 -3.473152 -0.238271
  N     2.919140  1.050475 -0.176954
  N     2.543975 -2.520413  3.552109
  N     2.518919  1.300673  3.648586
  S     1.803970 -3.331423  2.286413
  S     1.562444  1.350321  2.272460
  S     4.608484 -3.170944 -0.751084
  S     4.519180  0.858852 -0.605045
  S     4.114912 -2.079861  3.230642
  S     4.202363  1.533554  3.410509
