16  
    
  C    11.259263  0.939826  3.337803
  C    11.615865  4.664175  2.801636
  C     9.949112  0.567562  2.756340
  C    10.353886  4.200066  2.223231
  N    12.206172  1.186042  2.443608
  N    12.599007  4.816926  1.934037
  N    10.008375  0.377274  1.412856
  N    10.378791  4.179923  0.860532
  N     9.578463  1.087096  5.290005
  N     9.926968  4.524139  4.671400
  S     8.696693  0.477033  3.945961
  S     9.087071  3.957126  3.349713
  S    11.594535  0.742190  1.012313
  S    11.955710  4.533856  0.470900
  S    11.241021  1.084890  5.056448
  S    11.556165  4.824359  4.493332
