16  
    
  C    11.665959  1.099424  3.301644
  C    12.017731  4.996228  3.204294
  C    10.509848  0.672881  2.644114
  C    10.808044  4.342415  2.755620
  N    12.705234  1.266834  2.478554
  N    13.058107  5.080782  2.347024
  N    10.631242  0.309391  1.362119
  N    10.816570  4.065184  1.485942
  N     9.863546  1.198761  5.111307
  N    10.219406  5.167555  5.096991
  S     9.099235  0.526337  3.742406
  S     9.470003  4.335575  3.874655
  S    12.238583  0.679349  1.000026
  S    12.345285  4.505579  0.913451
  S    11.539507  1.295539  5.027705
  S    11.824116  5.543879  4.875337
