16  
    
  C    10.267148  0.085672  2.761434
  C    10.254073  4.086498  3.092137
  C     9.120630 -0.468816  2.147391
  C     8.982361  3.786339  2.523090
  N    11.336756  0.072362  1.932490
  N    11.259677  4.061573  2.207750
  N     9.214996 -0.730909  0.801402
  N     8.980497  3.425094  1.246208
  N     8.543805  0.151629  4.578505
  N     8.585486  4.414220  4.983088
  S     7.789196 -0.566586  3.283508
  S     7.756255  3.921535  3.686331
  S    10.811828 -0.474253  0.501457
  S    10.564591  3.584224  0.755200
  S    10.229854  0.339060  4.530467
  S    10.216645  4.502771  4.853709
