16  
    
  C     4.598119 -2.618975  1.592169
  C     5.057048  1.341274  1.748982
  C     3.334196 -2.813332  0.928095
  C     3.802504  1.084521  1.059074
  N     5.637181 -2.619365  0.776204
  N     6.088853  1.504639  0.908295
  N     3.451775 -2.815821 -0.416647
  N     3.839937  1.323865 -0.264176
  N     2.827991 -2.641476  3.402315
  N     3.448596  0.973424  3.663373
  S     1.983409 -2.827858  1.965656
  S     2.543233  0.723939  2.282433
  S     5.075105 -2.836657 -0.755896
  S     5.455269  1.559157 -0.630872
  S     4.436792 -2.361044  3.298226
  S     5.033504  1.415821  3.488797
