16  
    
  C     4.594495 -2.168869  1.590410
  C     4.861328  1.497255  1.902222
  C     3.389006 -2.578325  0.891434
  C     3.585782  1.353810  1.218302
  N     5.673124 -2.042148  0.826928
  N     5.849896  1.427390  1.006471
  N     3.513616 -2.633886 -0.451448
  N     3.572465  1.241164 -0.098104
  N     2.822878 -2.269385  3.446361
  N     3.105558  1.172670  3.679095
  S     2.106376 -2.825603  2.037465
  S     2.206599  1.320730  2.233071
  S     5.132796 -2.278506 -0.740755
  S     5.190343  1.245658 -0.516008
  S     4.481986 -2.006475  3.308496
  S     4.728849  1.700225  3.631805
