16  
    
  C     4.709332 -2.539865  1.601371
  C     5.090977  1.285710  1.849799
  C     3.418808 -2.681654  0.920202
  C     3.834935  1.047224  1.211570
  N     5.776018 -2.648745  0.837765
  N     6.085647  1.603176  0.984740
  N     3.531735 -2.982647 -0.362382
  N     3.865408  1.102996 -0.119175
  N     2.851684 -2.434168  3.432672
  N     3.363032  0.872718  3.789718
  S     2.094304 -2.868746  2.009426
  S     2.501948  0.745612  2.323658
  S     5.170828 -2.888796 -0.717921
  S     5.414213  1.616234 -0.524756
  S     4.563368 -2.267319  3.315312
  S     4.898168  1.444339  3.544315
