16  
    
  C     7.195361 -1.414998  2.203154
  C     7.177633  2.240363  2.079654
  C     5.969321 -1.917595  1.604174
  C     5.959950  1.706389  1.493401
  N     8.194609 -1.141827  1.399867
  N     8.222851  2.360887  1.258492
  N     6.099425 -2.110619  0.312317
  N     6.021660  1.534535  0.178707
  N     5.381752 -1.255603  4.093026
  N     5.513391  1.982659  3.984148
  S     4.653782 -1.996916  2.789163
  S     4.663626  1.607412  2.631339
  S     7.640204 -1.694831 -0.134735
  S     7.607900  1.811471 -0.279807
  S     6.975122 -1.119847  3.968348
  S     7.046207  2.491496  3.742768
