16  
    
  C     5.189121 -2.227009  1.547499
  C     5.003355  1.546881  1.996296
  C     4.036524 -2.827956  0.974324
  C     3.880206  0.955499  1.317710
  N     6.249465 -2.216260  0.742727
  N     6.113870  1.651973  1.227968
  N     4.234072 -3.296394 -0.288892
  N     4.150758  0.493730  0.103586
  N     3.405881 -2.254171  3.402390
  N     3.011066  1.498460  3.717690
  S     2.759203 -3.119590  2.083898
  S     2.405032  0.816932  2.354934
  S     5.767952 -2.827176 -0.706002
  S     5.674063  0.982909 -0.229673
  S     5.005600 -1.801224  3.167374
  S     4.513647  2.218027  3.507939
