16  
    
  C     3.762357 -2.773145  1.262906
  C     4.078823  1.038321  1.545165
  C     2.646678 -3.492179  0.718399
  C     2.867174  0.548131  0.899120
  N     4.739336 -2.469890  0.401051
  N     4.979608  1.369954  0.638989
  N     2.852030 -3.957174 -0.528473
  N     2.930153  0.268470 -0.410991
  N     2.008876 -2.911064  3.186750
  N     2.331568  0.867153  3.386190
  S     1.242768 -3.562949  1.876988
  S     1.573237  0.452156  2.022668
  S     4.461618 -3.425812 -0.946541
  S     4.432094  0.773249 -0.856595
  S     3.604587 -2.486480  2.971412
  S     3.931338  1.306637  3.228542
