16  
    
  C     9.624306  0.005123  2.808505
  C     9.688448  3.509601  2.734363
  C     8.472981 -0.626998  2.154659
  C     8.451920  3.322534  2.044829
  N    10.682919  0.253434  2.115275
  N    10.682026  3.840948  1.938702
  N     8.661529 -0.815962  0.872334
  N     8.464020  3.279543  0.714359
  N     7.915207 -0.294781  4.737090
  N     8.019274  3.217238  4.658728
  S     7.228922 -0.901422  3.330310
  S     7.160498  3.166015  3.180768
  S    10.231769 -0.233960  0.568969
  S    10.072027  3.747709  0.398432
  S     9.498042  0.042249  4.575923
  S     9.687557  3.447759  4.504012
