16  
    
  C     9.819322 -0.177083  2.888997
  C     9.696950  3.628314  2.752650
  C     8.616089 -0.681086  2.173040
  C     8.445494  3.382630  2.080217
  N    10.816334  0.042763  2.092765
  N    10.716635  3.922217  1.948899
  N     8.724148 -0.843808  0.883831
  N     8.510379  3.298123  0.772825
  N     7.912597 -0.489835  4.656399
  N     7.871916  3.323901  4.606125
  S     7.210834 -0.782419  3.163899
  S     7.030504  3.293197  3.131525
  S    10.282255 -0.389790  0.546903
  S    10.083415  3.787256  0.346650
  S     9.431832  0.078807  4.570590
  S     9.543324  3.657683  4.476281
