16  
    
  C     6.266068 -1.761636  1.964383
  C     6.486251  2.149055  2.047003
  C     5.167269 -2.335279  1.227637
  C     5.297866  1.687594  1.415429
  N     7.304388 -1.468111  1.206476
  N     7.514268  2.424017  1.239817
  N     5.344137 -2.400183 -0.089497
  N     5.401326  1.405982  0.120907
  N     4.501526 -2.154004  3.772965
  N     4.747549  1.839658  3.885396
  S     3.826844 -2.710164  2.333178
  S     4.002953  1.458905  2.487610
  S     6.887689 -1.954747 -0.303623
  S     7.024606  1.817739 -0.275286
  S     5.995348 -1.472894  3.636085
  S     6.303659  2.403463  3.773032
