16  
    
  C     4.061807 -2.725257  1.563239
  C     4.264609  1.403825  1.587181
  C     2.841745 -3.134755  0.886126
  C     2.916449  1.184375  1.021379
  N     5.151388 -2.852423  0.854227
  N     5.228479  1.285231  0.668526
  N     3.061924 -3.507962 -0.353184
  N     2.900267  0.944012 -0.281902
  N     2.319159 -2.611114  3.365322
  N     2.528736  1.355837  3.494942
  S     1.531332 -3.291170  2.064921
  S     1.566165  1.248890  2.146260
  S     4.647001 -3.261987 -0.628439
  S     4.505923  1.073520 -0.775330
  S     3.942889 -2.317537  3.199595
  S     4.147068  1.658612  3.302397
