16  
    
  C     8.414283 -0.900706  2.484788
  C     8.261567  2.498949  2.096991
  C     7.120207 -1.123903  1.835885
  C     7.111715  2.082850  1.329635
  N     9.434358 -0.912684  1.604793
  N     9.424217  2.518046  1.412019
  N     7.253345 -1.482850  0.557655
  N     7.344751  1.888990  0.036522
  N     6.594952 -0.538303  4.302639
  N     6.259977  2.084550  3.808926
  S     5.777056 -1.191736  2.997140
  S     5.633567  1.826203  2.261436
  S     8.862674 -1.370232  0.124332
  S     8.990490  2.206887 -0.101341
  S     8.272051 -0.518928  4.175443
  S     7.885692  2.599415  3.763899
