16  
    
  C     9.134927 -0.481259  2.497156
  C     9.596557  3.527355  2.711060
  C     7.957936 -0.842180  1.734984
  C     8.281217  3.249061  2.147358
  N    10.262814 -0.468902  1.739343
  N    10.650806  3.286540  1.906649
  N     8.183252 -1.133833  0.457587
  N     8.399061  2.876357  0.882899
  N     7.110695 -0.682247  4.190435
  N     7.824525  3.700579  4.632359
  S     6.513943 -1.100191  2.702535
  S     6.906488  3.395115  3.266169
  S     9.784273 -0.944379  0.220196
  S     9.964925  2.871910  0.427530
  S     8.722768 -0.287398  4.171758
  S     9.464229  4.038616  4.371146
