16  
    
  C     4.521011 -2.133228  1.913306
  C     4.055446  1.198902  1.178424
  C     3.361416 -2.681597  1.263172
  C     2.828284  0.687859  0.541311
  N     5.632445 -2.000938  1.133117
  N     5.146043  1.230833  0.399324
  N     3.559086 -2.886389 -0.053712
  N     2.980293  0.523937 -0.773267
  N     2.709974 -2.433455  3.718416
  N     2.278490  0.908836  2.968736
  S     2.032614 -2.959701  2.296377
  S     1.532198  0.403980  1.603075
  S     5.142806 -2.544534 -0.373857
  S     4.640191  0.782663 -1.086991
  S     4.223654 -1.765716  3.580527
  S     3.866031  1.435996  2.899270
