16  
    
  C    11.968538  1.620910  3.539534
  C    11.965697  5.066399  3.766853
  C    10.930418  0.759492  2.963385
  C    10.707899  4.580499  3.225638
  N    12.900861  2.115669  2.705353
  N    12.876526  5.382725  2.889117
  N    11.087891  0.713514  1.656156
  N    10.635850  4.550436  1.870341
  N    10.449677  0.714334  5.445595
  N    10.539933  4.344548  5.800285
  S     9.678151  0.237248  4.040088
  S     9.655068  3.990298  4.440056
  S    12.479108  1.533612  1.239630
  S    12.189208  5.107821  1.389766
  S    11.890583  1.546211  5.204016
  S    12.050986  4.988896  5.536376
