16  
    
  C    11.353401  0.955718  3.190159
  C    11.453254  4.753004  3.141948
  C    10.139037  0.434706  2.587284
  C    10.267043  4.152344  2.517138
  N    12.283888  1.206838  2.309126
  N    12.533886  4.899690  2.386977
  N    10.227797  0.128504  1.310928
  N    10.520895  3.844324  1.263182
  N     9.641819  0.878597  5.140513
  N     9.678886  4.374196  5.042775
  S     8.918268  0.316053  3.772924
  S     9.006035  3.741381  3.683552
  S    11.713383  0.639277  0.828813
  S    12.055656  4.333598  0.816913
  S    11.242633  1.235718  4.897595
  S    11.182068  5.031158  4.870775
