16  
    
  C    11.061421  0.478062  3.188727
  C    11.121990  4.254110  3.059866
  C     9.904597 -0.016546  2.529951
  C     9.962466  3.680612  2.383546
  N    12.026664  0.802892  2.327429
  N    12.170949  4.457320  2.257205
  N    10.048103 -0.199952  1.209888
  N    10.071131  3.644818  1.073871
  N     9.317753  0.204641  5.020479
  N     9.305884  4.079628  4.842433
  S     8.559410 -0.200026  3.614625
  S     8.609897  3.393478  3.500469
  S    11.481817  0.461918  0.812951
  S    11.607525  4.016605  0.664614
  S    10.923451  0.679741  4.910575
  S    10.904720  4.491175  4.715533
