16  
    
  C     7.380704 -1.069632  2.004251
  C     7.688740  2.791722  2.144705
  C     6.138996 -1.495934  1.368618
  C     6.464855  2.296008  1.585762
  N     8.423058 -0.994472  1.170218
  N     8.711360  2.933750  1.268868
  N     6.238612 -1.618338  0.036964
  N     6.560677  1.930242  0.298917
  N     5.666368 -1.486137  3.841032
  N     5.967223  2.769611  4.119856
  S     4.877899 -1.903836  2.461817
  S     5.235724  2.105786  2.782957
  S     7.825606 -1.293573 -0.329559
  S     8.097836  2.459088 -0.201351
  S     7.331946 -1.059507  3.719208
  S     7.581207  3.211299  3.828126
