16  
    
  C    11.477468  1.448362  2.937607
  C    11.480298  4.986474  3.110654
  C    10.431424  0.570470  2.425008
  C    10.314988  4.519680  2.403720
  N    12.362728  1.731216  2.015650
  N    12.521860  5.299289  2.366283
  N    10.432141  0.336136  1.117749
  N    10.542298  4.388796  1.106852
  N    10.200941  0.629278  4.953647
  N     9.634205  4.317566  4.869696
  S     9.348611  0.050066  3.676477
  S     8.963241  3.952705  3.344776
  S    11.922281  0.974066  0.636834
  S    12.081272  4.975350  0.830827
  S    11.507335  1.590453  4.643956
  S    11.126952  5.045482  4.829946
