16  
    
  C     8.389125 -0.963891  2.409647
  C     8.209553  2.515149  2.043026
  C     7.197695 -1.155822  1.618025
  C     7.073098  2.015719  1.237576
  N     9.488230 -0.923107  1.666057
  N     9.289866  2.750360  1.306169
  N     7.443962 -1.316341  0.301010
  N     7.344193  1.831960 -0.081826
  N     6.518364 -1.146108  4.204425
  N     6.309415  2.256715  3.700728
  S     5.831626 -1.166360  2.695823
  S     5.664143  1.776798  2.239688
  S     9.078969 -1.100450  0.062519
  S     8.930141  2.357820 -0.215291
  S     8.120955 -0.801866  4.146522
  S     7.930696  2.552462  3.796240
