16  
    
  C    10.979911  0.636348  3.145948
  C    11.033618  4.312718  3.457666
  C     9.869140  0.010443  2.470579
  C     9.829392  3.843546  2.796630
  N    11.956218  1.009613  2.304866
  N    12.014934  4.549714  2.577420
  N     9.904998 -0.002752  1.139982
  N     9.898131  3.657981  1.489247
  N     9.150785  0.129704  4.944053
  N     9.245807  4.056076  5.265686
  S     8.453189 -0.125351  3.459582
  S     8.527417  3.492340  3.844569
  S    11.382089  0.592956  0.790312
  S    11.372179  4.239296  1.059313
  S    10.753718  0.659513  4.867517
  S    10.794772  4.670648  5.137666
