16  
    
  C    12.494486  1.633181  3.358821
  C    12.767121  5.452666  3.636992
  C    11.341098  1.039853  2.767937
  C    11.720757  4.945078  2.819269
  N    13.485120  1.929187  2.508920
  N    13.960616  5.759149  3.042560
  N    11.474196  0.731903  1.440372
  N    12.042053  4.900823  1.533794
  N    10.855956  1.168924  5.356249
  N    10.850947  5.088905  5.281022
  S    10.162985  0.485228  3.985705
  S    10.329674  4.561063  3.749830
  S    13.018106  1.254967  1.054161
  S    13.630154  5.438407  1.412765
  S    12.400135  1.759558  5.051911
  S    12.472497  5.633688  5.339187
