16  
    
  C     7.278876 -1.108270  2.079067
  C     7.710771  2.817831  2.197632
  C     6.063643 -1.472934  1.392985
  C     6.528428  2.258425  1.625396
  N     8.341711 -0.816924  1.264243
  N     8.692028  2.943135  1.300200
  N     6.262873 -1.708928  0.071755
  N     6.600928  2.137108  0.298813
  N     5.538921 -1.726484  3.921509
  N     5.978970  2.742536  4.086167
  S     4.813521 -1.945130  2.466868
  S     5.262886  2.030595  2.788533
  S     7.834442 -1.337255 -0.227413
  S     8.100397  2.424331 -0.170380
  S     7.140527 -1.178677  3.816908
  S     7.616222  3.198680  3.897720
