16  
    
  C    11.634783  1.065828  3.271787
  C    12.054583  4.949322  3.253160
  C    10.359999  0.664459  2.563135
  C    10.837661  4.323685  2.780778
  N    12.657372  1.188298  2.474785
  N    12.948593  5.099105  2.277704
  N    10.605638  0.323244  1.295263
  N    10.848394  4.039831  1.474327
  N     9.886568  1.203618  5.038401
  N    10.222545  5.225009  5.066921
  S     9.116728  0.509844  3.725002
  S     9.489290  4.298844  3.870880
  S    12.192139  0.748422  0.943603
  S    12.329144  4.500423  0.911501
  S    11.548484  1.272930  5.038507
  S    11.857590  5.569626  4.823784
