16  
    
  C     9.969031 -0.244981  2.861982
  C    10.092569  3.758388  2.706745
  C     8.715841 -0.525928  2.189381
  C     8.860024  3.210049  2.243661
  N    11.030902 -0.001961  2.084475
  N    11.087403  3.912701  1.834281
  N     8.922893 -0.723320  0.875245
  N     8.812988  3.076061  0.923619
  N     8.212866 -0.588624  4.740939
  N     8.626293  3.488585  4.820459
  S     7.354672 -0.800350  3.273255
  S     7.629223  3.020668  3.565009
  S    10.486728 -0.283996  0.555336
  S    10.390738  3.468644  0.373200
  S     9.808335 -0.184702  4.588391
  S    10.159255  3.870784  4.364720
