16  
    
  C     7.901602 -1.009613  1.858620
  C     7.929099  2.945972  2.404029
  C     6.662233 -1.371436  1.244554
  C     6.795916  2.397416  1.701468
  N     8.871308 -0.930590  0.988193
  N     9.035569  3.198028  1.657854
  N     6.704050 -1.688018 -0.022418
  N     7.028079  2.191808  0.414500
  N     6.092344 -0.946919  3.736506
  N     5.958589  2.569234  4.162774
  S     5.322038 -1.532050  2.390838
  S     5.315511  2.180678  2.632798
  S     8.260861 -1.363014 -0.495766
  S     8.586479  2.778233  0.101563
  S     7.702862 -0.542963  3.496697
  S     7.545891  3.156034  4.108975
