16  
    
  C    10.931602  0.582456  2.992366
  C    10.869674  4.324624  2.862460
  C     9.697721  0.145004  2.346978
  C     9.812072  3.599427  2.174771
  N    11.987722  0.495790  2.203544
  N    11.872195  4.653851  2.040545
  N     9.822570 -0.103198  1.050707
  N    10.151821  3.186776  0.948544
  N     9.284306  0.449859  4.906941
  N     8.999464  4.127009  4.596965
  S     8.452206 -0.011008  3.546986
  S     8.308106  3.500774  3.191141
  S    11.445932  0.155765  0.691143
  S    11.660039  3.882294  0.658305
  S    10.863957  0.958566  4.660482
  S    10.521193  4.765328  4.441498
