16  
    
  C     3.220779 -2.827341  1.607168
  C     3.639105  0.611609  1.434993
  C     2.095138 -3.198699  0.782085
  C     2.360045  0.349756  0.810261
  N     4.299754 -2.460282  0.920690
  N     4.572514  0.943764  0.553553
  N     2.380167 -3.203108 -0.547755
  N     2.344406  0.376747 -0.522395
  N     1.393250 -3.538898  3.260462
  N     1.920093  0.126634  3.277996
  S     0.707934 -3.697884  1.787336
  S     1.044280 -0.026075  1.898680
  S     3.962380 -2.787728 -0.660927
  S     3.933555  0.827050 -0.933779
  S     2.936965 -3.047535  3.289314
  S     3.523534  0.676258  3.188544
