16  
    
  C     5.509163 -2.291726  1.663138
  C     5.206772  1.609415  1.550744
  C     4.314067 -2.627431  0.858027
  C     4.146071  1.008805  0.768111
  N     6.597027 -2.084569  0.966816
  N     6.345694  1.605780  0.859617
  N     4.523017 -2.755473 -0.439854
  N     4.423478  0.787427 -0.509836
  N     3.510278 -2.475179  3.347408
  N     3.116745  1.633272  3.090184
  S     2.894193 -2.922840  1.835043
  S     2.750800  0.715533  1.726937
  S     6.125812 -2.412658 -0.648856
  S     6.040964  1.200966 -0.707090
  S     5.139122 -2.105417  3.364702
  S     4.754600  2.156810  3.145975
