16  
    
  C    12.531654  1.623250  3.323278
  C    12.892673  5.441454  3.664645
  C    11.322831  0.981129  2.779218
  C    11.783004  4.958498  2.825019
  N    13.491171  1.940175  2.450502
  N    13.947961  5.755548  2.975101
  N    11.442345  0.776557  1.510154
  N    12.085841  4.827710  1.518433
  N    10.891454  1.097677  5.313987
  N    10.829893  5.038171  5.282147
  S    10.125458  0.513627  3.947875
  S    10.304573  4.591891  3.687266
  S    12.978926  1.331653  1.011190
  S    13.599006  5.456444  1.375903
  S    12.391515  1.731376  5.049731
  S    12.431402  5.603447  5.333603
