16  
    
  C     7.917899 -0.829907  2.270292
  C     8.298814  2.830903  2.384742
  C     6.748564 -1.360535  1.523982
  C     6.999352  2.522209  1.835429
  N     8.882944 -0.409356  1.477270
  N     9.238662  2.921013  1.475013
  N     6.984892 -1.509717  0.241674
  N     7.007561  2.510575  0.497340
  N     6.045300 -1.131608  4.054475
  N     6.756207  3.071488  4.433077
  S     5.443038 -1.817553  2.609404
  S     5.814629  2.629000  3.106725
  S     8.471724 -0.822747 -0.071796
  S     8.541383  2.705610 -0.010002
  S     7.627122 -0.549664  4.005584
  S     8.391676  3.043429  4.113093
