16  
    
  C    12.594429  1.598251  3.365829
  C    12.727952  5.285281  3.265891
  C    11.368001  1.177623  2.702343
  C    11.492042  4.686654  2.678845
  N    13.621542  1.886170  2.570292
  N    13.649360  5.643605  2.431606
  N    11.448415  1.193196  1.390034
  N    11.521619  4.683675  1.323772
  N    10.993674  0.994932  5.272099
  N    11.170911  5.052714  5.232286
  S    10.113839  0.885877  3.857737
  S    10.308102  4.468858  3.995804
  S    13.018146  1.782301  1.038832
  S    13.005600  5.272685  0.909500
  S    12.502916  1.668194  5.161200
  S    12.690512  5.538284  4.942964
