16  
    
  C     8.788260 -0.765156  2.358860
  C     8.490276  3.194442  2.586789
  C     7.568605 -1.147191  1.661683
  C     7.328241  2.636245  1.940481
  N     9.894079 -0.715651  1.666449
  N     9.452268  3.537328  1.792514
  N     7.774332 -1.344868  0.392242
  N     7.468271  2.482077  0.648507
  N     6.860149 -0.739817  4.101904
  N     6.850456  2.820101  4.445869
  S     6.090974 -1.109168  2.660552
  S     6.087960  2.324062  3.067096
  S     9.386940 -1.085855  0.101437
  S     8.978700  3.056911  0.219785
  S     8.502458 -0.517050  4.089395
  S     8.381208  3.354049  4.282823
