16  
    
  C    11.939746  1.134055  3.399358
  C    11.843730  4.959126  3.445513
  C    10.716298  0.738776  2.689291
  C    10.658343  4.462434  2.731349
  N    13.010067  1.267994  2.583770
  N    12.983406  5.002294  2.688323
  N    10.905900  0.473299  1.392334
  N    10.859076  4.214164  1.437420
  N    10.004042  1.152278  5.138326
  N     9.958795  4.847268  5.215026
  S     9.368721  0.471186  3.761332
  S     9.315423  4.425374  3.746017
  S    12.506658  0.748394  1.106001
  S    12.464390  4.568889  1.125437
  S    11.590118  1.604033  4.965654
  S    11.613524  5.156677  5.214001
