16  
    
  C    12.711050  1.497461  3.562941
  C    12.901075  5.548960  3.731163
  C    11.583368  0.820008  2.977223
  C    11.747964  4.945597  3.021215
  N    13.692675  1.668095  2.715471
  N    13.918971  5.768025  2.908224
  N    11.655960  0.643296  1.650415
  N    11.943323  4.757469  1.766081
  N    10.803739  1.418179  5.346946
  N    11.072091  5.103117  5.438544
  S    10.137973  0.758016  3.995392
  S    10.401183  4.655961  4.002057
  S    13.169216  1.189913  1.199371
  S    13.461890  5.286640  1.422103
  S    12.329948  1.994320  5.190564
  S    12.545894  5.762630  5.489418
