16  
    
  C    10.044160 -0.149367  2.804619
  C    10.052848  3.876923  2.739806
  C     8.797392 -0.549172  2.151405
  C     8.935692  3.069064  2.233554
  N    11.026865  0.000725  1.932660
  N    10.897900  4.112908  1.760895
  N     8.854431 -0.578678  0.841892
  N     9.005323  2.689180  0.957722
  N     8.246465 -0.290557  4.656088
  N     8.512215  3.530649  4.690011
  S     7.505954 -0.767113  3.226374
  S     7.791299  2.715524  3.455803
  S    10.400567 -0.294955  0.442539
  S    10.352668  3.346964  0.343808
  S     9.846750 -0.154487  4.567010
  S    10.040230  4.169303  4.489391
