16  
    
  C     8.971523 -0.340332  2.592181
  C     8.587715  3.426246  2.567625
  C     7.724918 -0.637050  1.873484
  C     7.394180  2.872048  1.961171
  N     9.938751 -0.045913  1.735515
  N     9.480129  3.776366  1.671372
  N     7.804982 -0.758187  0.563186
  N     7.396684  2.858692  0.641788
  N     7.182869 -0.639506  4.425435
  N     7.031141  2.699217  4.467990
  S     6.390520 -0.930215  2.980019
  S     6.204685  2.346338  3.093500
  S     9.348420 -0.337384  0.188609
  S     8.867778  3.392116  0.141764
  S     8.796833 -0.190107  4.345038
  S     8.558209  3.275634  4.283140
