16  
    
  C    11.281662  0.941098  3.348831
  C    11.593195  4.626818  2.781577
  C     9.977316  0.632202  2.756028
  C    10.351579  4.179412  2.215089
  N    12.215589  1.165738  2.451431
  N    12.594512  4.836437  1.925311
  N    10.005132  0.377985  1.442467
  N    10.399703  4.180194  0.882676
  N     9.593241  1.071427  5.277183
  N     9.920229  4.534368  4.677654
  S     8.673136  0.455107  3.929401
  S     9.106850  3.961513  3.358051
  S    11.586318  0.727060  1.012788
  S    11.980732  4.531979  0.475236
  S    11.255679  1.094338  5.046184
  S    11.546828  4.815300  4.528781
