16  
    
  C    11.765803  1.183183  3.307434
  C    11.981491  5.011999  3.291367
  C    10.526124  0.560855  2.746414
  C    10.758698  4.475892  2.702821
  N    12.825396  1.294446  2.483661
  N    12.960345  5.041777  2.428533
  N    10.709138  0.343615  1.453189
  N    10.875034  4.066544  1.390199
  N     9.839932  1.116424  5.161414
  N    10.216730  5.087277  5.155385
  S     9.139924  0.563346  3.752315
  S     9.461587  4.373139  3.869455
  S    12.258847  0.627053  1.065148
  S    12.378643  4.494888  0.919454
  S    11.509126  1.351462  4.990125
  S    11.800847  5.517092  4.934777
