16  
    
  C     7.288857 -1.102278  2.117791
  C     7.768751  2.796557  2.206320
  C     6.130764 -1.557012  1.403827
  C     6.513785  2.342602  1.646657
  N     8.302650 -0.828789  1.332963
  N     8.770463  2.959612  1.348901
  N     6.276854 -1.767005  0.110903
  N     6.579830  2.127572  0.346330
  N     5.460736 -1.793618  3.968436
  N     5.987248  2.707350  4.140801
  S     4.759797 -1.970870  2.505635
  S     5.250861  1.999494  2.763472
  S     7.852509 -1.296373 -0.215091
  S     8.135191  2.461619 -0.122796
  S     7.029274 -1.221926  3.839674
  S     7.623956  3.181345  3.870989
