16  
    
  C     8.462758 -0.923774  2.470379
  C     8.236265  2.590858  2.233230
  C     7.215542 -1.571451  2.099729
  C     7.030631  2.182525  1.532779
  N     9.393372 -0.949801  1.482335
  N     9.299999  2.727595  1.460539
  N     7.162887 -1.936245  0.806249
  N     7.274679  1.947243  0.254569
  N     6.805637 -0.671720  4.493447
  N     6.252122  2.606851  3.859612
  S     5.869494 -1.350615  3.263265
  S     5.571104  2.089012  2.478502
  S     8.625994 -1.577362  0.125576
  S     8.799616  2.309817 -0.081896
  S     8.403512 -0.428873  4.162858
  S     7.866453  2.880395  3.888082
