16  
    
  C     7.089805 -1.196514  2.318297
  C     7.778044  2.825811  2.347262
  C     6.110877 -1.864134  1.528044
  C     6.621860  2.360938  1.622648
  N     8.204451 -0.905682  1.641580
  N     8.805441  3.100039  1.528763
  N     6.341497 -1.826539  0.216451
  N     6.797130  2.166939  0.295876
  N     5.266899 -1.978269  3.911974
  N     5.952431  2.496995  4.173025
  S     4.837747 -2.528716  2.442292
  S     5.287672  2.054838  2.715067
  S     7.886411 -1.251834  0.061564
  S     8.363797  2.683984  0.005679
  S     6.813080 -1.296035  4.032991
  S     7.587257  2.947474  4.102530
