16  
    
  C    10.330811  0.700526  3.004980
  C    10.751832  4.459046  2.871618
  C     9.233149 -0.055783  2.423057
  C     9.470369  4.105222  2.297797
  N    11.283864  1.062334  2.114965
  N    11.687479  4.680375  1.923364
  N     9.273334 -0.213823  1.081309
  N     9.431098  4.023809  0.982920
  N     8.727705  0.068543  4.969344
  N     9.047164  4.052487  4.841011
  S     7.957984 -0.400717  3.566796
  S     8.151435  3.921394  3.436622
  S    10.742091  0.458636  0.662771
  S    10.941241  4.450921  0.490024
  S    10.254627  0.673714  4.727746
  S    10.634076  4.499896  4.617424
