16  
    
  C     9.052620 -0.475485  2.396054
  C     9.649922  3.347210  2.732093
  C     7.921458 -1.018860  1.690064
  C     8.318752  3.046605  2.194654
  N    10.168675 -0.391022  1.714993
  N    10.649566  3.360240  1.837310
  N     8.163862 -1.229363  0.444300
  N     8.333024  2.674233  0.930464
  N     6.957041 -0.221296  3.945284
  N     7.765409  3.512626  4.656463
  S     6.413629 -1.079029  2.631648
  S     6.919578  3.312868  3.233442
  S     9.749442 -0.833507  0.142960
  S     9.887806  2.966035  0.394409
  S     8.617666 -0.068179  4.046089
  S     9.419830  3.734751  4.412852
