16  
    
  C     3.313618 -3.303423  1.278955
  C     3.609880  0.591111  1.388280
  C     2.073014 -3.360869  0.532193
  C     2.362668  0.317722  0.678802
  N     4.401891 -2.993267  0.547302
  N     4.607695  0.787909  0.528763
  N     2.285141 -3.184311 -0.774669
  N     2.462937  0.166288 -0.637212
  N     1.456911 -3.445630  3.015749
  N     1.769332  0.409304  3.123863
  S     0.673776 -3.507461  1.557100
  S     0.998979  0.055743  1.712039
  S     3.876752 -2.997832 -1.000737
  S     4.119948  0.421237 -0.960935
  S     3.122081 -3.335634  2.988640
  S     3.409353  0.660122  3.111215
