16  
    
  C    12.870015  1.680236  3.707222
  C    12.936392  5.470116  3.700532
  C    11.628452  1.312816  3.068303
  C    11.649319  5.000760  3.215382
  N    13.909250  1.752048  2.845690
  N    13.882258  5.528103  2.813735
  N    11.683168  1.184499  1.745014
  N    11.652455  4.639832  1.950060
  N    11.213915  1.560324  5.624591
  N    11.322535  5.552908  5.644724
  S    10.362244  1.262497  4.251843
  S    10.380009  5.028908  4.456335
  S    13.250665  1.495127  1.331128
  S    13.188122  4.919054  1.391737
  S    12.815596  1.923669  5.468859
  S    12.857037  6.038303  5.346095
