16  
    
  C    11.710048  1.086606  2.834633
  C    11.761805  4.837558  3.144715
  C    10.563414  0.408835  2.324743
  C    10.576067  4.347845  2.486270
  N    12.586547  1.454608  1.903412
  N    12.766716  5.181241  2.377387
  N    10.515671  0.300533  1.005493
  N    10.694818  4.209961  1.169388
  N    10.118354  0.883722  4.858004
  N     9.919724  4.667727  4.947983
  S     9.272522  0.221491  3.601447
  S     9.280828  4.063346  3.515033
  S    11.875841  1.097240  0.426737
  S    12.219986  4.801686  0.822093
  S    11.656449  1.327460  4.557213
  S    11.511761  5.288718  4.859965
