16  
    
  C    10.512611  0.748108  3.024384
  C    10.578404  4.617711  2.791803
  C     9.335004  0.103811  2.477907
  C     9.455754  3.945690  2.219189
  N    11.548789  0.812185  2.165868
  N    11.594893  4.702398  1.939052
  N     9.330496 -0.116641  1.138214
  N     9.558521  3.459941  0.994066
  N     8.790874  0.576401  4.952950
  N     8.830143  4.459634  4.716408
  S     8.040469 -0.129236  3.614201
  S     8.172130  3.690177  3.378504
  S    10.911179  0.316910  0.688491
  S    11.094099  3.868927  0.523084
  S    10.364326  1.138222  4.710871
  S    10.417770  4.955327  4.552023
