16  
    
  C     7.648794 -1.182424  1.878567
  C     7.688100  2.946110  2.167125
  C     6.354902 -1.506134  1.266312
  C     6.516398  2.361792  1.556147
  N     8.562725 -0.945010  0.969987
  N     8.731966  3.009881  1.361178
  N     6.383830 -1.726043 -0.026194
  N     6.706749  2.052727  0.304102
  N     5.989714 -1.120013  3.767933
  N     5.948211  2.639951  4.122734
  S     5.062198 -1.670043  2.391884
  S     5.212926  2.193787  2.661080
  S     7.869504 -1.259523 -0.507270
  S     8.216374  2.479546 -0.133681
  S     7.614314 -0.836046  3.533105
  S     7.470335  3.269876  3.901876
