16  
    
  C     3.283262 -3.178190  1.223697
  C     3.609708  0.609793  1.343147
  C     2.063226 -3.346597  0.490648
  C     2.406751  0.267878  0.675390
  N     4.374314 -3.015001  0.492365
  N     4.686907  0.797449  0.576469
  N     2.243047 -3.379354 -0.842430
  N     2.582863  0.076900 -0.625121
  N     1.567053 -3.434452  2.968510
  N     1.784592  0.440547  3.172730
  S     0.665034 -3.511098  1.542930
  S     1.048008  0.094818  1.717572
  S     3.888781 -3.054485 -1.047331
  S     4.134997  0.414480 -0.984941
  S     3.192469 -3.314953  2.893815
  S     3.377750  0.671975  3.071151
