16  
    
  C    10.950192  0.568955  2.994290
  C    10.873500  4.320053  2.864324
  C     9.704567  0.154138  2.342487
  C     9.824910  3.599774  2.181182
  N    11.999440  0.518083  2.208676
  N    11.883204  4.655435  2.037815
  N     9.817754 -0.110643  1.056083
  N    10.147526  3.188523  0.957132
  N     9.291073  0.454068  4.910835
  N     9.003641  4.127063  4.598641
  S     8.452565 -0.025209  3.555535
  S     8.314253  3.503058  3.191578
  S    11.451110  0.159993  0.692422
  S    11.660183  3.889062  0.661516
  S    10.871663  0.941188  4.664865
  S    10.533612  4.749916  4.446715
