16  
    
  C     5.862774 -2.130576  1.873521
  C     6.103294  1.721175  1.901598
  C     4.659403 -2.486298  1.179718
  C     4.777851  1.711841  1.415058
  N     6.940885 -2.123359  1.062379
  N     7.045299  1.443410  0.991519
  N     4.663783 -2.512204 -0.176214
  N     4.727818  1.333141  0.146341
  N     4.062832 -2.359633  3.648712
  N     4.551595  2.025999  3.923226
  S     3.302324 -2.701027  2.244454
  S     3.535563  2.087399  2.620435
  S     6.340260 -2.400680 -0.498760
  S     6.220707  1.085190 -0.359384
  S     5.677854 -2.026951  3.566863
  S     6.189463  2.061207  3.630924
