16  
    
  C    12.552586  1.553225  3.350948
  C    12.751638  5.561309  3.451245
  C    11.317448  1.025049  2.691745
  C    11.652358  5.013828  2.699635
  N    13.508043  1.967936  2.528321
  N    13.869682  5.715152  2.838145
  N    11.396667  1.083557  1.393239
  N    11.906392  4.864295  1.403415
  N    10.803167  1.129200  5.238502
  N    11.030470  4.901536  5.185106
  S    10.037304  0.618496  3.841948
  S    10.236899  4.549041  3.765060
  S    12.905828  1.689004  0.989769
  S    13.514296  5.296608  1.210857
  S    12.409569  1.585045  5.068992
  S    12.514821  5.556215  5.150189
