16  
    
  C     7.734890 -0.906951  1.753834
  C     7.759807  2.947756  2.316682
  C     6.459204 -1.338981  1.184054
  C     6.630575  2.355042  1.569886
  N     8.687870 -0.759496  0.833942
  N     8.833963  3.120386  1.590294
  N     6.612254 -1.778719 -0.084032
  N     6.787935  2.229117  0.272908
  N     6.105542 -1.111706  3.793787
  N     5.910190  2.702551  4.066610
  S     5.217691 -1.442444  2.415370
  S     5.269765  2.112951  2.607582
  S     8.179470 -1.439497 -0.598948
  S     8.475198  2.628834  0.084363
  S     7.730867 -0.684003  3.506149
  S     7.483251  3.252829  4.001080
