16  
    
  C     4.727400 -1.992260  1.775905
  C     4.291256  1.291611  1.345976
  C     3.496847 -2.401738  1.190100
  C     3.105448  0.834428  0.665225
  N     5.769634 -1.857814  0.930119
  N     5.362949  1.508099  0.556783
  N     3.565821 -2.626339 -0.130671
  N     3.219655  0.822374 -0.676448
  N     3.005472 -1.875098  3.620769
  N     2.502195  0.903539  3.186112
  S     2.168039 -2.281414  2.245712
  S     1.701758  0.741047  1.726473
  S     5.147508 -2.277962 -0.598809
  S     4.768837  1.225814 -1.011190
  S     4.689364 -1.818994  3.496916
  S     4.084497  1.312978  3.130786
