16  
    
  C    12.646334  1.564481  3.624743
  C    12.855559  5.487658  3.722114
  C    11.490118  1.063473  2.910500
  C    11.712499  4.827362  3.115902
  N    13.714472  1.679931  2.846625
  N    13.881141  5.788345  2.929568
  N    11.735514  0.673230  1.638981
  N    11.949951  4.626892  1.839859
  N    10.823602  1.537069  5.397533
  N    11.071079  5.175868  5.643227
  S    10.128493  0.924928  3.971258
  S    10.340609  4.732212  4.192548
  S    13.273599  1.134919  1.339164
  S    13.447812  5.242802  1.418130
  S    12.440568  2.011107  5.266010
  S    12.679353  5.820147  5.388633
