16  
    
  C     5.865265 -2.367059  2.036366
  C     5.792114  1.339264  1.794263
  C     4.605318 -2.581386  1.355019
  C     4.629128  0.833790  1.112052
  N     6.843082 -2.060706  1.234448
  N     6.823282  1.619661  0.974560
  N     4.650610 -2.624231  0.033993
  N     4.817687  0.703792 -0.195492
  N     4.093084 -2.476799  3.970932
  N     3.979287  0.945809  3.641475
  S     3.265458 -2.636722  2.488622
  S     3.258873  0.494259  2.222818
  S     6.279356 -2.361774 -0.311924
  S     6.380228  1.112317 -0.520847
  S     5.709439 -2.063893  3.712896
  S     5.580373  1.383073  3.509354
