16  
    
  C    10.753320  0.712911  2.917819
  C    10.703140  4.492763  2.839743
  C     9.558542  0.176138  2.322288
  C     9.702306  3.652288  2.239043
  N    11.802466  0.687625  2.135053
  N    11.800172  4.601444  2.087023
  N     9.631973 -0.237650  1.073605
  N     9.887822  3.281060  0.985728
  N     9.005921  0.751172  4.822381
  N     8.729937  4.436462  4.435281
  S     8.236116  0.264246  3.429304
  S     8.368061  3.281242  3.318419
  S    11.239313  0.139575  0.659965
  S    11.456561  3.723896  0.635579
  S    10.583631  1.225970  4.608937
  S    10.283801  5.054213  4.388513
