16  
    
  C    10.958074  0.732805  2.849453
  C    11.106617  4.136739  3.293319
  C     9.859435 -0.112050  2.372791
  C     9.814507  3.988923  2.643825
  N    11.881128  0.909360  1.964557
  N    12.165352  4.250278  2.495187
  N     9.983352 -0.425314  1.091472
  N     9.935123  3.887645  1.343920
  N     9.454989  0.632943  4.850227
  N     9.358256  4.376415  5.106558
  S     8.637625 -0.204038  3.605819
  S     8.514778  3.831988  3.763306
  S    11.464589  0.134263  0.595520
  S    11.506716  4.204051  0.945870
  S    11.045440  1.068075  4.524017
  S    11.013602  4.414268  4.984837
