16  
    
  C    12.877212  1.644847  3.322606
  C    12.472165  5.082208  3.375022
  C    11.587140  1.079097  2.808586
  C    11.270420  4.699087  2.643572
  N    13.841650  1.663756  2.410643
  N    13.459057  5.389410  2.548723
  N    11.608149  0.855083  1.510003
  N    11.347975  4.628216  1.325125
  N    11.334633  1.339769  5.313642
  N    10.507697  4.928916  5.112422
  S    10.395558  1.084567  3.999263
  S     9.881851  4.434842  3.641169
  S    13.144130  1.309892  0.983337
  S    12.864428  5.048514  0.986436
  S    12.799989  1.999347  5.052127
  S    12.191251  5.177070  5.086288
