16  
    
  C    10.045621 -0.051598  2.936125
  C    10.274377  3.558448  3.135213
  C     8.871283 -0.414566  2.158256
  C     9.059055  3.844345  2.418505
  N    11.111183  0.154246  2.177476
  N    11.329377  3.547982  2.333620
  N     9.016004 -0.323061  0.851791
  N     9.109238  3.896439  1.086155
  N     8.137408 -0.491324  4.608105
  N     8.521475  3.575327  4.916316
  S     7.449048 -0.751766  3.100223
  S     7.730328  3.975691  3.510710
  S    10.627753 -0.032100  0.586573
  S    10.820008  3.755226  0.772692
  S     9.808714 -0.366268  4.719548
  S    10.155640  3.514597  4.910342
