16  
    
  C    12.085816  1.311415  3.391491
  C    11.716044  4.878998  3.684716
  C    10.892635  0.883272  2.746948
  C    10.551068  4.288204  3.030357
  N    13.071792  1.666087  2.561708
  N    12.742514  5.197481  2.954013
  N    10.977027  0.819751  1.417421
  N    10.777005  4.089689  1.721049
  N    10.347628  0.702133  5.247219
  N    10.024069  4.458683  5.575420
  S     9.594062  0.321290  3.845178
  S     9.331153  3.914132  4.137009
  S    12.511491  1.264437  1.033023
  S    12.267176  4.733600  1.417235
  S    11.841106  1.371636  5.123296
  S    11.625942  5.018745  5.455249
