16  
    
  C    10.135763  0.534053  2.913293
  C    10.669277  4.451346  2.868624
  C     8.983868 -0.035686  2.277675
  C     9.527227  4.017373  2.098267
  N    11.047562  0.967557  2.031809
  N    11.753072  4.696293  2.161035
  N     9.062980 -0.123691  0.953182
  N     9.692860  4.097129  0.775265
  N     8.477299  0.138818  4.766140
  N     8.916709  3.880836  4.623674
  S     7.814187 -0.561324  3.393008
  S     8.211563  3.690013  3.128295
  S    10.485660  0.631123  0.488773
  S    11.330119  4.436255  0.519325
  S    10.135291  0.395016  4.678269
  S    10.538843  4.271808  4.654361
