16  
    
  C     7.269872 -1.626636  2.268847
  C     7.501625  2.298187  2.206128
  C     6.087114 -2.150678  1.654591
  C     6.302113  1.754811  1.601235
  N     8.253333 -1.374738  1.384116
  N     8.549878  2.308103  1.372757
  N     6.223542 -2.478882  0.353823
  N     6.460389  1.520279  0.300743
  N     5.382710 -1.481190  4.025778
  N     5.741574  2.136024  4.027131
  S     4.691999 -2.177911  2.729118
  S     4.934396  1.595308  2.722375
  S     7.769543 -1.972266 -0.118852
  S     7.993869  1.699676 -0.067713
  S     7.049838 -1.265936  3.996610
  S     7.302959  2.661373  3.873696
