16  
    
  C    12.870202  1.584840  3.305169
  C    12.452570  5.202187  3.275066
  C    11.541635  1.107732  2.804402
  C    11.281801  4.711160  2.627752
  N    13.776034  1.793668  2.379995
  N    13.469168  5.363647  2.437435
  N    11.601581  1.035940  1.487964
  N    11.356567  4.639153  1.316842
  N    11.229934  1.413698  5.330145
  N    10.809926  4.840500  5.164550
  S    10.314365  0.917660  4.019744
  S     9.917430  4.454531  3.837888
  S    13.121823  1.401197  0.935701
  S    12.922160  5.163593  0.933713
  S    12.824306  1.891800  5.019374
  S    12.342201  5.365762  4.983386
