16  
    
  C     8.376538 -0.873070  2.452959
  C     8.144140  2.948328  2.383329
  C     7.114287 -1.438081  1.987458
  C     7.009119  2.372131  1.684924
  N     9.364466 -0.944368  1.587919
  N     9.154669  3.172097  1.531019
  N     7.116931 -1.773334  0.713879
  N     7.248873  2.073832  0.413536
  N     6.656429 -0.824283  4.428758
  N     6.320045  2.529391  4.122575
  S     5.864001 -1.443659  3.153612
  S     5.642729  2.077143  2.700503
  S     8.668424 -1.554736  0.210709
  S     8.763251  2.483158  0.044625
  S     8.246597 -0.371693  4.134731
  S     7.839669  3.265095  4.085809
