16  
    
  C     4.549715 -2.589192  1.488665
  C     5.251331  1.467391  1.767659
  C     3.263566 -2.761805  0.794028
  C     3.955762  1.163612  1.204552
  N     5.572014 -2.363444  0.686788
  N     6.194396  1.646794  0.841449
  N     3.373404 -2.759785 -0.536159
  N     3.938114  0.985365 -0.092341
  N     2.783558 -2.792551  3.365559
  N     3.604605  1.494775  3.780843
  S     1.997974 -3.255380  1.922197
  S     2.742106  1.229568  2.354134
  S     4.962167 -2.385803 -0.842939
  S     5.493079  1.429639 -0.644155
  S     4.432331 -2.632019  3.265198
  S     5.244892  1.738616  3.463002
