16  
    
  C    12.622922  1.571389  3.358401
  C    12.693196  5.307635  3.257326
  C    11.427447  1.204451  2.722709
  C    11.483700  4.692089  2.651563
  N    13.605489  1.893032  2.562451
  N    13.618701  5.639466  2.382453
  N    11.460415  1.174638  1.401547
  N    11.499410  4.674201  1.334296
  N    10.990148  1.029123  5.306410
  N    11.164300  5.026882  5.233121
  S    10.127333  0.893906  3.867425
  S    10.309771  4.467789  3.995115
  S    13.017298  1.776925  1.042479
  S    12.988432  5.255531  0.905131
  S    12.513930  1.663408  5.130700
  S    12.694346  5.534467  4.960300
