16  
    
  C     6.245080 -1.689524  1.607970
  C     6.420075  1.949350  1.859743
  C     5.045918 -2.268155  0.961422
  C     5.142539  1.728299  1.210335
  N     7.215070 -1.497821  0.736507
  N     7.483034  1.975010  1.048317
  N     5.217328 -2.730539 -0.256256
  N     5.319890  1.701309 -0.114212
  N     4.400640 -1.807522  3.416354
  N     4.539382  2.012574  3.661724
  S     3.672130 -2.438314  2.074379
  S     3.747756  1.595393  2.233435
  S     6.686243 -2.109093 -0.743766
  S     6.884488  1.869594 -0.484529
  S     5.995849 -1.314977  3.292590
  S     6.203085  2.077860  3.604931
