16  
    
  C    12.870669  1.654444  3.330982
  C    12.467561  5.090481  3.381859
  C    11.615675  1.089660  2.814846
  C    11.259160  4.689906  2.660537
  N    13.844113  1.660358  2.407717
  N    13.446506  5.381908  2.546067
  N    11.613503  0.851567  1.515618
  N    11.345689  4.627879  1.315079
  N    11.334190  1.344374  5.312717
  N    10.507463  4.930236  5.096930
  S    10.394812  1.095591  4.005874
  S     9.877793  4.431168  3.632064
  S    13.148388  1.301263  0.987836
  S    12.871202  5.041507  0.994077
  S    12.790851  1.993702  5.046300
  S    12.180747  5.166056  5.098318
