16  
    
  C    10.361375  0.716184  3.005833
  C    10.772223  4.426612  2.860483
  C     9.243907 -0.066056  2.437328
  C     9.463524  4.103804  2.309853
  N    11.302343  1.068504  2.110584
  N    11.710306  4.655266  1.921686
  N     9.263305 -0.216493  1.100789
  N     9.441166  3.999222  0.993203
  N     8.732358  0.072550  4.969094
  N     9.034853  4.080208  4.844790
  S     7.951681 -0.388810  3.569062
  S     8.151608  3.914458  3.432313
  S    10.745396  0.449193  0.660534
  S    10.920014  4.448113  0.479275
  S    10.252507  0.689047  4.728761
  S    10.622334  4.532854  4.619583
