16  
    
  C     6.148310 -1.561974  2.444740
  C     6.573367  2.174577  2.195644
  C     4.996740 -2.100123  1.771495
  C     5.401708  1.592131  1.636632
  N     7.142369 -1.274589  1.608809
  N     7.602781  2.419776  1.387669
  N     5.135522 -2.259180  0.478651
  N     5.465387  1.497134  0.317075
  N     4.411154 -2.156394  4.259050
  N     4.995273  1.624884  4.174313
  S     3.702921 -2.690189  2.851019
  S     4.114108  1.354859  2.790589
  S     6.596734 -1.651348  0.086746
  S     6.966310  2.076235 -0.153083
  S     5.942861 -1.567626  4.197011
  S     6.547095  2.253441  3.925748
