16  
    
  C    12.554307  1.431912  3.327760
  C    12.834721  5.446923  3.609331
  C    11.374501  0.936141  2.745842
  C    11.795322  4.914803  2.757390
  N    13.456250  1.891498  2.468902
  N    13.916553  5.820225  2.883044
  N    11.402605  0.805327  1.403950
  N    12.026525  4.792699  1.454737
  N    10.867394  1.007277  5.279273
  N    10.874226  4.864046  5.255679
  S    10.090127  0.633681  3.820720
  S    10.307293  4.661507  3.649238
  S    12.847953  1.607016  0.972966
  S    13.555556  5.372441  1.268440
  S    12.402895  1.702776  5.090646
  S    12.420130  5.561779  5.282882
