16  
    
  C    12.864345  1.570681  3.318918
  C    12.463607  5.073756  3.320194
  C    11.569625  1.093728  2.785371
  C    11.265824  4.716748  2.657185
  N    13.821693  1.702274  2.436580
  N    13.507300  5.400550  2.535843
  N    11.596322  0.880654  1.478112
  N    11.350911  4.624660  1.357029
  N    11.315726  1.332599  5.330366
  N    10.551044  4.917815  5.154882
  S    10.372034  1.033957  3.985010
  S     9.895256  4.446328  3.684958
  S    13.125371  1.335632  0.954303
  S    12.869754  5.086481  0.954306
  S    12.842188  2.011710  5.061480
  S    12.225130  5.222250  5.040804
