16  
    
  C    10.262821  0.578667  3.012655
  C    10.600465  4.551740  2.891610
  C     9.108352 -0.006365  2.354649
  C     9.341631  4.247013  2.206584
  N    11.211029  0.987256  2.163038
  N    11.617731  4.857766  2.101694
  N     9.250527 -0.178435  1.031017
  N     9.473669  4.170515  0.886902
  N     8.707561  0.053795  4.906552
  N     9.114570  3.864237  4.814057
  S     7.937906 -0.538818  3.532826
  S     8.157375  3.930971  3.450433
  S    10.729434  0.569604  0.635843
  S    11.079433  4.479058  0.534145
  S    10.273549  0.597599  4.731424
  S    10.730932  4.280665  4.606345
