16  
    
  C    12.956307  1.900659  3.645970
  C    12.969841  5.574819  3.669381
  C    11.716012  1.509482  3.157073
  C    11.694972  5.025958  3.163729
  N    13.968665  1.971716  2.774197
  N    13.954922  5.562332  2.736298
  N    11.688374  1.258425  1.838468
  N    11.685538  4.633745  1.853811
  N    11.307844  1.503451  5.657584
  N    11.238455  5.559134  5.641170
  S    10.386632  1.282423  4.263060
  S    10.425597  5.072026  4.286626
  S    13.263371  1.466780  1.336962
  S    13.206481  4.976770  1.309769
  S    12.903360  1.846332  5.420414
  S    12.890439  5.870168  5.399759
