16  
    
  C     9.940086 -0.263132  2.972097
  C    10.160729  3.553926  3.012792
  C     8.755428 -0.602157  2.173358
  C     8.867517  3.712811  2.325570
  N    10.970762  0.138090  2.273797
  N    11.164365  3.491451  2.151539
  N     9.020737 -0.590277  0.875783
  N     8.977531  3.883300  1.002023
  N     8.041210 -0.625609  4.672851
  N     8.548157  3.525421  4.935502
  S     7.401166 -0.974919  3.194998
  S     7.638085  3.784563  3.603362
  S    10.599418 -0.071971  0.694145
  S    10.569099  3.714135  0.625749
  S     9.677313 -0.169773  4.703672
  S    10.216756  3.228280  4.696891
