16  
    
  C     4.768219 -1.985799  1.845721
  C     4.151135  1.106901  1.282569
  C     3.578737 -2.496370  1.233670
  C     2.916629  0.814860  0.589649
  N     5.808731 -1.868366  1.030481
  N     5.254849  1.262038  0.562893
  N     3.710211 -2.725094 -0.049710
  N     3.127685  0.808410 -0.715650
  N     2.882865 -2.078011  3.680088
  N     2.378715  1.204254  3.079001
  S     2.188179 -2.535345  2.247570
  S     1.571861  0.635109  1.666660
  S     5.261323 -2.328585 -0.494594
  S     4.696298  1.119011 -0.991093
  S     4.514580 -1.781300  3.592900
  S     4.029587  1.249595  3.009884
