16  
    
  C     4.368533 -2.509521  1.729997
  C     4.077471  1.203920  1.529094
  C     3.232225 -3.253193  1.181662
  C     2.891797  0.535411  0.974442
  N     5.258186 -2.113889  0.818135
  N     5.051078  1.423313  0.633146
  N     3.281276 -3.411208 -0.124401
  N     3.011272  0.361696 -0.338217
  N     2.572305 -2.762646  3.605692
  N     2.292561  1.103951  3.412605
  S     1.890389 -3.430169  2.240287
  S     1.527685  0.540633  2.081325
  S     4.750220 -2.773184 -0.618446
  S     4.525713  0.812471 -0.856433
  S     4.105403 -2.192977  3.444598
  S     3.899077  1.611803  3.214653
