16  
    
  C    11.764255  1.162309  3.333851
  C    11.897701  4.984444  3.278488
  C    10.605254  0.593131  2.762549
  C    10.710407  4.520921  2.658454
  N    12.843919  1.277379  2.525942
  N    12.925118  5.033781  2.422151
  N    10.728931  0.303205  1.475845
  N    10.877035  4.107397  1.416719
  N     9.888911  1.050747  5.155419
  N    10.197868  5.025905  5.192278
  S     9.173417  0.580794  3.748445
  S     9.454178  4.394569  3.850596
  S    12.279186  0.622284  1.079802
  S    12.427076  4.491432  0.954818
  S    11.496569  1.410699  4.999425
  S    11.797510  5.497554  4.974804
