16  
    
  C     7.992518 -0.708100  2.426083
  C     8.247517  2.964631  2.313521
  C     6.877269 -1.307278  1.730156
  C     6.986196  2.511711  1.723347
  N     9.048980 -0.423373  1.637069
  N     9.222744  3.090864  1.430579
  N     7.136099 -1.530741  0.414734
  N     7.072571  2.268258  0.427455
  N     6.198954 -1.159482  4.264785
  N     6.668976  2.822407  4.357076
  S     5.530073 -1.584095  2.808956
  S     5.751709  2.468021  2.959687
  S     8.686050 -0.967824  0.112898
  S     8.652144  2.575932 -0.002900
  S     7.703461 -0.492849  4.137694
  S     8.246456  3.319651  4.017614
