16  
    
  C     4.599734 -2.355249  1.581730
  C     5.122857  1.589301  1.852495
  C     3.563893 -3.035621  0.874102
  C     3.803672  1.409597  1.303085
  N     5.632190 -1.992754  0.780162
  N     6.138166  1.499946  1.001844
  N     3.699955 -3.080052 -0.466740
  N     3.823239  1.202272 -0.015606
  N     2.881206 -3.065227  3.359996
  N     3.658502  1.522287  3.850942
  S     2.253471 -3.480636  1.873981
  S     2.640718  1.415805  2.604305
  S     5.140493 -2.302654 -0.824033
  S     5.399009  1.278774 -0.429457
  S     4.391715 -2.305795  3.309185
  S     5.272597  1.752438  3.579880
