16  
    
  C    10.244012  0.405091  2.600684
  C    10.577919  4.308082  2.883230
  C     9.050588 -0.174975  1.966118
  C     9.329752  3.770942  2.316593
  N    11.298604  0.609066  1.781965
  N    11.585189  4.272759  2.021592
  N     9.318282 -0.574236  0.700881
  N     9.397137  3.497879  0.990627
  N     8.334900  0.564072  4.372843
  N     8.937511  4.158746  4.889461
  S     7.613454 -0.197342  3.047479
  S     8.050508  3.841713  3.537960
  S    10.830431  0.024967  0.303431
  S    10.967345  3.755348  0.573243
  S     9.958366  0.913630  4.243930
  S    10.528963  4.632854  4.586312
