16  
    
  C    12.914715  1.503862  3.720498
  C    12.827135  5.532373  3.726900
  C    11.575589  1.233933  3.096127
  C    11.628170  5.027785  3.210090
  N    13.915829  1.669116  2.899389
  N    13.823986  5.498447  2.841066
  N    11.749379  1.107113  1.785862
  N    11.668351  4.624032  1.951033
  N    11.048503  1.638611  5.564174
  N    11.297135  5.532353  5.802352
  S    10.228569  1.263790  4.162259
  S    10.404443  4.898774  4.491864
  S    13.276742  1.424155  1.370350
  S    13.222579  4.920741  1.424712
  S    12.695884  1.978403  5.371254
  S    12.819418  6.089822  5.346381
