16  
    
  C    10.502337  0.770766  3.014001
  C    10.587443  4.576870  2.793286
  C     9.346591  0.121525  2.471245
  C     9.448161  3.921421  2.239150
  N    11.537471  0.798249  2.165435
  N    11.595536  4.735394  1.946196
  N     9.355872 -0.126318  1.144440
  N     9.584490  3.421244  1.017340
  N     8.805818  0.577351  4.947044
  N     8.822742  4.430346  4.708401
  S     8.061703 -0.093964  3.595147
  S     8.184855  3.693183  3.346610
  S    10.917813  0.304688  0.687264
  S    11.098926  3.846454  0.531162
  S    10.370253  1.156670  4.719254
  S    10.408538  4.977823  4.550251
