16  
    
  C     5.270856 -2.246315  1.511540
  C     4.945750  1.638024  1.883314
  C     4.080080 -2.818233  0.916998
  C     3.832616  0.903400  1.299162
  N     6.301141 -2.144231  0.715301
  N     6.086123  1.690563  1.217749
  N     4.287938 -3.233695 -0.296078
  N     4.161651  0.433303  0.087430
  N     3.403234 -2.241313  3.345609
  N     3.013747  1.606250  3.668174
  S     2.812212 -3.133903  2.079932
  S     2.420121  0.802659  2.289506
  S     5.819109 -2.765732 -0.717431
  S     5.747953  0.916512 -0.230653
  S     5.009077 -1.788342  3.172690
  S     4.582937  2.275841  3.447153
