16  
    
  C    10.285804  0.034788  2.797612
  C    10.217028  4.024830  3.125468
  C     9.002826 -0.306524  2.154803
  C     8.941683  3.618942  2.498058
  N    11.329392  0.088303  2.002156
  N    11.205205  4.044122  2.251885
  N     9.182237 -0.620559  0.890812
  N     8.973898  3.443845  1.165672
  N     8.554476  0.046703  4.650430
  N     8.617811  4.444047  5.018095
  S     7.737588 -0.623595  3.308511
  S     7.689917  3.950313  3.670664
  S    10.796753 -0.407756  0.479255
  S    10.649081  3.669519  0.779598
  S    10.226389  0.172642  4.519641
  S    10.279625  4.385471  4.792353
