16  
    
  C    12.702785  1.471028  3.706179
  C    12.314418  4.960931  3.429173
  C    11.445663  1.354357  3.042215
  C    11.200589  4.463820  2.702571
  N    13.776382  1.551428  2.917213
  N    13.390578  5.240175  2.735986
  N    11.532870  1.187980  1.727924
  N    11.436499  4.303436  1.375899
  N    10.860605  1.785770  5.540621
  N    10.425510  4.644969  5.172299
  S    10.159911  1.362213  4.080735
  S     9.746744  4.197260  3.728184
  S    13.165536  1.368277  1.416278
  S    12.959185  4.781894  1.145840
  S    12.562572  1.851664  5.415424
  S    12.026562  5.110252  5.153273
