16  
    
  C     3.253702 -2.805677  1.651481
  C     3.589684  0.890341  1.418088
  C     2.218142 -3.523897  0.896949
  C     2.359504  0.443390  0.821191
  N     4.087702 -2.125548  0.902478
  N     4.534000  1.333394  0.597063
  N     2.332043 -3.545461 -0.391682
  N     2.481211  0.388548 -0.487941
  N     1.429417 -3.406567  3.318094
  N     2.064571  0.258402  3.337017
  S     0.873152 -3.954851  1.872477
  S     1.132234 -0.012228  1.951204
  S     3.723806 -2.605728 -0.672638
  S     3.995086  0.906771 -0.947430
  S     2.922527 -2.735920  3.343444
  S     3.605301  0.791139  3.206883
