16  
    
  C    11.080776  0.566400  3.053311
  C    10.964596  4.382888  2.936894
  C     9.870930  0.018607  2.491281
  C     9.928937  3.665038  2.253487
  N    12.034239  0.720417  2.162898
  N    12.005276  4.578953  2.144323
  N     9.941234 -0.096948  1.182179
  N    10.147230  3.294239  0.997282
  N     9.271121  0.480152  4.954083
  N     9.074723  4.184697  4.635585
  S     8.527719 -0.145644  3.608475
  S     8.501155  3.460988  3.244003
  S    11.451795  0.236375  0.689020
  S    11.605019  3.924126  0.612359
  S    10.917869  0.723738  4.781937
  S    10.678582  4.582014  4.641184
