16  
    
  C     7.262580 -1.603757  2.267551
  C     7.512365  2.298839  2.182588
  C     6.101101 -2.197430  1.625235
  C     6.304200  1.768179  1.617032
  N     8.238782 -1.462381  1.411536
  N     8.562578  2.307682  1.331003
  N     6.229169 -2.446399  0.329765
  N     6.433862  1.472929  0.318699
  N     5.395939 -1.469642  4.047434
  N     5.751761  2.138960  4.060530
  S     4.685916 -2.193569  2.736865
  S     4.939255  1.611952  2.707178
  S     7.780872 -1.952221 -0.119195
  S     7.996935  1.729862 -0.067058
  S     7.036598 -1.313165  3.996698
  S     7.302897  2.664954  3.898080
