16  
    
  C    11.352983  0.422349  3.044187
  C    11.076188  4.475975  3.495326
  C    10.238288 -0.073700  2.290716
  C     9.819926  4.173762  2.882883
  N    12.491497  0.657729  2.311386
  N    12.075535  4.427943  2.622861
  N    10.549367 -0.387621  1.013730
  N     9.823310  3.969766  1.571065
  N     9.300456  0.395087  4.687876
  N     9.393952  4.548237  5.466605
  S     8.805099 -0.374042  3.282516
  S     8.518772  4.293998  4.080659
  S    12.122730  0.109993  0.796308
  S    11.423150  4.035365  1.119427
  S    10.883988  0.871038  4.676771
  S    11.036597  4.722910  5.235739
