16  
    
  C     5.484828 -2.318094  1.769830
  C     5.239066  1.700573  1.519107
  C     4.302643 -2.665982  1.016236
  C     4.152423  1.112892  0.780098
  N     6.602475 -2.068963  1.065311
  N     6.366417  1.910567  0.835344
  N     4.513504 -2.839656 -0.309939
  N     4.489916  0.933005 -0.481142
  N     3.571261 -2.663695  3.538631
  N     3.229078  1.196086  3.199754
  S     2.896294 -2.962329  2.013464
  S     2.724970  0.679270  1.714112
  S     6.066252 -2.292499 -0.537502
  S     6.066214  1.429107 -0.711603
  S     5.182288 -2.195104  3.450615
  S     4.830816  1.805869  3.187609
