16  
    
  C    12.097197  1.405242  3.334742
  C    12.285911  5.170623  3.772578
  C    10.956917  0.961738  2.684090
  C    11.026036  4.880505  3.172923
  N    13.177531  1.588709  2.558124
  N    13.234716  5.260703  2.825193
  N    11.136344  0.583906  1.423121
  N    10.929071  4.748054  1.837790
  N    10.324848  1.151081  5.163281
  N    10.574154  4.897848  5.659588
  S     9.587853  0.718962  3.750187
  S     9.719732  4.628491  4.264610
  S    12.689325  1.099791  1.016410
  S    12.558396  4.905663  1.340913
  S    11.855539  1.697977  5.004897
  S    12.135262  5.348973  5.484135
