16  
    
  C     5.581966 -2.054727  1.870460
  C     5.193248  1.610715  1.737770
  C     4.424124 -2.611755  1.259061
  C     4.122961  0.879299  1.095444
  N     6.542682 -1.844485  0.982025
  N     6.131657  2.005916  0.890144
  N     4.549238 -2.872321 -0.025921
  N     4.136606  0.798482 -0.235432
  N     3.858293 -2.409812  3.762960
  N     3.562217  0.880850  3.640132
  S     3.047384 -2.766107  2.317348
  S     2.886963  0.352254  2.195531
  S     6.018718 -2.268757 -0.506184
  S     5.574992  1.609560 -0.665233
  S     5.402405 -1.817631  3.579974
  S     5.133072  1.520092  3.503517
