16  
    
  C     9.957420 -0.243375  2.860139
  C    10.092256  3.748747  2.705539
  C     8.719277 -0.531974  2.196145
  C     8.858646  3.212973  2.244475
  N    11.031461 -0.000023  2.086930
  N    11.092704  3.905810  1.837052
  N     8.927077 -0.723003  0.874655
  N     8.817787  3.094288  0.928596
  N     8.214410 -0.599604  4.743424
  N     8.630600  3.481129  4.818176
  S     7.355156 -0.799912  3.276761
  S     7.626696  3.033468  3.566568
  S    10.489140 -0.283856  0.562204
  S    10.387433  3.471404  0.372425
  S     9.801281 -0.185283  4.582588
  S    10.158743  3.863448  4.367002
