16  
    
  C     4.609502 -2.032030  1.549214
  C     4.654051  1.624471  1.720482
  C     3.336151 -2.353832  0.963729
  C     3.459650  1.144667  1.017624
  N     5.589537 -2.032561  0.634381
  N     5.674281  1.758750  0.917378
  N     3.351939 -2.652577 -0.344923
  N     3.610180  1.027993 -0.310095
  N     2.977296 -2.331549  3.500718
  N     2.881518  1.472056  3.467970
  S     2.061243 -2.262550  2.122294
  S     2.058170  1.100297  2.100995
  S     4.901315 -2.346845 -0.808794
  S     5.177505  1.483556 -0.640598
  S     4.592361 -2.005202  3.285696
  S     4.530875  1.703337  3.451085
