16  
    
  C     4.266609 -2.535486  1.596896
  C     4.194449  1.136757  1.650418
  C     3.084517 -3.166492  1.075617
  C     2.881771  0.920721  1.089004
  N     5.243375 -2.279536  0.733148
  N     5.159070  1.268946  0.754637
  N     3.229372 -3.488416 -0.200627
  N     2.879939  0.663707 -0.212896
  N     2.645304 -2.842454  3.631813
  N     2.404364  1.341073  3.578443
  S     1.831915 -3.373949  2.296425
  S     1.509195  0.940718  2.187772
  S     4.766891 -3.035877 -0.698619
  S     4.467408  0.817178 -0.706506
  S     4.116429 -2.122465  3.290753
  S     4.029204  1.423022  3.441397
