16  
    
  C     5.719294 -2.080346  1.960793
  C     5.998972  1.760191  2.075972
  C     4.588434 -2.691950  1.355119
  C     4.779817  1.371448  1.444452
  N     6.720027 -1.826702  1.107230
  N     7.036476  1.853024  1.264324
  N     4.764219 -2.924146  0.063858
  N     4.805470  1.227627  0.110215
  N     3.901504 -2.420225  3.840297
  N     4.221351  1.815442  3.918987
  S     3.217181 -3.040946  2.389090
  S     3.392139  1.458595  2.521165
  S     6.227275 -2.360834 -0.365549
  S     6.443991  1.501471 -0.308377
  S     5.494576 -1.854518  3.694836
  S     5.887161  1.934090  3.801951
