16  
    
  C    11.714526  0.957666  3.132285
  C    11.933620  5.093302  3.088998
  C    10.419835  0.607973  2.452970
  C    10.719793  4.403862  2.638089
  N    12.670187  1.045553  2.223419
  N    12.912821  5.252265  2.186166
  N    10.445120  0.603896  1.135012
  N    10.916176  3.944765  1.442039
  N     9.994186  0.721607  5.001185
  N    10.255983  5.028525  5.127373
  S     9.112363  0.448734  3.621327
  S     9.496781  4.221857  3.862172
  S    12.001938  0.916927  0.702014
  S    12.344692  4.396180  0.821751
  S    11.540159  1.357262  4.822169
  S    11.792428  5.566697  4.746461
