16  
    
  C     9.966905 -0.091890  3.011091
  C    10.205071  3.463882  2.880802
  C     8.806524 -0.599202  2.268282
  C     8.852861  3.706412  2.382890
  N    11.044003  0.134915  2.250504
  N    11.233953  3.530082  2.018578
  N     8.962295 -0.654497  0.946856
  N     8.845609  3.819847  1.073879
  N     8.051873 -0.618325  4.676423
  N     8.539532  3.416230  4.941612
  S     7.440698 -1.000805  3.198642
  S     7.606916  3.659061  3.580011
  S    10.513848 -0.169397  0.673305
  S    10.495145  3.644835  0.545405
  S     9.624318 -0.213108  4.668934
  S    10.180423  3.359414  4.601402
