16  
    
  C     8.622535 -1.079572  2.374848
  C     8.348105  2.990096  2.112763
  C     7.491427 -1.644105  1.750443
  C     7.150130  2.420919  1.566734
  N     9.583898 -0.696376  1.517247
  N     9.343908  3.179876  1.239524
  N     7.559208 -1.792330  0.407734
  N     7.230878  2.197955  0.240315
  N     6.927910 -1.330304  4.194766
  N     6.626393  2.744814  4.064743
  S     6.213487 -1.914600  2.784241
  S     5.850091  2.160466  2.655080
  S     8.997973 -1.137438  0.038528
  S     8.724314  2.757309 -0.254353
  S     8.504112 -0.915206  4.093107
  S     8.207861  3.261410  3.857662
