16  
    
  C     8.946591 -0.343819  2.583471
  C     8.895251  3.346886  2.643238
  C     7.760517 -0.816786  1.893069
  C     7.639578  2.955744  2.024159
  N     9.918426 -0.119513  1.748639
  N     9.839440  3.688776  1.781521
  N     7.808325 -0.831335  0.594170
  N     7.617239  2.896603  0.691089
  N     7.255748 -0.620774  4.464334
  N     7.240221  3.048846  4.641848
  S     6.427931 -1.041443  3.032839
  S     6.410926  2.760453  3.228248
  S     9.387842 -0.367702  0.195495
  S     9.184603  3.428996  0.297474
  S     8.931963 -0.301202  4.297808
  S     8.840229  3.448835  4.394087
