16  
    
  C     6.233148 -1.712034  2.309405
  C     6.568467  2.043846  2.127541
  C     5.179982 -2.370062  1.618950
  C     5.355906  1.592002  1.501818
  N     7.118790 -1.178927  1.472666
  N     7.573489  2.262575  1.296227
  N     5.342361 -2.624346  0.315927
  N     5.440280  1.561349  0.179667
  N     4.364465 -2.115555  3.947853
  N     4.867848  1.948379  4.039848
  S     3.854145 -2.841103  2.588801
  S     4.050078  1.503373  2.655342
  S     6.791390 -1.812444 -0.060115
  S     6.978935  1.998938 -0.192035
  S     5.924450 -1.560978  3.983670
  S     6.463741  2.280737  3.863632
