16  
    
  C     4.559832 -2.597127  1.486673
  C     5.255190  1.460299  1.785288
  C     3.284259 -2.790867  0.789818
  C     3.960653  1.186756  1.215676
  N     5.553883 -2.350489  0.692161
  N     6.194306  1.657205  0.840379
  N     3.384029 -2.746918 -0.536983
  N     3.931600  0.995742 -0.088913
  N     2.787347 -2.806649  3.370161
  N     3.605643  1.521074  3.794787
  S     2.013497 -3.271743  1.916888
  S     2.746111  1.236682  2.361281
  S     4.966482 -2.378619 -0.829644
  S     5.489905  1.417142 -0.653920
  S     4.439405 -2.611839  3.261221
  S     5.245632  1.748174  3.492645
