16  
    
  C     9.946448 -0.160785  3.008323
  C    10.177328  3.482993  2.896472
  C     8.813018 -0.574977  2.257626
  C     8.869230  3.711882  2.373262
  N    11.038572  0.147021  2.249123
  N    11.217944  3.527710  2.073505
  N     8.980469 -0.644411  0.917947
  N     8.855594  3.857468  1.050836
  N     8.055714 -0.609197  4.684452
  N     8.536532  3.447258  4.972304
  S     7.440312 -1.000669  3.203356
  S     7.604106  3.694037  3.586994
  S    10.526792 -0.144318  0.691494
  S    10.527586  3.655934  0.563303
  S     9.620081 -0.206270  4.661686
  S    10.199591  3.316401  4.616306
