16  
    
  C    11.345331  0.663708  2.982807
  C    11.105875  4.372840  3.566790
  C    10.309308  0.014870  2.205548
  C     9.781651  4.086486  3.047296
  N    12.491392  0.831677  2.341566
  N    12.100127  4.432454  2.688159
  N    10.677289 -0.401371  1.010155
  N     9.827967  3.880441  1.719422
  N     9.308997  0.378747  4.564260
  N     9.365772  4.721812  5.445344
  S     8.843226 -0.305639  3.095123
  S     8.482991  4.185914  4.145061
  S    12.259093  0.126139  0.877146
  S    11.381214  4.132145  1.253136
  S    10.911991  0.749321  4.685125
  S    10.994856  4.950528  5.221561
