16  
    
  C    11.319806  0.941840  2.993407
  C    11.243229  4.674958  3.398717
  C    10.187120  0.294740  2.352257
  C    10.154533  3.950727  2.861059
  N    12.405835  1.009612  2.267428
  N    12.264641  4.878513  2.524647
  N    10.321277  0.095964  1.052092
  N    10.353000  3.521585  1.609957
  N     9.610026  0.803597  4.844781
  N     9.447689  4.545618  5.344971
  S     8.915696  0.088473  3.526990
  S     8.765894  3.814787  3.993323
  S    11.971874  0.527732  0.792475
  S    11.789656  4.242754  1.107507
  S    11.179703  1.268572  4.689580
  S    10.980578  5.130859  5.074977
