16  
    
  C    10.331961  0.571511  2.981323
  C    10.677464  4.572190  2.902130
  C     9.172581 -0.107995  2.376576
  C     9.423792  4.308871  2.249491
  N    11.295430  0.966436  2.120215
  N    11.711253  4.790559  2.073043
  N     9.201787 -0.031274  1.046754
  N     9.529397  4.223886  0.930919
  N     8.675150 -0.034939  4.892696
  N     9.089514  3.744547  4.780611
  S     7.912912 -0.594760  3.504478
  S     8.144550  3.898815  3.428220
  S    10.659627  0.615877  0.629354
  S    11.130076  4.570220  0.590637
  S    10.215681  0.564568  4.703296
  S    10.675448  4.206970  4.575032
