16  
    
  C     5.780113 -2.149366  2.065022
  C     5.871587  1.336618  1.909590
  C     4.573506 -2.642776  1.436102
  C     4.691078  0.904833  1.165265
  N     6.818941 -2.124451  1.253709
  N     6.930125  1.565602  1.140865
  N     4.711350 -2.795564  0.135896
  N     4.785574  0.853474 -0.148805
  N     4.030885 -2.286513  3.870366
  N     4.092424  0.859470  3.667979
  S     3.190645 -2.746590  2.547137
  S     3.392250  0.404577  2.195075
  S     6.265853 -2.371498 -0.250174
  S     6.383424  1.360228 -0.474117
  S     5.632454 -1.997748  3.791841
  S     5.606795  1.504465  3.590559
