16  
    
  C     4.070914 -2.864046  1.576685
  C     4.201521  1.258335  1.568694
  C     2.845957 -3.194933  0.918478
  C     2.885697  1.108670  1.005575
  N     5.175431 -2.890815  0.852207
  N     5.216415  1.295597  0.714346
  N     2.985089 -3.458218 -0.379433
  N     2.928586  0.930420 -0.299788
  N     2.198870 -2.624108  3.363502
  N     2.516232  1.316622  3.497647
  S     1.522566 -3.363665  2.030783
  S     1.585902  1.074070  2.097307
  S     4.660808 -3.266198 -0.690174
  S     4.459529  1.058514 -0.788739
  S     3.848407 -2.307459  3.211860
  S     4.127319  1.673599  3.253710
