16  
    
  C     7.302061 -1.777103  2.221392
  C     7.454588  2.379150  2.135690
  C     6.089589 -2.113620  1.525369
  C     6.199252  2.028886  1.567452
  N     8.314395 -1.414655  1.439021
  N     8.436196  2.503696  1.240263
  N     6.249965 -2.220585  0.210368
  N     6.274523  1.909280  0.227641
  N     5.573398 -2.040485  4.053981
  N     5.770128  2.240270  4.121019
  S     4.703940 -2.278172  2.592683
  S     4.935265  1.661895  2.765515
  S     7.822701 -1.752217 -0.109800
  S     7.790961  2.046473 -0.226764
  S     7.191963 -1.644911  3.929439
  S     7.373988  2.613940  3.839798
