16  
    
  C     4.557432 -2.128615  1.560656
  C     5.182480  1.375787  1.933950
  C     3.558278 -2.897669  0.874941
  C     3.852008  1.287093  1.405322
  N     5.601245 -1.763321  0.799884
  N     6.104496  1.406978  0.959283
  N     3.818411 -3.098227 -0.410226
  N     3.733710  1.182170  0.067196
  N     2.889971 -2.924967  3.360741
  N     3.435196  1.699959  3.926466
  S     2.257683 -3.503101  1.897222
  S     2.546640  1.451918  2.576292
  S     5.305412 -2.390621 -0.736962
  S     5.237059  1.315767 -0.477432
  S     4.402608 -2.187302  3.250334
  S     5.104690  1.545165  3.666559
