16  
    
  C     8.402471 -0.941073  2.404556
  C     8.231185  2.384517  2.064717
  C     7.212481 -1.274403  1.658301
  C     7.117569  1.927186  1.289262
  N     9.514325 -0.914022  1.712501
  N     9.329039  2.675619  1.401353
  N     7.381607 -1.318433  0.358985
  N     7.407860  1.750100  0.034771
  N     6.493680 -1.041683  4.145261
  N     6.260182  2.252020  3.654240
  S     5.781904 -1.020594  2.702032
  S     5.671939  1.718321  2.249897
  S     9.027529 -1.086253  0.121873
  S     8.948911  2.371203 -0.209731
  S     8.159163 -0.736247  4.137477
  S     7.895470  2.501901  3.728283
