16  
    
  C     9.007616 -0.393243  2.377623
  C     9.471230  3.272282  2.780437
  C     7.888928 -0.976709  1.693548
  C     8.195996  2.938678  2.125213
  N    10.115476 -0.325940  1.637507
  N    10.479930  3.299522  1.939775
  N     8.064934 -1.260250  0.406535
  N     8.305302  2.712854  0.803708
  N     7.019574 -0.231149  4.014977
  N     7.797997  3.314764  4.661880
  S     6.463884 -1.088378  2.681553
  S     6.958831  3.128225  3.242947
  S     9.686652 -0.869174  0.115561
  S     9.921119  2.896173  0.413392
  S     8.650195  0.075395  4.055592
  S     9.439543  3.742104  4.462407
