16  
    
  C     4.585964 -2.635763  1.590807
  C     5.069642  1.357912  1.743489
  C     3.321160 -2.806021  0.934795
  C     3.800050  1.098363  1.057009
  N     5.640049 -2.611939  0.774621
  N     6.091524  1.504706  0.900172
  N     3.444223 -2.817828 -0.416619
  N     3.844658  1.334315 -0.267936
  N     2.817259 -2.659115  3.399385
  N     3.453209  0.987061  3.664709
  S     1.978620 -2.824276  1.968325
  S     2.542679  0.721461  2.270050
  S     5.072211 -2.828582 -0.764493
  S     5.451625  1.548196 -0.631054
  S     4.425874 -2.369759  3.290241
  S     5.046475  1.413158  3.479773
