16  
    
  C    11.460731  0.758315  3.036086
  C    11.082414  4.779376  3.464480
  C    10.374318  0.158085  2.324275
  C     9.906454  4.119979  3.014767
  N    12.568761  0.828026  2.338640
  N    12.110093  4.844007  2.637735
  N    10.546817 -0.088801  1.065753
  N    10.033349  3.688592  1.749687
  N     9.425439  0.528269  4.642665
  N     9.437287  4.475159  5.480606
  S     8.935351 -0.103712  3.216139
  S     8.603745  3.968212  4.101750
  S    12.121762  0.364701  0.769006
  S    11.587953  4.039210  1.292919
  S    10.979095  1.082848  4.667706
  S    10.962829  5.148540  5.211278
