16  
    
  C    10.539076  0.673836  3.026534
  C    10.580993  4.672174  2.782644
  C     9.294086  0.092602  2.462426
  C     9.418979  3.970503  2.230263
  N    11.534116  0.842362  2.160949
  N    11.601842  4.634901  1.913398
  N     9.331957 -0.095054  1.160481
  N     9.529626  3.537466  0.959206
  N     8.770097  0.567782  4.955582
  N     8.842267  4.503990  4.721444
  S     8.014682 -0.181662  3.647772
  S     8.148338  3.685658  3.435268
  S    10.896581  0.335763  0.691461
  S    11.093916  3.923410  0.519847
  S    10.346216  1.103476  4.695912
  S    10.435400  4.915368  4.536930
