16  
    
  C    12.452667  1.659313  3.293489
  C    12.265342  5.391448  3.582577
  C    11.165733  1.136953  2.725959
  C    11.169225  4.732259  2.915707
  N    13.477423  1.751742  2.430517
  N    13.257191  5.681662  2.743480
  N    11.365901  0.904575  1.437810
  N    11.258178  4.627273  1.597948
  N    10.743482  1.316655  5.166846
  N    10.587173  4.981431  5.471620
  S     9.881703  0.825284  3.818381
  S     9.908736  4.384827  4.080380
  S    12.899110  1.335011  0.981245
  S    12.791255  5.185319  1.251678
  S    12.286168  1.859570  5.041321
  S    12.170971  5.528393  5.327111
