16  
    
  C    10.031257  0.003316  2.696858
  C     9.826897  4.195763  2.737882
  C     8.836834 -0.526447  2.043574
  C     8.942225  3.180942  2.220127
  N    11.036369  0.260715  1.835939
  N    10.864115  4.377575  1.898412
  N     8.980696 -0.782984  0.712683
  N     9.159440  2.664519  1.009035
  N     8.218525 -0.339959  4.498315
  N     8.045266  3.612606  4.544777
  S     7.517281 -0.930700  3.100544
  S     7.725230  2.577770  3.306240
  S    10.495169 -0.180978  0.284818
  S    10.653586  3.354016  0.605672
  S     9.845513  0.180378  4.441971
  S     9.445530  4.499482  4.463019
