16  
    
  C     7.277050 -1.568031  2.150209
  C     7.577758  2.687274  2.188625
  C     6.101910 -1.988195  1.452183
  C     6.367345  2.226378  1.546830
  N     8.306032 -1.220341  1.345933
  N     8.531911  2.933262  1.301048
  N     6.269523 -2.018142  0.118104
  N     6.424794  2.005168  0.237623
  N     5.546332 -2.137261  4.016066
  N     5.907617  2.293125  4.115452
  S     4.929138 -2.625918  2.577805
  S     5.099298  1.959911  2.710320
  S     7.824176 -1.444587 -0.214726
  S     7.958724  2.550507 -0.160768
  S     7.096973 -1.528433  3.875878
  S     7.553755  2.672579  3.939798
