16  
    
  C     6.028617 -2.246839  1.749631
  C     6.113979  1.689712  1.846745
  C     4.758969 -2.431565  1.102930
  C     4.803379  1.781802  1.214436
  N     7.087514 -2.254567  0.951710
  N     7.096630  1.444988  0.979043
  N     4.865405 -2.813307 -0.157268
  N     4.790541  1.666864 -0.118884
  N     4.263261 -2.116002  3.609973
  N     4.437614  2.058629  3.781027
  S     3.472039 -2.472688  2.227687
  S     3.508041  1.940984  2.381866
  S     6.488499 -2.495953 -0.578609
  S     6.410244  1.498968 -0.541744
  S     5.901528 -1.995490  3.471981
  S     6.083944  1.885623  3.554742
