16  
    
  C     5.553815 -2.121752  1.880898
  C     5.263917  1.585266  1.714480
  C     4.394757 -2.680219  1.227827
  C     4.109852  1.033706  1.123562
  N     6.573888 -1.821095  1.106268
  N     6.193326  2.071279  0.878885
  N     4.486313 -2.884060 -0.060591
  N     4.220183  0.996584 -0.190547
  N     3.725922 -2.444679  3.777367
  N     3.574510  0.852268  3.523559
  S     3.021544 -2.818582  2.350671
  S     2.967209  0.215433  2.127241
  S     5.979044 -2.213588 -0.451619
  S     5.609650  1.679637 -0.607083
  S     5.304043 -1.866137  3.589799
  S     5.066080  1.538602  3.459609
