16  
    
  C    12.124643  1.311255  3.521771
  C    11.861171  4.911990  3.772792
  C    10.898891  0.841282  2.904068
  C    10.722161  4.257877  3.150937
  N    13.053488  1.872392  2.739028
  N    12.753071  5.272485  2.860450
  N    10.991708  0.871674  1.602619
  N    10.746460  4.215456  1.846152
  N    10.429654  0.660983  5.388012
  N    10.237636  4.387340  5.709561
  S     9.683317  0.199144  4.009755
  S     9.484578  3.882307  4.273762
  S    12.434992  1.514091  1.182781
  S    12.104317  4.926550  1.383807
  S    11.905728  1.327032  5.221908
  S    11.780074  5.021239  5.521642
