16  
    
  C    12.489573  1.747792  3.406985
  C    12.798239  5.395756  3.443938
  C    11.268768  1.258479  2.708939
  C    11.644609  4.993831  2.724657
  N    13.515416  1.955778  2.588681
  N    13.816989  5.627628  2.568593
  N    11.411850  1.277943  1.361464
  N    11.697233  4.882704  1.411260
  N    10.826265  1.086535  5.208667
  N    11.022422  4.994026  5.244473
  S    10.105831  0.664882  3.801390
  S    10.371966  4.501440  3.781808
  S    12.947119  1.682862  1.023038
  S    13.298078  5.249852  1.024120
  S    12.411093  1.550764  5.126914
  S    12.569115  5.580276  5.155925
