16  
    
  C     4.276499 -2.323970  1.796642
  C     4.018595  1.182363  1.210315
  C     3.064602 -2.883180  1.237685
  C     2.922151  0.378669  0.688105
  N     5.253903 -2.155951  0.882244
  N     4.979605  1.502165  0.361448
  N     3.147710 -3.188694 -0.064465
  N     3.157280  0.033298 -0.553056
  N     2.629015 -2.810270  3.756259
  N     2.302230  0.910047  3.144892
  S     1.810579 -3.265084  2.382989
  S     1.727541  0.046608  1.907254
  S     4.684826 -2.719221 -0.563091
  S     4.581142  0.725741 -1.066035
  S     4.033131 -1.964136  3.512907
  S     3.721605  1.682862  2.823239
