16  
    
  C     5.807115 -2.164557  1.853076
  C     6.091177  1.743166  1.949276
  C     4.584661 -2.415054  1.187026
  C     4.749606  1.680808  1.423922
  N     6.894707 -2.082465  1.039657
  N     7.054228  1.370710  1.119153
  N     4.767970 -2.683475 -0.124224
  N     4.637978  1.335783  0.158990
  N     3.996880 -2.353889  3.724014
  N     4.505350  2.041368  3.977538
  S     3.269291 -2.788096  2.252438
  S     3.583457  2.018193  2.612075
  S     6.297299 -2.304948 -0.465386
  S     6.270639  1.125523 -0.364131
  S     5.632638 -1.991381  3.590948
  S     6.167611  2.129378  3.670896
