16  
    
  C    12.063361  1.613700  3.350010
  C    12.278586  5.320218  3.529915
  C    11.001712  0.994033  2.692194
  C    11.136712  4.732887  2.854766
  N    13.219904  1.744532  2.650304
  N    13.310873  5.561270  2.744334
  N    11.259479  0.799087  1.404876
  N    11.384104  4.363488  1.568786
  N    10.140921  1.203759  5.098941
  N    10.305036  5.162159  5.243694
  S     9.571853  0.506056  3.635513
  S     9.769176  4.536004  3.803725
  S    12.834022  1.254394  1.119973
  S    12.926926  4.806244  1.282566
  S    11.731466  1.774886  5.088577
  S    11.923428  5.627600  5.298963
