16  
    
  C     7.301185 -1.639029  2.254884
  C     7.439044  2.415259  2.135554
  C     6.111357 -2.063440  1.558780
  C     6.180065  1.942806  1.579327
  N     8.352553 -1.577681  1.455117
  N     8.457919  2.446798  1.274572
  N     6.206901 -2.171238  0.237856
  N     6.189686  1.667312  0.263970
  N     5.526305 -2.036670  4.038057
  N     5.738128  2.280487  4.078328
  S     4.717292 -2.267210  2.616020
  S     4.967428  1.660570  2.764157
  S     7.807061 -1.861109 -0.065704
  S     7.834730  1.999863 -0.208268
  S     7.137095 -1.591375  3.940214
  S     7.354097  2.577989  3.902587
