16  
    
  C     7.331032 -1.780847  2.230170
  C     7.456779  2.407973  2.112992
  C     6.119949 -2.097590  1.499534
  C     6.181363  1.992164  1.555032
  N     8.277506 -1.391975  1.412441
  N     8.455645  2.488842  1.222449
  N     6.263932 -2.236416  0.192340
  N     6.211574  1.936305  0.221417
  N     5.578203 -2.036978  4.073052
  N     5.824734  2.201642  4.088880
  S     4.741252 -2.287086  2.609276
  S     4.934634  1.690119  2.761172
  S     7.826118 -1.712933 -0.142630
  S     7.810931  2.098459 -0.209234
  S     7.161464 -1.671666  3.922890
  S     7.377449  2.635010  3.842323
