16  
    
  C     5.483912 -2.309863  1.690831
  C     5.175508  1.616685  1.512064
  C     4.341942 -2.704682  0.888053
  C     4.156413  1.003859  0.738003
  N     6.562094 -2.077557  0.973826
  N     6.344345  1.645020  0.868968
  N     4.519524 -2.723937 -0.424572
  N     4.429449  0.865106 -0.556912
  N     3.535114 -2.504447  3.343514
  N     3.142005  1.559707  3.069431
  S     2.891860 -2.922732  1.874487
  S     2.768544  0.707736  1.712077
  S     6.138717 -2.402564 -0.648013
  S     6.035792  1.224926 -0.684807
  S     5.144204 -2.122036  3.405693
  S     4.777667  2.107095  3.171022
