16  
    
  C     4.585633 -2.137249  1.564898
  C     4.825602  1.532604  1.833791
  C     3.371369 -2.539630  0.910491
  C     3.532501  1.296790  1.203744
  N     5.650241 -1.973543  0.754926
  N     5.841972  1.486627  0.996717
  N     3.496265 -2.582575 -0.441445
  N     3.586874  1.281929 -0.115652
  N     2.841049 -2.239281  3.438748
  N     3.088884  1.237479  3.634600
  S     2.074649 -2.738346  2.070485
  S     2.179904  1.279595  2.221400
  S     5.104567 -2.327156 -0.740747
  S     5.202368  1.252035 -0.535921
  S     4.501585 -2.037273  3.314974
  S     4.665190  1.699959  3.602950
