16  
    
  C     6.214252 -1.659790  2.122515
  C     6.556364  2.125744  2.068255
  C     5.190817 -2.381451  1.449549
  C     5.340091  1.652255  1.477313
  N     7.299926 -1.447479  1.336878
  N     7.584093  2.286540  1.250167
  N     5.369831 -2.551714  0.111297
  N     5.480076  1.448127  0.176704
  N     4.353423 -2.049675  3.907376
  N     4.774714  1.922841  3.990159
  S     3.802806 -2.821706  2.483302
  S     3.982910  1.499903  2.565174
  S     6.867503 -1.823850 -0.207240
  S     6.983157  1.937565 -0.252188
  S     5.957161 -1.544025  3.840402
  S     6.409720  2.326006  3.820176
