16  
    
  C     3.448482 -3.049389  1.029971
  C     3.803596  0.697346  1.386699
  C     2.203525 -3.510928  0.424596
  C     2.585204  0.201568  0.768197
  N     4.442866 -3.014020  0.187982
  N     4.862561  0.813648  0.588816
  N     2.303990 -3.698617 -0.876181
  N     2.707184  0.086681 -0.546979
  N     1.708710 -3.140223  2.900484
  N     2.003350  0.355003  3.299993
  S     0.928596 -3.747257  1.537976
  S     1.266078  0.060184  1.813634
  S     3.821895 -3.355075 -1.287100
  S     4.314586  0.469725 -0.897386
  S     3.368778 -2.776323  2.725656
  S     3.554551  0.939614  3.099895
