16  
    
  C     8.492355 -1.069055  2.347964
  C     8.202345  2.713453  2.055682
  C     7.261904 -1.316347  1.604261
  C     7.014019  2.284003  1.337483
  N     9.542994 -0.861428  1.585833
  N     9.277477  2.749754  1.300403
  N     7.419311 -1.469076  0.301150
  N     7.200328  2.181476  0.043018
  N     6.641607 -1.176344  4.174825
  N     6.452766  2.365169  3.870882
  S     6.008758 -1.704037  2.750990
  S     5.712325  1.990315  2.398081
  S     9.041948 -1.102565  0.027761
  S     8.779700  2.542241 -0.303859
  S     8.305566 -0.934507  4.099883
  S     8.074597  2.950625  3.756561
