16  
    
  C     4.685594 -2.045434  1.649809
  C     4.395777  1.544086  1.436736
  C     3.387969 -2.169710  1.074214
  C     3.253048  0.980215  0.768244
  N     5.683466 -2.116957  0.742562
  N     5.430844  1.787588  0.647249
  N     3.344436 -2.198147 -0.276884
  N     3.356700  0.940125 -0.569072
  N     3.018033 -1.769111  3.587471
  N     2.791783  0.854127  3.268767
  S     2.103866 -2.166879  2.259891
  S     1.948538  0.639173  1.879413
  S     4.951196 -2.352051 -0.772100
  S     4.884489  1.350348 -0.854722
  S     4.682350 -1.781471  3.362135
  S     4.271676  1.539802  3.117179
