16  
    
  C    12.940247  1.758077  3.716775
  C    12.946048  5.492586  3.695603
  C    11.669813  1.459134  3.099104
  C    11.664625  5.022131  3.257937
  N    13.884567  1.835974  2.826330
  N    13.900264  5.523749  2.702552
  N    11.693558  1.193149  1.778957
  N    11.702241  4.661438  1.978732
  N    11.215479  1.525234  5.656907
  N    11.296298  5.585489  5.705387
  S    10.373570  1.254114  4.252823
  S    10.379326  5.040238  4.355087
  S    13.243775  1.477825  1.304861
  S    13.189844  4.935886  1.367138
  S    12.873902  1.892987  5.469624
  S    12.870814  5.979686  5.365831
