16  
    
  C     6.536788 -1.713761  1.964239
  C     6.533175  2.231008  2.097609
  C     5.280123 -2.117274  1.328315
  C     5.426536  1.538699  1.511611
  N     7.530241 -1.479940  1.140532
  N     7.483356  2.586563  1.239013
  N     5.332308 -2.063340  0.014608
  N     5.468382  1.433611  0.177432
  N     4.874283 -2.256049  3.878364
  N     4.973634  1.580354  4.073417
  S     4.036375 -2.501202  2.443925
  S     4.225096  1.074569  2.640493
  S     6.911025 -1.751912 -0.403908
  S     6.985483  2.118333 -0.284644
  S     6.463530 -1.826702  3.727497
  S     6.461250  2.344689  3.863789
