16  
    
  C    12.564884  1.712524  3.371076
  C    12.834196  5.377540  3.345581
  C    11.353918  1.323726  2.731511
  C    11.615156  4.851290  2.710854
  N    13.584376  2.000343  2.574779
  N    13.843413  5.568098  2.552333
  N    11.368744  1.315916  1.427932
  N    11.650093  4.829226  1.399463
  N    10.850465  0.990571  5.265332
  N    11.072940  5.048185  5.183517
  S    10.082878  0.715984  3.807631
  S    10.360857  4.483907  3.819887
  S    12.976783  1.686842  1.047007
  S    13.157669  5.282910  0.961390
  S    12.385395  1.576218  5.089936
  S    12.624791  5.592131  5.153470
