16  
    
  C    12.710926  1.634428  3.332647
  C    12.549435  5.315313  3.259750
  C    11.473004  1.257078  2.755448
  C    11.352647  4.830995  2.725866
  N    13.709699  1.893230  2.451690
  N    13.467548  5.547251  2.341113
  N    11.564473  1.063788  1.438222
  N    11.308515  4.693664  1.358887
  N    11.074381  1.529100  5.301419
  N    11.038702  4.783873  5.261578
  S    10.339756  0.853172  3.956307
  S    10.145294  4.445170  3.860163
  S    13.046434  1.536756  0.954122
  S    12.880624  5.117870  0.891354
  S    12.759590  1.678941  5.096599
  S    12.497867  5.488326  4.967634
