16  
    
  C     6.182432 -1.496676  1.516003
  C     6.393589  2.201962  1.887369
  C     5.017120 -2.042572  0.833801
  C     5.204336  1.644431  1.229893
  N     7.274203 -1.469105  0.767073
  N     7.450439  2.218626  1.085247
  N     5.307113 -2.483516 -0.402109
  N     5.327883  1.359401 -0.069729
  N     4.491619 -1.906266  3.406212
  N     4.630370  1.746783  3.730594
  S     3.786951 -2.493689  2.026984
  S     3.839226  1.433036  2.265312
  S     6.835583 -2.031919 -0.706584
  S     6.948344  1.746252 -0.477306
  S     5.972224 -1.148292  3.199712
  S     6.204338  2.348074  3.596450
