16  
    
  C     9.908919 -0.191916  2.935245
  C    10.193454  3.535784  2.821482
  C     8.732753 -0.573331  2.184130
  C     8.848968  3.454806  2.281291
  N    10.951110  0.127132  2.179836
  N    11.120315  3.562261  1.883823
  N     8.926723 -0.728589  0.875085
  N     8.703743  3.442822  0.957530
  N     8.167964 -0.755641  4.717139
  N     8.578114  3.266572  4.854531
  S     7.372244 -0.885844  3.226436
  S     7.634848  3.398546  3.435917
  S    10.530181 -0.281215  0.623884
  S    10.336264  3.609964  0.400384
  S     9.722732 -0.173591  4.712103
  S    10.249013  3.675428  4.639165
