16  
    
  C     4.267267 -2.543771  1.585421
  C     4.143277  1.231036  1.696695
  C     3.027950 -3.059080  1.081324
  C     2.848110  1.122816  1.094658
  N     5.292623 -2.619485  0.754975
  N     5.203651  1.000219  0.910604
  N     3.063368 -3.448885 -0.172002
  N     2.893828  0.904013 -0.217346
  N     2.597806 -2.641937  3.507705
  N     2.515264  1.325316  3.642976
  S     1.863678 -3.422708  2.235839
  S     1.601904  1.161638  2.252621
  S     4.619563 -3.131317 -0.723677
  S     4.477012  0.845246 -0.614534
  S     4.152647 -2.039262  3.260026
  S     4.110944  1.457389  3.414298
