16  
    
  C    12.087657  1.604724  3.287159
  C    12.273127  5.425602  3.576179
  C    11.036712  1.023203  2.580599
  C    11.165919  4.696561  2.936064
  N    13.198150  1.883365  2.602910
  N    13.354059  5.584849  2.845945
  N    11.281444  0.821400  1.303044
  N    11.422976  4.394400  1.685786
  N    10.252693  1.208427  5.024175
  N    10.432695  4.942454  5.386728
  S     9.700844  0.707426  3.602670
  S     9.751717  4.432023  3.905689
  S    12.881145  1.282934  1.085135
  S    12.994050  5.020914  1.337475
  S    11.761868  1.797857  5.057887
  S    11.950974  5.622258  5.242413
