16  
    
  C    12.531236  1.734276  3.388462
  C    12.842225  5.390332  3.369955
  C    11.375643  1.318564  2.716853
  C    11.595672  4.876976  2.726838
  N    13.569377  1.988198  2.589365
  N    13.836775  5.583204  2.573247
  N    11.363761  1.308004  1.402158
  N    11.660200  4.848835  1.396262
  N    10.838959  1.016569  5.242455
  N    11.070140  5.037157  5.188313
  S    10.090383  0.699662  3.812296
  S    10.375130  4.491715  3.802667
  S    12.964982  1.682240  1.042588
  S    13.192159  5.270423  0.970329
  S    12.387535  1.564966  5.093392
  S    12.603866  5.589101  5.165303
