16  
    
  C     7.257287 -1.548097  2.121000
  C     7.577231  2.634052  2.185243
  C     6.098946 -2.010713  1.450745
  C     6.356949  2.204132  1.544257
  N     8.322703 -1.240577  1.353803
  N     8.508637  2.926365  1.288444
  N     6.252026 -1.995209  0.118065
  N     6.452947  2.008625  0.241170
  N     5.573727 -2.129402  4.028045
  N     5.905335  2.279352  4.137485
  S     4.937381 -2.616658  2.571151
  S     5.090266  1.957095  2.703825
  S     7.815963 -1.464114 -0.208221
  S     7.930520  2.527686 -0.178483
  S     7.102721 -1.547841  3.869657
  S     7.546074  2.668383  3.931634
