16  
    
  C    12.138103  1.199069  3.332347
  C    12.257973  5.027062  3.378782
  C    10.920117  0.747826  2.748915
  C    11.014789  4.679603  2.807917
  N    13.267141  1.169288  2.624596
  N    13.249318  5.105439  2.476382
  N    11.067522  0.615054  1.423136
  N    11.043016  4.378043  1.542012
  N    10.223419  1.416258  5.157972
  N    10.530911  5.355800  5.251083
  S     9.451433  0.819629  3.754677
  S     9.721947  4.821606  3.896693
  S    12.680151  0.817672  1.051502
  S    12.623753  4.682741  1.017145
  S    11.889088  1.675100  4.984946
  S    12.171654  5.533671  5.105083
