16  
    
  C     4.578175 -2.669297  1.542472
  C     5.109437  1.423825  1.689609
  C     3.299011 -2.759988  0.862513
  C     3.817193  1.295142  1.131793
  N     5.636458 -2.603527  0.772477
  N     6.138926  1.555073  0.831731
  N     3.382547 -2.889675 -0.457599
  N     3.847508  1.320512 -0.183920
  N     2.726038 -2.774720  3.429839
  N     3.450694  1.091829  3.623016
  S     1.917342 -2.808712  1.988126
  S     2.584031  0.726813  2.193243
  S     5.023781 -2.737565 -0.796639
  S     5.449123  1.463749 -0.663253
  S     4.367226 -2.451694  3.245149
  S     5.106940  1.396547  3.400899
