16  
    
  C    10.954572  0.509070  3.228242
  C    11.083785  4.256836  3.375012
  C     9.825097  0.055263  2.468023
  C     9.870592  3.830257  2.745415
  N    11.961106  0.939401  2.484195
  N    12.036670  4.598887  2.533710
  N    10.085121 -0.018778  1.151858
  N     9.904440  3.753208  1.410231
  N     9.093947  0.173838  4.985045
  N     9.420775  3.974229  5.320357
  S     8.413627 -0.217296  3.514813
  S     8.580613  3.491938  3.969027
  S    11.521191  0.739818  0.906394
  S    11.424621  4.205526  0.967824
  S    10.722115  0.605810  4.975931
  S    10.991151  4.442915  5.059918
