16  
    
  C     8.524160 -0.885334  2.388508
  C     8.270067  2.640336  2.033893
  C     7.260800 -1.230698  1.681282
  C     7.059564  2.239230  1.314565
  N     9.607085 -0.881835  1.631467
  N     9.331078  2.836041  1.259899
  N     7.415253 -1.243498  0.390812
  N     7.238834  2.088144  0.020822
  N     6.581841 -1.174385  4.085008
  N     6.329774  2.281642  3.779044
  S     5.818228 -1.480838  2.635493
  S     5.693559  1.883914  2.323534
  S     9.023224 -1.165459  0.075720
  S     8.862344  2.362697 -0.294500
  S     8.224980 -0.903734  4.090911
  S     7.919107  2.687709  3.724015
