16  
    
  C    10.304880  0.601065  2.967991
  C    10.643721  4.554703  2.893385
  C     9.170802 -0.076227  2.356840
  C     9.399164  4.330123  2.226586
  N    11.270587  0.972311  2.153216
  N    11.646615  4.836109  2.085753
  N     9.189499 -0.102087  1.031792
  N     9.510401  4.192075  0.875255
  N     8.685916  0.011074  4.891904
  N     9.109143  3.792615  4.803303
  S     7.908947 -0.583000  3.521519
  S     8.140408  3.909958  3.446549
  S    10.695490  0.600246  0.638151
  S    11.112439  4.527824  0.582315
  S    10.249111  0.577170  4.719181
  S    10.709350  4.227834  4.583509
