16  
    
  C     8.731299 -0.486241  2.424602
  C     8.548704  3.205577  2.633680
  C     7.544307 -0.954160  1.669223
  C     7.332249  2.741626  1.928088
  N     9.795495 -0.515179  1.671131
  N     9.521376  3.403234  1.791215
  N     7.718769 -1.273279  0.404592
  N     7.501749  2.475737  0.651227
  N     6.864404 -0.809506  4.106685
  N     6.841307  2.803893  4.465401
  S     6.109431 -0.939685  2.659203
  S     6.070619  2.486207  3.019397
  S     9.333494 -1.020772  0.156138
  S     9.017743  2.999904  0.192476
  S     8.478913 -0.290606  4.156178
  S     8.447908  3.225258  4.397665
