16  
    
  C    11.939511  1.170104  3.395341
  C    11.838628  4.933566  3.455875
  C    10.718966  0.732171  2.675094
  C    10.663275  4.435875  2.727741
  N    13.006694  1.260328  2.585257
  N    12.976574  4.995765  2.697223
  N    10.914208  0.474530  1.373346
  N    10.879887  4.226825  1.449179
  N     9.995701  1.174836  5.130419
  N     9.950889  4.846890  5.208480
  S     9.384309  0.459998  3.747928
  S     9.307762  4.420841  3.755437
  S    12.505556  0.759290  1.100382
  S    12.461179  4.579663  1.132529
  S    11.608670  1.604712  4.987401
  S    11.600834  5.144906  5.222719
