16  
    
  C     9.981475 -0.156477  2.853883
  C    10.022212  3.788602  2.685083
  C     8.797818 -0.564060  2.204626
  C     8.816315  3.183772  2.191262
  N    11.021937 -0.039928  2.009985
  N    10.948049  4.042555  1.754853
  N     8.838793 -0.632212  0.849061
  N     8.927669  2.795020  0.927828
  N     8.199118 -0.380421  4.646090
  N     8.549585  3.566594  4.762832
  S     7.436468 -0.786383  3.221156
  S     7.733111  2.810285  3.488461
  S    10.436250 -0.295202  0.447331
  S    10.382801  3.397212  0.363777
  S     9.880819 -0.178981  4.647511
  S    10.145088  4.052480  4.465655
