16  
    
  C    11.355242  0.495716  3.038160
  C    11.062999  4.474750  3.483716
  C    10.274921 -0.069656  2.266644
  C     9.765083  4.138981  2.946764
  N    12.429956  0.707764  2.335464
  N    12.118546  4.394348  2.662753
  N    10.606378 -0.334760  1.020571
  N     9.844636  3.942772  1.632597
  N     9.306316  0.394184  4.586060
  N     9.355335  4.649279  5.479217
  S     8.822247 -0.383834  3.195410
  S     8.525542  4.264214  4.105932
  S    12.153162  0.079339  0.812116
  S    11.401912  4.070692  1.120027
  S    10.910668  0.840798  4.734055
  S    11.014138  4.773411  5.252805
