16  
    
  C     4.110854 -2.918323  1.584934
  C     4.132566  1.270745  1.525329
  C     2.907731 -3.366206  0.958704
  C     2.892347  0.913202  0.916521
  N     5.156867 -2.858182  0.738656
  N     5.133608  1.249846  0.658931
  N     3.012325 -3.470671 -0.373679
  N     2.848429  0.842637 -0.432056
  N     2.098562 -2.663644  3.289602
  N     2.445507  1.300888  3.501668
  S     1.475986 -3.431116  1.957816
  S     1.630900  0.853828  2.140556
  S     4.567061 -3.301987 -0.782809
  S     4.512956  1.004620 -0.818570
  S     3.713161 -2.325172  3.257979
  S     4.043522  1.594300  3.241968
