16  
    
  C     5.839530 -2.141185  1.832866
  C     6.128836  1.780108  1.958743
  C     4.584233 -2.429569  1.178905
  C     4.757285  1.679727  1.422920
  N     6.891327 -2.119452  1.051233
  N     7.047761  1.382213  1.095741
  N     4.717401 -2.627314 -0.103172
  N     4.650633  1.326377  0.135071
  N     3.992467 -2.362640  3.737426
  N     4.531233  2.021968  3.964477
  S     3.307263 -2.751336  2.226568
  S     3.568766  2.051037  2.612616
  S     6.317906 -2.333121 -0.475196
  S     6.245866  1.104918 -0.364778
  S     5.653859 -2.005994  3.572339
  S     6.178765  2.104230  3.645424
