16  
    
  C    11.080461  0.544704  3.035953
  C    10.930744  4.393798  2.927625
  C     9.829202  0.056872  2.469948
  C     9.897702  3.620832  2.245965
  N    12.047502  0.711151  2.155609
  N    12.002262  4.604058  2.152456
  N     9.928948 -0.093698  1.170628
  N    10.151581  3.280224  1.000313
  N     9.276782  0.485285  4.947726
  N     9.057079  4.172381  4.615674
  S     8.508214 -0.136210  3.610262
  S     8.478880  3.476825  3.229161
  S    11.455386  0.217485  0.689908
  S    11.609923  3.914158  0.609688
  S    10.912763  0.748273  4.756160
  S    10.660780  4.601169  4.606311
