16  
    
  C     8.518095 -1.036373  2.337561
  C     8.254127  2.667021  2.065756
  C     7.328775 -1.520006  1.648090
  C     7.042287  2.286936  1.361364
  N     9.576531 -0.850041  1.547073
  N     9.282151  2.854049  1.261475
  N     7.490063 -1.531814  0.311511
  N     7.149140  2.225086  0.027706
  N     6.740947 -1.191773  4.215053
  N     6.536880  2.467111  3.924361
  S     6.001802 -1.799723  2.841310
  S     5.745562  2.051062  2.489642
  S     9.058940 -1.077507 -0.032588
  S     8.773182  2.616271 -0.275804
  S     8.339205 -0.938741  4.095936
  S     8.095379  3.057885  3.775231
