16  
    
  C     3.197108 -2.879439  1.574825
  C     3.595417  0.574665  1.406510
  C     2.077461 -3.216534  0.759035
  C     2.314717  0.260703  0.781049
  N     4.324945 -2.562968  0.898278
  N     4.597081  0.858089  0.568721
  N     2.349910 -3.087837 -0.551525
  N     2.378646  0.424404 -0.533060
  N     1.375684 -3.559382  3.221277
  N     1.900205  0.117961  3.313854
  S     0.688186 -3.660343  1.736431
  S     1.020187 -0.017068  1.867040
  S     3.969704 -2.836784 -0.648066
  S     3.923683  0.788958 -0.948304
  S     2.979240 -3.081135  3.252914
  S     3.503140  0.690568  3.199651
