16  
    
  C    11.644735  1.075009  3.310791
  C    12.045146  4.972865  3.202011
  C    10.424309  0.689205  2.592690
  C    10.820833  4.326512  2.806975
  N    12.669703  1.231505  2.475988
  N    13.015463  5.090032  2.304991
  N    10.617109  0.302268  1.322382
  N    10.822055  4.055827  1.481185
  N     9.884729  1.210420  5.071201
  N    10.216980  5.198370  5.079045
  S     9.104830  0.515639  3.733519
  S     9.478115  4.316793  3.871161
  S    12.220113  0.713557  0.966867
  S    12.339397  4.506155  0.915516
  S    11.546477  1.281781  5.041378
  S    11.840954  5.556004  4.847120
