16  
    
  C    12.077410  1.345199  3.358006
  C    11.707224  4.874600  3.711004
  C    10.930283  0.832953  2.768200
  C    10.567864  4.347820  3.022816
  N    13.092665  1.666977  2.539772
  N    12.762034  5.193138  2.939149
  N    10.972483  0.796089  1.434914
  N    10.732152  4.094051  1.726702
  N    10.331828  0.691080  5.248046
  N    10.021802  4.450196  5.544677
  S     9.581617  0.356702  3.821330
  S     9.322371  3.921592  4.111137
  S    12.513550  1.237598  1.023672
  S    12.294912  4.707417  1.417711
  S    11.815844  1.375983  5.084710
  S    11.605446  5.022296  5.445524
