16  
    
  C    12.155623  1.018465  3.464103
  C    12.279464  5.149520  3.294477
  C    10.884243  0.778221  2.745561
  C    11.049315  4.704405  2.716996
  N    13.170707  1.108553  2.595782
  N    13.299958  5.080487  2.385954
  N    11.026778  0.600731  1.423461
  N    11.060712  4.293718  1.457360
  N    10.220539  1.437005  5.095282
  N    10.535591  5.328142  5.168393
  S     9.501150  0.779914  3.745106
  S     9.659366  4.872411  3.830993
  S    12.639815  0.809466  1.092642
  S    12.598352  4.579059  0.913701
  S    11.862713  1.728238  5.060952
  S    12.167691  5.530522  5.002673
