16  
    
  C     8.765219 -0.241981  2.518979
  C     8.655697  3.027318  2.572225
  C     7.598101 -0.766431  1.877173
  C     7.446686  2.716331  1.917653
  N     9.775935 -0.012471  1.703711
  N     9.722776  3.183149  1.790895
  N     7.677169 -0.873742  0.563699
  N     7.562073  2.585046  0.601043
  N     6.987044 -0.665924  4.300570
  N     6.732489  2.929436  4.339990
  S     6.214089 -0.983587  2.894574
  S     6.006466  2.455926  2.930386
  S     9.190150 -0.365457  0.194291
  S     9.147588  2.808277  0.265958
  S     8.511606 -0.081860  4.190518
  S     8.349690  3.248089  4.270024
