16  
    
  C     7.035822 -1.547914  2.221308
  C     7.107132  2.203484  2.126713
  C     5.852824 -1.936982  1.483050
  C     5.917435  1.760677  1.392040
  N     8.158427 -1.323792  1.495844
  N     8.192739  2.388889  1.387707
  N     6.022923 -1.812866  0.155018
  N     6.079355  1.586151  0.102020
  N     5.142862 -1.662831  3.958289
  N     5.125780  1.958426  3.845637
  S     4.495968 -2.108117  2.530458
  S     4.512736  1.640284  2.342041
  S     7.613868 -1.520316 -0.093814
  S     7.705407  1.906413 -0.246462
  S     6.823079 -1.497037  3.920170
  S     6.737445  2.470406  3.791579
