16  
    
  C     5.714309 -2.004892  1.949178
  C     6.017560  1.691559  2.063102
  C     4.565330 -2.699871  1.304948
  C     4.713130  1.486401  1.418218
  N     6.758515 -1.897653  1.153614
  N     7.045766  1.690713  1.223041
  N     4.716793 -2.947530  0.028131
  N     4.820145  1.243803  0.114925
  N     3.940087 -2.354969  3.696259
  N     4.284131  1.998078  3.910833
  S     3.236183 -3.013415  2.373648
  S     3.442897  1.584256  2.555029
  S     6.237755 -2.301056 -0.394956
  S     6.409107  1.451394 -0.277545
  S     5.510326 -1.896052  3.680203
  S     5.938940  2.005521  3.791930
