16  
    
  C     7.851883 -0.803029  2.008478
  C     8.117218  3.020375  2.478222
  C     6.686305 -1.398455  1.370585
  C     6.920458  2.560813  1.821429
  N     8.899672 -0.631558  1.184143
  N     9.193245  3.179641  1.677620
  N     6.856898 -1.686603  0.066763
  N     7.112565  2.431666  0.515925
  N     6.066494 -0.934510  3.785936
  N     6.368804  2.516545  4.294746
  S     5.368467 -1.719756  2.426063
  S     5.521235  2.329281  2.893442
  S     8.372289 -1.197403 -0.277652
  S     8.641645  2.869173  0.095370
  S     7.650183 -0.598383  3.659138
  S     7.930017  2.994375  4.208503
