16  
    
  C    11.405047  1.176701  3.177239
  C    11.421373  4.869105  2.936516
  C    10.232304  0.600827  2.629453
  C    10.311668  4.229209  2.305983
  N    12.334838  1.511646  2.254943
  N    12.380254  5.292522  2.086864
  N    10.213130  0.412415  1.321114
  N    10.446283  4.058552  0.993117
  N     9.867067  0.810587  5.098016
  N     9.565913  4.649872  4.768683
  S     9.081806  0.074215  3.818549
  S     8.967846  3.888810  3.395943
  S    11.674933  1.044931  0.845434
  S    11.954923  4.717671  0.608861
  S    11.404620  1.417321  4.877410
  S    11.161451  5.064559  4.698658
