16  
    
  C    11.004117  0.694494  3.309428
  C    11.222594  4.228655  3.225153
  C     9.836474  0.288645  2.572680
  C     9.939235  3.867416  2.711063
  N    12.092909  0.918191  2.559030
  N    12.179883  4.559585  2.331145
  N     9.996329  0.171770  1.257766
  N     9.932744  3.765558  1.408043
  N     9.137001  0.039166  5.003000
  N     9.575285  3.798834  5.226261
  S     8.517368 -0.358531  3.506844
  S     8.729944  3.504134  3.828371
  S    11.574232  0.551950  0.994148
  S    11.441961  4.144288  0.861011
  S    10.729579  0.617641  5.038158
  S    11.167203  4.257214  5.016642
