16  
    
  C    11.316616  1.067323  3.278238
  C    11.441117  4.849338  2.810823
  C    10.038426  0.677395  2.660689
  C    10.220510  4.264962  2.229530
  N    12.269465  1.324258  2.347751
  N    12.444451  5.064849  1.958730
  N    10.057853  0.541527  1.326310
  N    10.384416  4.012106  0.963360
  N     9.767278  0.622703  5.300455
  N     9.800019  4.437964  4.728235
  S     8.899689  0.321143  3.933306
  S     8.957011  3.950896  3.356348
  S    11.649430  0.886129  0.902593
  S    11.885761  4.584829  0.539168
  S    11.224102  1.318104  5.005972
  S    11.349315  5.037708  4.506275
