16  
    
  C    12.081011  1.356869  3.376835
  C    12.182245  5.171083  3.800619
  C    10.972975  0.797267  2.709280
  C    10.945519  4.761758  3.233510
  N    13.095405  1.655452  2.578224
  N    13.159139  5.324306  2.929054
  N    11.115869  0.714653  1.387790
  N    10.885793  4.674507  1.867365
  N    10.331354  1.143991  5.217111
  N    10.605555  4.753617  5.767694
  S     9.603624  0.544467  3.821067
  S     9.641403  4.509193  4.393582
  S    12.670838  1.295248  1.051805
  S    12.457058  5.081665  1.412577
  S    11.858064  1.801630  5.101032
  S    12.214293  5.179190  5.513748
