16  
    
  C    12.446858  1.666967  3.357547
  C    12.815696  5.511221  3.682855
  C    11.335057  0.957428  2.743350
  C    11.724652  4.978262  2.847608
  N    13.482215  1.847389  2.564854
  N    13.881550  5.740261  3.011042
  N    11.528859  0.724109  1.469715
  N    12.027321  4.964176  1.548560
  N    10.864318  1.237222  5.322232
  N    10.904842  5.117614  5.252530
  S    10.197154  0.492247  3.988884
  S    10.336024  4.542039  3.845721
  S    13.041983  1.217114  1.086845
  S    13.644988  5.405128  1.440418
  S    12.407700  1.808302  5.112891
  S    12.462577  5.642486  5.331015
