16  
    
  C     7.183505 -1.282903  2.275026
  C     7.756784  2.785232  2.329602
  C     6.218364 -2.072268  1.507310
  C     6.549285  2.425928  1.658937
  N     8.193235 -0.856599  1.537566
  N     8.824976  2.956717  1.530193
  N     6.484343 -2.095494  0.219109
  N     6.708949  2.263229  0.348714
  N     5.347783 -2.125764  3.954652
  N     5.959334  2.323879  4.161109
  S     4.777591 -2.552356  2.475740
  S     5.245962  2.015546  2.703291
  S     7.910778 -1.259817 -0.052188
  S     8.233630  2.719955  0.020865
  S     6.883848 -1.372435  4.015823
  S     7.543199  2.983810  4.033245
