16  
    
  C    10.160788  0.419739  2.834951
  C    10.750248  4.395244  2.812843
  C     9.007203 -0.165609  2.252035
  C     9.574322  3.841519  2.181214
  N    11.087626  0.818744  1.984277
  N    11.780882  4.592653  2.016465
  N     9.006987 -0.150974  0.934056
  N     9.704040  3.689346  0.877134
  N     8.548097 -0.065008  4.744806
  N     8.970226  3.912489  4.629650
  S     7.714925 -0.412884  3.370619
  S     8.143163  3.712189  3.187894
  S    10.483899  0.509424  0.461089
  S    11.193805  4.235875  0.447644
  S    10.025105  0.697311  4.512967
  S    10.555127  4.453856  4.499823
