16  
    
  C     7.094240 -1.424544  2.300244
  C     7.045115  2.233013  2.102476
  C     5.888721 -1.829744  1.587403
  C     5.846039  1.811335  1.423137
  N     8.114672 -1.271031  1.484594
  N     8.111509  2.422630  1.336854
  N     5.933394 -1.781122  0.263937
  N     6.080499  1.580206  0.110709
  N     5.282888 -1.836762  4.170755
  N     5.254514  2.012665  3.939953
  S     4.531966 -2.036476  2.671135
  S     4.522180  1.673971  2.455313
  S     7.538324 -1.538753 -0.096327
  S     7.653733  1.902369 -0.186065
  S     6.839514 -1.351667  4.031032
  S     6.825376  2.566885  3.784948
