16  
    
  C    11.301201  0.922448  3.345450
  C    11.571896  4.689867  2.776300
  C    10.022831  0.541153  2.779104
  C    10.323975  4.299225  2.147525
  N    12.250373  1.203267  2.417849
  N    12.523698  4.820174  1.852068
  N    10.061614  0.300714  1.472765
  N    10.349207  4.149963  0.846024
  N     9.577406  0.916769  5.321710
  N     9.886795  4.398067  4.754672
  S     8.713458  0.516292  3.924190
  S     9.069991  3.996215  3.377639
  S    11.556857  0.860880  0.949968
  S    11.915474  4.534087  0.368237
  S    11.203811  1.150717  5.073140
  S    11.439224  4.930241  4.520210
