16  
    
  C    12.069159  1.306888  3.481398
  C    11.892140  4.863749  3.759636
  C    10.892306  0.862828  2.891231
  C    10.752030  4.250029  3.163168
  N    13.063738  1.808588  2.727529
  N    12.751580  5.296832  2.886732
  N    10.982617  0.880196  1.568120
  N    10.762124  4.176350  1.814403
  N    10.420196  0.687247  5.374246
  N    10.189980  4.409777  5.698806
  S     9.689867  0.197751  3.997531
  S     9.451291  3.881624  4.282629
  S    12.444732  1.500730  1.191556
  S    12.108104  4.904773  1.370178
  S    11.911969  1.319192  5.200988
  S    11.738117  5.010928  5.503532
