16  
    
  C     9.998182 -0.137914  2.830813
  C    10.019414  3.804484  2.697650
  C     8.799524 -0.580134  2.187082
  C     8.842935  3.163652  2.200519
  N    11.015427 -0.036847  1.985624
  N    10.916432  4.064718  1.761553
  N     8.844530 -0.604086  0.855582
  N     8.971038  2.759673  0.930417
  N     8.213249 -0.344496  4.643689
  N     8.540564  3.563208  4.732426
  S     7.464867 -0.779390  3.217506
  S     7.754954  2.776965  3.474639
  S    10.422126 -0.297448  0.444123
  S    10.367234  3.376628  0.353260
  S     9.871168 -0.175532  4.633242
  S    10.121717  4.090873  4.484949
