16  
    
  C     8.702772 -0.910290  2.326416
  C     8.391709  3.279704  2.287917
  C     7.539226 -1.514066  1.674033
  C     7.240379  2.617663  1.733541
  N     9.748034 -0.771183  1.577485
  N     9.367673  3.557157  1.452252
  N     7.681488 -1.646608  0.390554
  N     7.396625  2.301975  0.461348
  N     7.064715 -1.434492  4.176864
  N     6.791835  2.808505  4.252396
  S     6.269327 -1.738466  2.789762
  S     5.987868  2.209352  2.961814
  S     9.269246 -1.218143  0.077735
  S     8.838168  2.964079 -0.036270
  S     8.585875 -0.779623  4.041487
  S     8.283962  3.520834  4.027624
