16  
    
  C     8.975825 -0.336555  2.588670
  C     8.552599  3.431586  2.554621
  C     7.730170 -0.627291  1.891278
  C     7.407119  2.894979  1.966621
  N     9.945007 -0.042396  1.715595
  N     9.476631  3.762417  1.679538
  N     7.808474 -0.765476  0.537588
  N     7.410686  2.845815  0.637204
  N     7.170548 -0.621832  4.452755
  N     7.045759  2.709493  4.484151
  S     6.388985 -0.939569  2.978283
  S     6.235792  2.388830  3.091273
  S     9.358947 -0.351832  0.174905
  S     8.866227  3.406427  0.144832
  S     8.803359 -0.200551  4.367123
  S     8.581350  3.268144  4.297663
