16  
    
  C     7.329207 -1.605528  2.141331
  C     7.442090  2.392609  2.150351
  C     6.161294 -2.159059  1.487368
  C     6.189192  2.036938  1.533252
  N     8.380681 -1.361096  1.356769
  N     8.451065  2.483562  1.308720
  N     6.246588 -2.183626  0.169482
  N     6.211914  1.878463  0.210089
  N     5.527039 -2.069889  4.047091
  N     5.870726  2.077595  4.086384
  S     4.824664 -2.353418  2.616547
  S     4.975805  1.793604  2.732942
  S     7.791939 -1.632491 -0.196220
  S     7.818575  2.264354 -0.250445
  S     7.142399 -1.703682  3.932506
  S     7.419251  2.695817  3.827631
