16  
    
  C     8.072911 -0.754756  2.411977
  C     8.219350  3.000694  2.331513
  C     6.923192 -1.265538  1.746533
  C     7.037907  2.477918  1.785240
  N     9.109401 -0.408201  1.629987
  N     9.222680  3.081922  1.467243
  N     7.156842 -1.593513  0.480208
  N     7.144642  2.278662  0.457048
  N     6.178244 -1.162482  4.290685
  N     6.572226  2.861361  4.299484
  S     5.542184 -1.538659  2.854531
  S     5.724430  2.386296  2.931107
  S     8.696743 -1.016630  0.124068
  S     8.646869  2.612399 -0.027829
  S     7.716286 -0.497201  4.128574
  S     8.219820  3.323340  3.991924
