16  
    
  C    10.137187  0.578788  2.640113
  C    10.681993  4.234453  2.875474
  C     9.028768 -0.083349  2.033522
  C     9.393780  3.913149  2.288173
  N    11.191895  0.661465  1.828891
  N    11.623257  4.272713  1.954457
  N     9.165707 -0.353293  0.726173
  N     9.378358  3.617654  0.997850
  N     8.323358  0.540871  4.388423
  N     8.975694  4.165177  4.764125
  S     7.724504 -0.306061  3.107202
  S     8.172017  3.708228  3.393067
  S    10.744814  0.062450  0.340525
  S    10.977559  3.792294  0.497775
  S     9.968518  0.859726  4.344760
  S    10.564363  4.678883  4.603502
