16  
    
  C     9.546807 -0.469695  2.768906
  C     9.353584  3.166109  2.580599
  C     8.309286 -0.815939  2.107594
  C     8.171738  3.050890  1.803889
  N    10.667001 -0.560721  1.969025
  N    10.433436  3.255647  1.826437
  N     8.421423 -1.011066  0.762082
  N     8.343065  2.979388  0.467744
  N     7.814054 -0.600028  4.660974
  N     7.613543  3.071772  4.371184
  S     7.043823 -1.002764  3.246004
  S     6.788321  3.002981  2.927090
  S    10.099368 -0.934087  0.472923
  S     9.996931  3.113229  0.225101
  S     9.469309 -0.450358  4.498916
  S     9.289189  3.473385  4.346406
