16  
    
  C    11.725803  1.077170  2.831994
  C    11.770923  4.860038  3.156319
  C    10.552095  0.356992  2.350278
  C    10.578069  4.359144  2.483234
  N    12.600326  1.458320  1.888186
  N    12.743607  5.173921  2.372484
  N    10.517051  0.313922  1.012474
  N    10.683442  4.208342  1.157389
  N    10.115481  0.882180  4.863684
  N     9.907494  4.665057  4.937262
  S     9.267412  0.210861  3.603308
  S     9.268196  4.057676  3.504089
  S    11.879314  1.108716  0.423820
  S    12.213978  4.824434  0.830340
  S    11.653436  1.350727  4.544498
  S    11.499983  5.262304  4.861202
