16  
    
  C     5.649833 -2.055197  1.752669
  C     5.220332  1.403644  1.724350
  C     4.422059 -2.556452  1.149505
  C     4.081357  0.802323  1.123005
  N     6.623090 -1.777432  0.912314
  N     6.024531  1.967308  0.835219
  N     4.496647 -2.770440 -0.138872
  N     4.180311  0.650488 -0.210626
  N     4.002224 -2.393958  3.734640
  N     3.606080  1.026791  3.659938
  S     3.149819 -2.714714  2.335239
  S     2.765780  0.545513  2.294321
  S     6.058666 -2.403367 -0.548370
  S     5.550100  1.450035 -0.633341
  S     5.554075 -1.801377  3.491126
  S     5.147065  1.488539  3.433533
