16  
    
  C     7.227066 -1.332649  2.293366
  C     7.791199  2.877750  2.351982
  C     6.102231 -1.791888  1.519856
  C     6.661292  2.291932  1.706521
  N     8.300725 -0.921420  1.593217
  N     8.845366  3.058038  1.548990
  N     6.339462 -1.811744  0.223572
  N     6.839323  2.133294  0.400718
  N     5.218104 -1.860692  3.960495
  N     6.016162  2.481182  4.100562
  S     4.741375 -2.429728  2.484320
  S     5.278368  2.070137  2.708593
  S     7.863268 -1.185822 -0.001769
  S     8.297108  2.639790 -0.007683
  S     6.772937 -1.263113  4.042504
  S     7.587602  2.993622  4.023960
