16  
    
  C    12.039814  1.275650  3.299914
  C    11.796698  4.797940  3.612792
  C    10.846977  0.639594  2.688612
  C    10.634573  4.351724  2.848313
  N    13.069944  1.548652  2.503096
  N    12.866997  4.893842  2.880675
  N    11.036098  0.501940  1.382976
  N    10.884173  4.258668  1.545547
  N    10.083714  1.109572  5.141372
  N     9.919984  4.645180  5.308558
  S     9.453160  0.502358  3.715845
  S     9.236816  4.199578  3.867406
  S    12.556659  0.970302  1.016091
  S    12.424312  4.690139  1.319175
  S    11.700541  1.495703  4.941832
  S    11.523871  5.077263  5.301168
