16  
    
  C    12.516584  1.479832  3.613524
  C    12.344821  5.201054  3.445101
  C    11.330710  0.977140  3.067865
  C    11.100581  4.751559  2.812748
  N    13.510328  1.813620  2.793090
  N    13.430916  5.219935  2.591833
  N    11.354543  0.879001  1.729256
  N    11.224978  4.585707  1.499780
  N    10.826149  1.469947  5.501455
  N    10.700864  4.921955  5.379873
  S    10.117642  0.810817  4.213265
  S     9.786549  4.596459  4.025472
  S    12.900581  1.413487  1.297314
  S    12.762212  4.845477  1.084847
  S    12.428217  1.717425  5.389052
  S    12.252914  5.441427  5.124152
