16  
    
  C     7.304238 -1.512174  2.174838
  C     7.583271  2.517950  2.158037
  C     6.146439 -2.034213  1.448321
  C     6.349490  2.050624  1.596545
  N     8.342811 -1.277894  1.365264
  N     8.527879  2.867643  1.292052
  N     6.188622 -1.971394  0.107754
  N     6.364654  1.995700  0.276086
  N     5.611736 -2.122518  3.969766
  N     5.912187  2.195393  4.117554
  S     4.894249 -2.585862  2.543857
  S     5.038940  1.945631  2.723499
  S     7.772265 -1.542457 -0.169513
  S     7.891791  2.458297 -0.264540
  S     7.174085 -1.590921  3.857943
  S     7.481365  2.665070  3.887586
