16  
    
  C     8.721246 -0.197731  2.497110
  C     8.559699  3.144886  2.559559
  C     7.550629 -0.680014  1.815794
  C     7.410345  2.655121  1.868745
  N     9.710965  0.165254  1.693812
  N     9.640953  3.267856  1.806010
  N     7.707598 -0.825419  0.481225
  N     7.592312  2.451568  0.558887
  N     7.015607 -0.770930  4.445513
  N     6.735092  2.879234  4.357944
  S     6.256479 -0.959398  2.986347
  S     6.001029  2.417195  2.920643
  S     9.242096 -0.247723  0.131875
  S     9.204991  2.811555  0.249218
  S     8.577116 -0.099745  4.271184
  S     8.348225  3.268192  4.261644
