16  
    
  C    11.232542  0.433313  3.028021
  C    11.118435  4.480343  3.418583
  C    10.128549 -0.213450  2.358614
  C     9.827793  4.227214  2.838553
  N    12.342306  0.567394  2.281776
  N    12.136984  4.400850  2.597643
  N    10.408370 -0.424347  1.064735
  N     9.875402  3.960760  1.527326
  N     9.425730  0.371966  4.771321
  N     9.458754  4.146750  5.322853
  S     8.746537 -0.330347  3.421851
  S     8.534399  4.349689  3.984593
  S    11.931365  0.123805  0.748316
  S    11.437929  4.019348  1.092931
  S    10.939774  1.020672  4.618861
  S    11.090169  4.608544  5.099886
