16  
    
  C     5.749511 -2.143370  1.981586
  C     6.010045  1.749700  2.064451
  C     4.547443 -2.709577  1.358327
  C     4.757064  1.341701  1.436084
  N     6.715779 -1.743921  1.135653
  N     7.014518  1.963844  1.202975
  N     4.730229 -2.927264  0.060460
  N     4.890980  1.219274  0.133768
  N     3.890781 -2.475538  3.886070
  N     4.198886  1.661873  3.930892
  S     3.236332 -3.031668  2.426611
  S     3.369058  1.358050  2.496266
  S     6.230270 -2.402143 -0.337214
  S     6.442662  1.530399 -0.294984
  S     5.472455 -1.827606  3.695399
  S     5.833701  1.885930  3.794346
