16  
    
  C     6.276398 -1.572169  1.560149
  C     6.398819  2.132472  1.892881
  C     5.113601 -2.185371  0.928682
  C     5.235457  1.570973  1.233370
  N     7.356277 -1.401040  0.774194
  N     7.390107  2.389705  1.025137
  N     5.281203 -2.358838 -0.388955
  N     5.468368  1.225053 -0.040312
  N     4.440772 -1.807010  3.355868
  N     4.643964  1.806486  3.725976
  S     3.806690 -2.533571  1.997440
  S     3.866466  1.369779  2.339492
  S     6.892511 -1.984424 -0.728162
  S     6.959714  1.720641 -0.385847
  S     5.981753 -1.161430  3.233550
  S     6.144227  2.427591  3.570382
