16  
    
  C     6.001334 -2.364108  1.825871
  C     6.100368  1.566625  1.876752
  C     4.736572 -2.519641  1.147659
  C     4.713289  1.622805  1.357797
  N     7.007036 -2.212062  0.949268
  N     7.084468  1.416778  0.978894
  N     4.820367 -2.687129 -0.177131
  N     4.668958  1.505504  0.040578
  N     4.177140 -2.149793  3.617255
  N     4.517450  2.221204  3.841823
  S     3.375062 -2.490519  2.226144
  S     3.499241  2.025686  2.496271
  S     6.411893 -2.495909 -0.555252
  S     6.271615  1.341834 -0.518968
  S     5.844065 -2.092654  3.520257
  S     6.144598  1.907125  3.580615
