16  
    
  C     7.075438 -1.686612  1.623053
  C     6.852030  2.080734  1.921899
  C     5.869652 -2.112969  1.003364
  C     5.611931  1.632809  1.328841
  N     8.113774 -1.577537  0.787212
  N     7.826583  2.373536  1.095386
  N     5.978902 -2.416089 -0.317974
  N     5.641164  1.467252  0.027981
  N     5.369896 -1.773507  3.551632
  N     5.187205  1.690042  3.842315
  S     4.585779 -2.382211  2.214700
  S     4.426814  1.143368  2.457723
  S     7.500136 -1.986361 -0.731073
  S     7.136731  2.082105 -0.482620
  S     6.986072 -1.546940  3.318851
  S     6.733256  2.230452  3.644971
