16  
    
  C     4.728858 -2.528701  1.612939
  C     5.091278  1.344205  1.859789
  C     3.460094 -2.680969  0.915006
  C     3.859187  1.021370  1.234068
  N     5.782976 -2.634524  0.835673
  N     6.090974  1.631966  1.024261
  N     3.569095 -3.008908 -0.325394
  N     3.882357  1.077735 -0.102768
  N     2.889830 -2.399260  3.433070
  N     3.344243  0.878748  3.795163
  S     2.118570 -2.869090  2.034733
  S     2.478609  0.744353  2.318946
  S     5.200629 -2.900694 -0.717352
  S     5.384376  1.598955 -0.484319
  S     4.565734 -2.255205  3.302101
  S     4.897028  1.451377  3.570338
