16  
    
  C    12.537923  1.593986  3.384196
  C    12.902685  5.447058  3.588275
  C    11.379298  0.898407  2.741992
  C    11.823223  4.879095  2.861346
  N    13.454207  1.876548  2.484398
  N    13.968403  5.794950  2.904547
  N    11.458200  0.796942  1.425008
  N    12.070143  4.813828  1.585887
  N    10.911509  1.017117  5.252716
  N    10.860395  4.943079  5.161104
  S    10.089879  0.578057  3.867389
  S    10.316180  4.656827  3.681355
  S    12.864423  1.459608  0.960552
  S    13.583441  5.430304  1.292131
  S    12.419766  1.732944  5.104343
  S    12.359441  5.556666  5.327808
