16  
    
  C    10.148170  0.601358  2.902944
  C    10.743152  4.309833  2.899104
  C     9.013912 -0.064879  2.253666
  C     9.506611  4.136161  2.129693
  N    11.087104  1.012346  2.062496
  N    11.812896  4.627868  2.165691
  N     9.069223  0.004871  0.915322
  N     9.715019  4.205527  0.797683
  N     8.527912  0.108635  4.800392
  N     8.941421  3.848352  4.644250
  S     7.835078 -0.609214  3.449356
  S     8.137004  3.678306  3.189529
  S    10.534361  0.639381  0.568456
  S    11.356007  4.578813  0.628317
  S    10.133629  0.349942  4.630725
  S    10.535630  4.266059  4.555886
