16  
    
  C     5.861740 -2.363378  2.050826
  C     5.796813  1.346462  1.800147
  C     4.598623 -2.589545  1.359068
  C     4.629261  0.824227  1.119068
  N     6.849955 -2.056512  1.247885
  N     6.833844  1.613951  0.973878
  N     4.651340 -2.633760  0.034897
  N     4.833300  0.731581 -0.188538
  N     4.082447 -2.466792  3.977248
  N     3.980153  0.930511  3.641964
  S     3.258495 -2.643551  2.492328
  S     3.270289  0.484765  2.225426
  S     6.277795 -2.365681 -0.303929
  S     6.382165  1.130654 -0.516723
  S     5.704716 -2.058190  3.710548
  S     5.583219  1.391865  3.513368
