16  
    
  C     9.357111 -0.518334  2.682904
  C     9.308889  3.268760  2.549493
  C     8.142004 -1.084046  2.090938
  C     8.045544  2.928867  1.911661
  N    10.354393 -0.469391  1.837615
  N    10.325947  3.307323  1.674181
  N     8.259903 -1.267838  0.782361
  N     8.152393  2.600789  0.618807
  N     7.675212 -0.634704  4.611584
  N     7.496798  3.387889  4.416708
  S     6.830792 -1.011097  3.218919
  S     6.689204  2.926169  2.991867
  S     9.794634 -0.919029  0.350137
  S     9.746414  2.812264  0.232230
  S     9.243857 -0.176697  4.377488
  S     9.182406  3.515329  4.358503
