16  
    
  C     8.706320 -0.913083  2.332340
  C     8.389968  3.280535  2.300390
  C     7.536163 -1.505057  1.671115
  C     7.237494  2.615926  1.738470
  N     9.750283 -0.775290  1.582201
  N     9.362845  3.551665  1.464231
  N     7.680154 -1.643836  0.385134
  N     7.397784  2.303934  0.462652
  N     7.066342 -1.425521  4.177799
  N     6.795544  2.809041  4.251197
  S     6.270403 -1.733612  2.781550
  S     5.991593  2.209389  2.961646
  S     9.269903 -1.218078  0.079735
  S     8.839976  2.968624 -0.037419
  S     8.587810 -0.775148  4.044015
  S     8.286883  3.526725  4.036695
