16  
    
  C    10.971387  0.600994  3.277273
  C    11.188619  4.218772  3.163824
  C     9.838184  0.195911  2.551266
  C     9.961314  3.762009  2.583315
  N    12.038550  0.843006  2.499800
  N    12.227493  4.362544  2.314544
  N    10.055038  0.087942  1.232365
  N    10.002208  3.760355  1.270266
  N     9.275244 -0.070090  5.050314
  N     9.575961  3.791136  5.123618
  S     8.551866 -0.279278  3.586584
  S     8.711934  3.468264  3.753070
  S    11.596837  0.537666  0.944703
  S    11.508871  4.152373  0.760331
  S    10.753460  0.684555  5.038914
  S    11.130777  4.359036  4.937678
