16  
    
  C    11.269176  1.004218  3.329205
  C    11.623002  4.567941  2.843835
  C     9.987437  0.669060  2.799196
  C    10.391335  4.197917  2.204753
  N    12.285010  1.089814  2.461491
  N    12.572293  4.870150  1.994193
  N    10.031922  0.414363  1.510053
  N    10.454461  4.129253  0.872883
  N     9.603218  0.984200  5.235295
  N     9.883117  4.542568  4.742030
  S     8.683260  0.432478  3.903773
  S     9.128289  3.965806  3.384813
  S    11.565662  0.697611  0.978388
  S    12.016699  4.528361  0.439034
  S    11.258182  1.127113  5.043452
  S    11.508413  4.803478  4.589594
