16  
    
  C    11.611083  1.060409  3.230209
  C    12.037378  4.924092  3.273942
  C    10.377072  0.631432  2.556299
  C    10.841113  4.322438  2.730293
  N    12.669809  1.153841  2.464726
  N    12.909926  5.115522  2.281263
  N    10.584819  0.357392  1.276371
  N    10.869646  4.018130  1.469192
  N     9.875379  1.185825  5.024791
  N    10.232178  5.239881  5.057578
  S     9.121139  0.506149  3.719698
  S     9.503027  4.286524  3.872296
  S    12.163445  0.776094  0.930645
  S    12.319283  4.492340  0.901609
  S    11.545791  1.268498  5.017035
  S    11.869056  5.583987  4.816661
