16  
    
  C    10.057737 -0.168403  2.733135
  C    10.106828  3.860721  2.677136
  C     8.771123 -0.438244  2.111746
  C     9.072659  2.935266  2.336964
  N    11.063365  0.066810  1.920771
  N    10.969546  4.195417  1.712265
  N     8.835255 -0.616760  0.821103
  N     9.037700  2.591912  1.049268
  N     8.246585 -0.302397  4.655797
  N     8.450852  3.447029  4.755855
  S     7.481060 -0.753230  3.264374
  S     7.813916  2.623966  3.448011
  S    10.432869 -0.259694  0.387607
  S    10.394731  3.360860  0.391448
  S     9.898945 -0.070544  4.440947
  S     9.850375  4.297348  4.407048
