16  
    
  C     4.697550 -2.563126  1.559517
  C     5.254211  1.636176  1.823627
  C     3.497067 -2.966057  0.874205
  C     3.933106  1.394426  1.330969
  N     5.696577 -2.136163  0.715259
  N     6.201040  1.609517  0.911296
  N     3.558721 -2.921539 -0.480431
  N     3.866175  1.179125  0.030133
  N     2.874187 -3.010970  3.351951
  N     3.634201  1.602873  3.885554
  S     2.132346 -3.430580  1.905184
  S     2.665962  1.330486  2.532091
  S     5.040744 -2.282300 -0.804760
  S     5.460370  1.279333 -0.547508
  S     4.388738 -2.389875  3.261685
  S     5.255620  1.771811  3.528613
