16  
    
  C     9.188175 -0.445228  2.532907
  C     9.345412  3.147667  2.603288
  C     8.023104 -1.105860  2.056174
  C     8.055288  2.771569  2.037070
  N    10.219432 -0.332519  1.659305
  N    10.373698  3.264029  1.746110
  N     8.133232 -1.393004  0.760005
  N     8.189375  2.426307  0.753693
  N     7.504789 -0.425041  4.484638
  N     7.583226  3.266306  4.566454
  S     6.664835 -1.131403  3.174304
  S     6.723524  2.974958  3.185818
  S     9.599575 -0.903154  0.226516
  S     9.716664  2.796275  0.337320
  S     9.099229  0.001481  4.199429
  S     9.179018  3.524395  4.215643
