16  
    
  C     6.263669 -1.789127  2.060579
  C     6.521758  2.193048  2.095383
  C     5.111048 -2.342337  1.338022
  C     5.356222  1.622505  1.441292
  N     7.271016 -1.448443  1.309628
  N     7.530379  2.329820  1.220497
  N     5.323960 -2.495266  0.061791
  N     5.461557  1.453761  0.113803
  N     4.407865 -2.097461  3.814775
  N     4.775454  1.890783  3.962282
  S     3.835925 -2.766464  2.442399
  S     3.980414  1.485889  2.512345
  S     6.918484 -1.868083 -0.265895
  S     6.989292  1.876162 -0.258712
  S     5.960361 -1.516324  3.748427
  S     6.378991  2.358112  3.823925
