16  
    
  C    10.261438  0.576915  3.015222
  C    10.598296  4.552981  2.891098
  C     9.101498 -0.002230  2.354720
  C     9.339897  4.234552  2.208220
  N    11.205113  0.988834  2.162195
  N    11.617453  4.855576  2.099104
  N     9.260007 -0.182290  1.033355
  N     9.469008  4.168498  0.891856
  N     8.709107  0.056224  4.909543
  N     9.113500  3.871657  4.814081
  S     7.942117 -0.532722  3.533628
  S     8.159279  3.932746  3.449998
  S    10.731193  0.565566  0.636044
  S    11.075927  4.475621  0.529643
  S    10.274279  0.599821  4.732055
  S    10.730596  4.287440  4.608203
