16  
    
  C     4.562267 -2.596102  1.531572
  C     5.308338  1.545887  1.787105
  C     3.369010 -2.984439  0.841038
  C     3.998036  1.230558  1.238858
  N     5.587463 -2.261215  0.737601
  N     6.216796  1.674776  0.826165
  N     3.417165 -2.725607 -0.471040
  N     3.942036  1.112038 -0.083348
  N     2.806547 -2.903135  3.334422
  N     3.627495  1.612080  3.773818
  S     2.097613 -3.333339  1.905788
  S     2.703654  1.272603  2.460984
  S     5.004915 -2.340841 -0.814482
  S     5.454612  1.336693 -0.643976
  S     4.442986 -2.509455  3.224992
  S     5.239569  1.774156  3.611727
