16  
    
  C     7.994985 -0.726773  2.405478
  C     8.326221  3.040092  2.321372
  C     6.803414 -1.218471  1.668719
  C     7.050037  2.610083  1.858290
  N     9.006649 -0.419225  1.629861
  N     9.279235  2.988441  1.407296
  N     7.026705 -1.419680  0.405521
  N     7.086767  2.310690  0.567264
  N     6.079972 -1.109601  4.091778
  N     6.757614  2.762429  4.374568
  S     5.508004 -1.778219  2.672945
  S     5.774486  2.680677  3.035917
  S     8.539961 -0.860423  0.119929
  S     8.547577  2.544210 -0.036990
  S     7.708844 -0.502433  4.071325
  S     8.350230  3.230048  4.032745
