16  
    
  C     5.373235 -2.128878  1.524559
  C     5.057517  1.825038  1.565098
  C     4.264473 -2.792925  0.859884
  C     4.030496  0.882554  1.122010
  N     6.521782 -1.986371  0.795448
  N     6.183354  1.820982  0.833317
  N     4.504831 -3.083142 -0.436238
  N     4.420158  0.250731  0.025307
  N     3.539811 -2.431657  3.251076
  N     3.074291  1.868721  3.253609
  S     2.852595 -2.913476  1.835519
  S     2.557194  0.874376  2.039811
  S     6.003276 -2.458926 -0.769571
  S     5.897057  0.792640 -0.421369
  S     5.052346 -1.834688  3.171385
  S     4.641733  2.351920  3.192915
