16  
    
  C     9.044124 -0.491580  2.467894
  C     9.540743  3.475574  2.690132
  C     7.916371 -0.928763  1.668773
  C     8.237789  3.186820  2.100800
  N    10.185991 -0.441673  1.774419
  N    10.598446  3.416035  1.870489
  N     8.203744 -1.191095  0.396190
  N     8.293524  2.866602  0.791726
  N     7.081368 -0.579185  4.086108
  N     7.820550  3.778457  4.613501
  S     6.423635 -1.047884  2.623266
  S     6.992169  3.384299  3.260520
  S     9.840589 -0.903753  0.203768
  S     9.966512  2.872980  0.467117
  S     8.691513 -0.190031  4.123233
  S     9.453030  3.869299  4.380684
