16  
    
  C     5.149338 -2.245771  1.525682
  C     4.990808  1.529287  2.039287
  C     3.996142 -2.957702  0.958249
  C     3.857864  0.892868  1.400866
  N     6.236515 -2.221736  0.758333
  N     6.060300  1.623459  1.266158
  N     4.140160 -3.309265 -0.290721
  N     4.073502  0.588736  0.110520
  N     3.407548 -2.327325  3.396881
  N     3.087174  1.427156  3.737306
  S     2.681810 -3.061351  2.101020
  S     2.423941  0.814322  2.345530
  S     5.710127 -2.898700 -0.699722
  S     5.629332  1.040648 -0.237526
  S     4.991462 -1.795397  3.229271
  S     4.489918  2.163039  3.618416
