16  
    
  C     7.175366 -1.304505  2.314466
  C     7.778048  2.836555  2.350397
  C     6.117521 -1.858777  1.501999
  C     6.608137  2.325380  1.675871
  N     8.189852 -0.794007  1.623710
  N     8.843342  3.080477  1.580002
  N     6.403387 -1.980822  0.206690
  N     6.735087  2.294555  0.354611
  N     5.372426 -2.046139  3.960986
  N     6.006105  2.459352  4.151543
  S     4.811967 -2.561589  2.433023
  S     5.246137  2.031608  2.721571
  S     7.890049 -1.274521  0.076926
  S     8.340094  2.682535 -0.015088
  S     6.830425 -1.339873  3.975724
  S     7.542724  2.939150  4.052114
