16  
    
  C     3.330563 -3.054919  1.109101
  C     3.675297  0.629002  1.376071
  C     2.123636 -3.371680  0.424949
  C     2.499938  0.168966  0.690354
  N     4.402100 -2.933800  0.313977
  N     4.710779  0.767816  0.557313
  N     2.262084 -3.551312 -0.905032
  N     2.628052 -0.044005 -0.620126
  N     1.550916 -3.414499  3.019490
  N     1.820293  0.397848  3.189802
  S     0.782908 -3.534089  1.554615
  S     1.035042  0.129995  1.728413
  S     3.856700 -3.214369 -1.232100
  S     4.241163  0.456382 -0.972076
  S     3.204687 -3.205832  2.831242
  S     3.467398  0.761223  3.082524
