16  
    
  C     4.640173 -2.253654  1.617078
  C     4.886820  1.446233  1.862224
  C     3.433904 -2.585230  0.914701
  C     3.586671  1.418538  1.233660
  N     5.708453 -2.096484  0.840064
  N     5.909701  1.371089  1.014893
  N     3.568907 -2.710734 -0.401126
  N     3.624810  1.172418 -0.079975
  N     2.827094 -2.353880  3.417216
  N     3.098802  1.159601  3.765562
  S     2.122608 -2.935428  1.995187
  S     2.272513  1.365836  2.312180
  S     5.162993 -2.232413 -0.736178
  S     5.183840  1.254342 -0.482732
  S     4.440868 -1.961200  3.299807
  S     4.773511  1.666170  3.627958
