16  
    
  C    12.143850  1.359024  3.579461
  C    11.832414  4.941819  3.773548
  C    10.922856  0.793936  2.924335
  C    10.682550  4.285000  3.181210
  N    13.017643  1.899171  2.736779
  N    12.773470  5.270725  2.839135
  N    10.984537  0.856252  1.601887
  N    10.698284  4.240057  1.864679
  N    10.432389  0.631372  5.414277
  N    10.285665  4.362738  5.709442
  S     9.676884  0.205700  4.007517
  S     9.513068  3.881954  4.278702
  S    12.435650  1.531808  1.172360
  S    12.123114  4.953338  1.390247
  S    11.915103  1.344749  5.256878
  S    11.817942  5.028934  5.531523
