16  
    
  C     7.045201 -1.592906  2.282254
  C     7.092161  2.283570  2.094570
  C     5.839528 -1.821678  1.562781
  C     5.913832  1.841517  1.390887
  N     8.117840 -1.387377  1.498725
  N     8.165884  2.377519  1.299473
  N     5.975909 -1.859700  0.217627
  N     6.145971  1.532321  0.138815
  N     5.243107 -1.701382  4.027825
  N     5.184218  2.005822  3.841364
  S     4.435039 -2.118202  2.554412
  S     4.490700  1.647576  2.369962
  S     7.578058 -1.436015 -0.031441
  S     7.679001  1.906153 -0.181454
  S     6.863280 -1.429413  3.941119
  S     6.746434  2.507928  3.827770
