16  
    
  C    10.065093  0.030304  2.690353
  C     9.877272  3.968304  2.744041
  C     8.884832 -0.526818  2.093782
  C     8.935550  3.038795  2.226685
  N    11.025950  0.257096  1.767712
  N    10.870511  4.314414  1.922185
  N     8.940655 -0.675351  0.760585
  N     9.270957  2.643498  1.005422
  N     8.334301 -0.422190  4.573534
  N     8.251253  3.479681  4.715370
  S     7.551187 -0.790842  3.132058
  S     7.812587  2.473797  3.438612
  S    10.433219 -0.225036  0.294268
  S    10.649327  3.347233  0.572069
  S     9.827837  0.162097  4.377422
  S     9.484395  4.557586  4.297567
