16  
    
  C     3.456126 -3.092894  1.029574
  C     3.719968  0.550413  1.408714
  C     2.179337 -3.466890  0.441893
  C     2.505590  0.150758  0.692155
  N     4.431342 -2.838284  0.159352
  N     4.749443  0.838005  0.638105
  N     2.220459 -3.577344 -0.875974
  N     2.718944  0.015384 -0.614323
  N     1.664286 -3.312885  2.940390
  N     1.955889  0.348578  3.177107
  S     0.848087 -3.620131  1.524126
  S     1.127353  0.119974  1.746816
  S     3.829876 -3.361409 -1.326346
  S     4.258175  0.442582 -0.932755
  S     3.247455 -3.005411  2.829213
  S     3.541622  0.874547  3.109112
