16  
    
  C     9.797489 -0.205445  2.546432
  C     9.746006  3.664190  2.536996
  C     8.564739 -0.658847  2.037867
  C     8.539233  3.072602  1.939790
  N    10.693129  0.175062  1.604057
  N    10.704217  3.999167  1.693384
  N     8.410086 -0.632131  0.680104
  N     8.622945  3.041193  0.612613
  N     8.285390 -0.644384  4.560593
  N     8.298659  2.995225  4.504089
  S     7.318611 -0.943995  3.246745
  S     7.321872  2.648689  3.159710
  S     9.897568 -0.018229  0.133462
  S    10.113875  3.675679  0.136805
  S     9.815800 -0.050498  4.253178
  S     9.699673  3.902772  4.247143
