16  
    
  C    12.206753  1.601841  3.272499
  C    12.277022  5.293279  3.644025
  C    11.094825  1.055969  2.600301
  C    11.188385  4.703612  2.869614
  N    13.317928  1.855717  2.602128
  N    13.301633  5.644038  2.898151
  N    11.365775  0.762745  1.350781
  N    11.460147  4.529227  1.581339
  N    10.315551  1.298118  5.054742
  N    10.544409  4.821220  5.419527
  S     9.639267  0.794507  3.552593
  S     9.825133  4.357793  4.024721
  S    12.878152  1.372686  1.015063
  S    12.958989  5.127942  1.349115
  S    11.947574  1.857188  4.993071
  S    11.971868  5.664094  5.298609
