16  
    
  C    10.978599  0.515268  3.001723
  C    10.765152  4.499032  2.803762
  C     9.688776  0.209479  2.365075
  C     9.752322  3.646437  2.168952
  N    12.018432  0.526532  2.139253
  N    11.856861  4.574855  2.084739
  N     9.727297 -0.086521  1.053345
  N    10.050123  3.201298  0.934737
  N     9.186522  0.508073  4.868291
  N     8.869026  4.212226  4.540175
  S     8.347354  0.132443  3.471632
  S     8.366261  3.401132  3.191428
  S    11.348378  0.090700  0.640948
  S    11.596644  3.786416  0.617303
  S    10.693578  1.136875  4.614917
  S    10.363108  4.930603  4.439685
