16  
    
  C    10.922438  0.588100  2.990518
  C    10.866899  4.327230  2.858669
  C     9.695075  0.140934  2.350535
  C     9.804867  3.598632  2.172518
  N    11.982490  0.485677  2.200555
  N    11.867596  4.653360  2.044169
  N     9.825128 -0.099418  1.048187
  N    10.153797  3.186727  0.944945
  N     9.280769  0.447995  4.905032
  N     8.996822  4.127063  4.595537
  S     8.451790 -0.003889  3.542660
  S     8.306080  3.499428  3.190995
  S    11.443032  0.153564  0.690399
  S    11.659592  3.878434  0.655843
  S    10.859662  0.967265  4.658551
  S    10.515026  4.773250  4.439883
