16  
    
  C     4.247210 -2.453589  1.767257
  C     3.999502  1.324230  1.386374
  C     3.067225 -2.972934  1.168045
  C     2.891220  0.654267  0.781813
  N     5.304881 -2.320413  0.951340
  N     5.014210  1.410149  0.550062
  N     3.181179 -3.208457 -0.161344
  N     3.028472  0.221541 -0.453390
  N     2.578864 -2.721728  3.666476
  N     2.308782  0.989670  3.229237
  S     1.883878 -3.499170  2.350787
  S     1.692784  0.187574  1.960385
  S     4.772898 -2.679546 -0.575479
  S     4.524080  0.727850 -0.909710
  S     4.083497 -2.057574  3.429616
  S     3.828138  1.714789  3.047324
