16  
    
  C     9.871936 -0.186852  2.920400
  C    10.184855  3.522079  2.814885
  C     8.737510 -0.608501  2.201021
  C     8.870433  3.444052  2.255087
  N    10.971286  0.112992  2.187651
  N    11.100879  3.611582  1.868991
  N     8.909917 -0.721910  0.862770
  N     8.702494  3.398111  0.937736
  N     8.172799 -0.763889  4.712547
  N     8.586923  3.275419  4.853263
  S     7.382334 -0.861220  3.251805
  S     7.625399  3.358370  3.450920
  S    10.534785 -0.284854  0.623017
  S    10.339766  3.592311  0.393364
  S     9.722109 -0.175536  4.673892
  S    10.247168  3.706306  4.613319
