16  
    
  C    10.355001  0.499568  2.989278
  C    10.724697  4.574070  2.909508
  C     9.178249 -0.078413  2.391283
  C     9.448744  4.252940  2.289612
  N    11.278305  0.952655  2.109462
  N    11.774020  4.736306  2.109136
  N     9.217269  0.012504  1.065873
  N     9.546589  4.264268  0.976813
  N     8.672544 -0.088333  4.894096
  N     9.067546  3.700636  4.751547
  S     7.929347 -0.596700  3.480641
  S     8.158634  3.890679  3.393664
  S    10.624028  0.634483  0.609663
  S    11.134808  4.611658  0.569114
  S    10.179305  0.554681  4.693359
  S    10.639844  4.198937  4.585843
