16  
    
  C    10.166105  0.605930  2.694724
  C    10.745417  4.307450  2.767979
  C     8.950921  0.100738  2.108317
  C     9.463150  3.841212  2.256028
  N    11.207113  0.744817  1.855401
  N    11.797188  4.258529  1.947891
  N     9.042184 -0.165988  0.807772
  N     9.541470  3.712540  0.933095
  N     8.364473  0.359124  4.572099
  N     8.954446  4.161824  4.744050
  S     7.734513 -0.440970  3.223236
  S     8.162296  3.643216  3.394747
  S    10.643382  0.142097  0.378285
  S    11.057624  3.945030  0.427700
  S     9.965095  0.809903  4.406064
  S    10.544793  4.635793  4.467270
