16  
    
  C    10.133719  0.569619  2.622635
  C    10.640029  4.232213  2.874413
  C     9.039948 -0.112739  2.030616
  C     9.380142  3.890461  2.281763
  N    11.200715  0.645366  1.835409
  N    11.611449  4.280257  1.973127
  N     9.176352 -0.386414  0.729555
  N     9.379623  3.607116  0.997937
  N     8.325886  0.552128  4.382090
  N     8.973021  4.159442  4.775412
  S     7.707546 -0.288853  3.094528
  S     8.171956  3.728423  3.407252
  S    10.766370  0.060545  0.324773
  S    10.969839  3.778488  0.506318
  S     9.970673  0.868465  4.333573
  S    10.564339  4.677664  4.613043
