16  
    
  C     7.139653 -1.637589  1.993300
  C     7.056272  2.092668  1.979976
  C     5.948040 -1.973552  1.235439
  C     5.860593  1.706777  1.322415
  N     8.189375 -1.355879  1.233180
  N     8.098184  2.324936  1.155203
  N     6.139010 -2.169440 -0.064186
  N     5.973495  1.656659 -0.001627
  N     5.236517 -1.754356  3.720044
  N     5.227813  1.780151  3.814586
  S     4.546304 -2.129211  2.279964
  S     4.472414  1.519935  2.375265
  S     7.769147 -1.806675 -0.298154
  S     7.558504  1.983064 -0.359049
  S     6.854364 -1.357214  3.660872
  S     6.813976  2.172974  3.744781
