16  
    
  C    11.964779  1.626881  3.536847
  C    11.966319  5.060627  3.761906
  C    10.941168  0.759611  2.959524
  C    10.707575  4.585931  3.221678
  N    12.900762  2.116809  2.700448
  N    12.882022  5.384367  2.891117
  N    11.087638  0.717974  1.652648
  N    10.642587  4.549241  1.876651
  N    10.445214  0.720482  5.447839
  N    10.542834  4.350215  5.796616
  S     9.674952  0.235623  4.040232
  S     9.658141  3.996072  4.437314
  S    12.482209  1.530061  1.238021
  S    12.184807  5.112425  1.391510
  S    11.890769  1.551057  5.203913
  S    12.057992  4.988733  5.542928
