16  
    
  C    11.118110  0.736684  2.843049
  C    11.170817  4.203772  3.291847
  C     9.897871  0.045594  2.337576
  C     9.856880  3.970287  2.701897
  N    12.066593  0.901829  1.944527
  N    12.198693  4.224733  2.430608
  N    10.087409 -0.530900  1.159631
  N     9.901841  4.029922  1.394842
  N     9.404166  0.580877  4.870278
  N     9.401529  4.257298  5.209637
  S     8.692437 -0.242347  3.613142
  S     8.557719  3.995092  3.796119
  S    11.564714  0.057571  0.584504
  S    11.499962  4.125310  0.941760
  S    10.978515  1.040269  4.600060
  S    11.044806  4.458524  5.013978
