16  
    
  C     6.068625 -1.511353  2.462878
  C     6.590771  2.183224  2.213248
  C     5.069470 -2.314370  1.792287
  C     5.347678  1.736791  1.607935
  N     7.067591 -1.153511  1.639229
  N     7.599294  2.378233  1.384554
  N     5.226692 -2.440878  0.448044
  N     5.388008  1.594452  0.290940
  N     4.498705 -2.402541  4.302383
  N     4.976717  1.662210  4.190076
  S     3.758483 -2.754917  2.844338
  S     4.137427  1.411208  2.760657
  S     6.656155 -1.730936  0.160193
  S     7.009073  1.969067 -0.167312
  S     5.893820 -1.476582  4.150267
  S     6.545983  2.249658  3.947590
