16  
    
  C    12.382493  1.557191  3.309417
  C    12.355000  5.399351  3.606731
  C    11.224088  1.089805  2.613270
  C    11.187408  4.851882  3.002656
  N    13.384121  1.822076  2.515010
  N    13.376525  5.677374  2.779311
  N    11.317986  0.882158  1.303785
  N    11.302754  4.628828  1.754642
  N    10.520137  1.431406  5.174819
  N    10.561214  4.911080  5.434664
  S     9.896235  0.870521  3.718929
  S     9.925668  4.277839  4.035176
  S    12.880679  1.342217  0.932969
  S    12.777771  5.203371  1.262928
  S    12.169897  1.856536  5.005182
  S    12.083508  5.570934  5.350075
