16  
    
  C     7.104702 -1.399109  2.102452
  C     7.039988  2.088719  2.047518
  C     5.954347 -1.889155  1.345716
  C     5.851129  1.748796  1.328220
  N     8.202487 -1.366219  1.365939
  N     8.161411  2.260360  1.353667
  N     6.139500 -2.064971  0.058592
  N     6.033223  1.567955  0.028051
  N     5.160599 -1.670566  3.778017
  N     5.160634  1.879800  3.817954
  S     4.509408 -2.126678  2.323308
  S     4.475370  1.559257  2.335439
  S     7.691389 -1.703920 -0.222880
  S     7.648496  2.020517 -0.294385
  S     6.849473 -1.492389  3.800627
  S     6.822741  2.306493  3.724063
