16  
    
  C    11.474311  1.339840  2.986465
  C    11.424746  4.950431  3.128793
  C    10.392380  0.487472  2.476678
  C    10.331874  4.351245  2.369381
  N    12.350123  1.747856  2.082654
  N    12.470551  5.293990  2.377613
  N    10.538192  0.227764  1.207921
  N    10.532020  4.408076  1.037836
  N    10.126548  0.676590  5.034142
  N     9.588259  4.354564  4.845002
  S     9.286936  0.073710  3.688423
  S     8.959463  3.941083  3.386576
  S    11.846885  1.065762  0.651643
  S    12.068275  4.935211  0.761284
  S    11.512498  1.565965  4.660651
  S    11.072931  5.082556  4.829557
