16  
    
  C    10.952357  0.718025  2.851379
  C    11.085928  4.146261  3.277456
  C     9.860506 -0.133548  2.375863
  C     9.783234  3.959257  2.633116
  N    11.880300  0.910315  1.956467
  N    12.154998  4.269729  2.508356
  N     9.969838 -0.399473  1.083544
  N     9.951032  3.870627  1.335495
  N     9.466050  0.625999  4.841373
  N     9.333754  4.378434  5.104613
  S     8.630326 -0.191787  3.607706
  S     8.516670  3.811643  3.759406
  S    11.433315  0.154987  0.603846
  S    11.511937  4.209983  0.934303
  S    11.035123  1.068411  4.505851
  S    11.002300  4.414072  4.999295
