16  
    
  C     4.663034 -2.431391  1.548469
  C     5.151791  1.595661  1.838008
  C     3.531085 -3.000373  0.860169
  C     3.828521  1.472342  1.322160
  N     5.652064 -2.075695  0.731972
  N     6.171193  1.539883  0.992197
  N     3.684126 -3.040570 -0.442598
  N     3.846599  1.173230  0.005998
  N     2.856950 -3.070119  3.372176
  N     3.652576  1.544510  3.906487
  S     2.206239 -3.468002  1.883558
  S     2.660904  1.384219  2.569164
  S     5.098798 -2.275423 -0.820469
  S     5.420654  1.279793 -0.449005
  S     4.393934 -2.326393  3.305185
  S     5.273901  1.765298  3.521456
