16  
    
  C    11.315248  0.909528  3.288905
  C    11.576097  4.680773  3.009929
  C    10.089362  0.527677  2.700194
  C    10.393453  4.196867  2.386979
  N    12.303298  1.018355  2.412093
  N    12.579180  4.956840  2.240553
  N    10.097791  0.407433  1.351004
  N    10.531817  3.950079  1.091848
  N     9.681647  0.686448  5.241940
  N     9.822476  4.356773  4.822316
  S     8.770646  0.359872  3.894514
  S     9.084629  3.891904  3.406352
  S    11.666647  0.662284  0.876183
  S    12.047827  4.422333  0.691932
  S    11.233605  1.305593  4.993366
  S    11.404157  4.909993  4.720608
