16  
    
  C    12.868904  1.585422  3.593116
  C    12.278196  4.974931  3.418117
  C    11.565708  1.353904  2.916203
  C    11.161554  4.520199  2.657525
  N    13.889251  1.598858  2.719846
  N    13.390740  5.218846  2.748944
  N    11.636147  1.024579  1.616548
  N    11.412124  4.421647  1.326678
  N    11.004659  1.859851  5.437863
  N    10.452952  4.416847  5.074713
  S    10.232474  1.349525  4.035486
  S     9.754526  4.245008  3.592532
  S    13.234612  1.262491  1.224891
  S    12.981303  4.838196  1.141633
  S    12.685815  1.878732  5.211961
  S    11.972866  5.169474  5.162019
