16  
    
  C     9.732080 -0.378486  2.516041
  C     9.733613  3.411031  2.578449
  C     8.476900 -0.876846  2.009219
  C     8.430836  3.220287  1.979896
  N    10.747914 -0.238424  1.672028
  N    10.757603  3.694127  1.799597
  N     8.463428 -0.903638  0.695921
  N     8.520206  3.178087  0.664483
  N     8.110605 -0.543939  4.526269
  N     8.051872  2.877940  4.502867
  S     7.180557 -1.031441  3.221983
  S     7.151453  2.828504  3.127191
  S    10.071897 -0.603232  0.194539
  S    10.097494  3.545892  0.235503
  S     9.743713 -0.255248  4.263664
  S     9.642145  3.228928  4.175714
