16  
    
  C     5.455386 -2.221670  1.610887
  C     5.265015  1.551258  1.559136
  C     4.293083 -2.557858  0.879936
  C     4.135305  1.029822  0.815761
  N     6.614631 -2.123374  0.894121
  N     6.401501  1.637657  0.882242
  N     4.540711 -2.787077 -0.416883
  N     4.414966  0.653611 -0.423749
  N     3.475841 -2.454647  3.314113
  N     3.140907  1.727230  3.099907
  S     2.904619 -2.912789  1.798893
  S     2.695131  0.739947  1.774974
  S     6.130179 -2.419826 -0.656773
  S     6.025623  1.152117 -0.714780
  S     5.127864 -2.081441  3.299393
  S     4.703510  2.215380  3.093127
