16  
    
  C    12.897917  1.648341  3.347754
  C    12.368026  5.125180  3.362382
  C    11.677761  1.176946  2.846238
  C    11.221071  4.655463  2.660175
  N    13.849094  1.700232  2.447545
  N    13.416871  5.333307  2.540052
  N    11.675211  0.865550  1.555023
  N    11.328587  4.610174  1.366102
  N    11.278506  1.382740  5.358141
  N    10.523063  4.921287  5.027138
  S    10.363238  1.143060  4.026896
  S     9.839502  4.402799  3.610284
  S    13.170604  1.240465  0.994048
  S    12.932745  5.014076  1.027584
  S    12.778661  1.968128  5.024183
  S    12.120943  5.110607  5.144960
