16  
    
  C     3.452754 -3.097045  1.025103
  C     3.869797  0.719974  1.447373
  C     2.213312 -3.509595  0.427690
  C     2.654139  0.366129  0.769136
  N     4.515648 -3.055949  0.211696
  N     4.909736  0.852155  0.627510
  N     2.331460 -3.775505 -0.871003
  N     2.782071  0.095538 -0.540286
  N     1.763152 -3.013153  2.904897
  N     2.083417  0.401291  3.294132
  S     1.008172 -3.814067  1.644430
  S     1.287998 -0.013237  1.892554
  S     3.902255 -3.334369 -1.283080
  S     4.332896  0.491937 -0.938160
  S     3.347253 -2.646285  2.659484
  S     3.600737  0.999181  3.151847
