16  
    
  C    11.984469  1.578196  3.546593
  C    11.951538  5.084935  3.798589
  C    10.894372  0.783578  2.965276
  C    10.713978  4.554775  3.226360
  N    12.894256  2.103724  2.742024
  N    12.854749  5.377670  2.867673
  N    11.087533  0.683480  1.659468
  N    10.620810  4.559951  1.858171
  N    10.473637  0.687991  5.428522
  N    10.523685  4.318816  5.818330
  S     9.694636  0.245241  4.038294
  S     9.636121  3.961496  4.454039
  S    12.460392  1.548382  1.242712
  S    12.206895  5.083657  1.382666
  S    11.891299  1.523573  5.218785
  S    12.015060  4.990343  5.502578
