16  
    
  C    11.286561  1.223616  3.191431
  C    11.375787  4.909004  2.908073
  C    10.072794  0.682584  2.649517
  C    10.304407  4.226667  2.228539
  N    12.337338  1.361034  2.336374
  N    12.373631  5.181732  2.077003
  N    10.169624  0.568969  1.333902
  N    10.421272  3.998157  0.916639
  N     9.806821  0.676686  5.291669
  N     9.671886  4.566645  4.772092
  S     8.932171  0.158497  3.955187
  S     8.980425  3.927492  3.390107
  S    11.714104  0.950051  0.811222
  S    11.909599  4.621863  0.517775
  S    11.303437  1.366899  4.921070
  S    11.255412  5.043521  4.606407
