16  
    
  C     5.743407 -2.143514  1.994224
  C     6.012246  1.744651  2.061051
  C     4.554043 -2.712314  1.365997
  C     4.751729  1.343291  1.432525
  N     6.713188 -1.737371  1.146622
  N     7.008766  1.982241  1.192470
  N     4.714885 -2.933322  0.052912
  N     4.906367  1.212865  0.134279
  N     3.898244 -2.484232  3.882690
  N     4.193393  1.630215  3.928387
  S     3.239267 -3.028031  2.437275
  S     3.367645  1.336680  2.492146
  S     6.233012 -2.407433 -0.333182
  S     6.440876  1.536414 -0.290557
  S     5.466554 -1.824022  3.694527
  S     5.824398  1.876564  3.791935
