16  
    
  C     9.775261 -0.228954  2.881148
  C     9.640087  3.713647  2.763700
  C     8.611100 -0.638567  2.176695
  C     8.441103  3.418802  2.055149
  N    10.821189  0.018899  2.079643
  N    10.677630  3.896374  1.974564
  N     8.755582 -0.858329  0.866287
  N     8.510447  3.341014  0.745029
  N     7.885305 -0.477870  4.655193
  N     7.875247  3.361559  4.579684
  S     7.241762 -0.788352  3.156421
  S     7.046853  3.277802  3.125517
  S    10.305456 -0.388573  0.551500
  S    10.092971  3.767824  0.355982
  S     9.434896  0.077751  4.562509
  S     9.541504  3.682396  4.481353
