16  
    
  C     8.730986 -1.011007  2.325899
  C     8.311663  3.224062  2.199708
  C     7.534954 -1.540888  1.717416
  C     7.216880  2.521143  1.660503
  N     9.704507 -0.625755  1.470938
  N     9.267714  3.514612  1.339490
  N     7.697045 -1.814891  0.425903
  N     7.295512  2.274530  0.379368
  N     6.996042 -1.487145  4.318524
  N     6.726861  2.817539  4.158985
  S     6.186838 -1.899315  2.877685
  S     5.978725  2.220086  2.810410
  S     9.189522 -1.198112 -0.050298
  S     8.793233  2.814902 -0.152797
  S     8.545761 -0.876305  4.092761
  S     8.275175  3.390069  3.925843
