16  
    
  C     8.726528 -0.150270  2.491128
  C     8.518817  3.146868  2.551288
  C     7.567276 -0.689785  1.791426
  C     7.412008  2.659331  1.841831
  N     9.700867  0.171050  1.696275
  N     9.598409  3.276603  1.822852
  N     7.707367 -0.804631  0.476771
  N     7.606500  2.417977  0.560269
  N     7.025725 -0.779813  4.442692
  N     6.725034  2.877148  4.366782
  S     6.251294 -0.960850  2.997186
  S     6.030147  2.409331  2.916175
  S     9.240747 -0.233405  0.131283
  S     9.200716  2.823921  0.240450
  S     8.600925 -0.103980  4.290998
  S     8.346569  3.272980  4.266640
