16  
    
  C     4.624002 -1.976968  1.528743
  C     4.639474  1.597709  1.708975
  C     3.348938 -2.358103  0.961642
  C     3.419332  1.242257  1.041277
  N     5.636880 -1.995144  0.666734
  N     5.743510  1.670682  0.949827
  N     3.387245 -2.668271 -0.330651
  N     3.590075  1.059983 -0.253274
  N     2.916617 -2.304885  3.512435
  N     2.906078  1.472388  3.618394
  S     2.038541 -2.375502  2.090047
  S     2.108879  1.140138  2.153790
  S     4.925997 -2.361143 -0.796999
  S     5.240586  1.444338 -0.618095
  S     4.584414 -2.046246  3.290907
  S     4.524833  1.689534  3.439439
