16  
    
  C    12.045557  1.367589  3.469803
  C    12.273010  5.103670  3.357540
  C    10.885780  0.847781  2.779246
  C    11.054680  4.661175  2.681417
  N    13.134451  1.603278  2.733822
  N    13.328136  5.036958  2.508929
  N    11.201182  0.401366  1.528285
  N    11.177730  4.426348  1.356371
  N    10.159977  1.083010  5.189246
  N    10.386477  5.390989  5.064297
  S     9.468721  0.632630  3.753388
  S     9.670005  4.775877  3.720586
  S    12.704120  0.985377  1.201134
  S    12.748726  4.546164  1.005121
  S    11.708007  1.664835  5.150196
  S    12.004896  5.741898  4.933650
