16  
    
  C    11.068569  0.524877  3.026378
  C    10.915646  4.391231  2.904883
  C     9.800464  0.091335  2.456865
  C     9.867516  3.593431  2.248514
  N    12.063630  0.703252  2.155473
  N    11.998006  4.622759  2.152434
  N     9.909488 -0.099699  1.153475
  N    10.151812  3.269542  1.002984
  N     9.284460  0.486776  4.943023
  N     9.043390  4.161508  4.603770
  S     8.494396 -0.128110  3.608841
  S     8.460534  3.487356  3.219396
  S    11.458824  0.205962  0.690906
  S    11.616864  3.909414  0.612021
  S    10.909010  0.769742  4.739365
  S    10.647101  4.617619  4.581026
