16  
    
  C    10.934071  0.541115  3.230343
  C    11.082335  4.258908  3.372357
  C     9.813600  0.032040  2.467687
  C     9.854806  3.856670  2.728701
  N    11.988660  0.939357  2.501550
  N    12.040832  4.592699  2.504909
  N    10.062594  0.006769  1.135632
  N     9.902937  3.736196  1.405772
  N     9.081887  0.179089  4.997678
  N     9.451108  3.962917  5.322385
  S     8.423210 -0.233618  3.524020
  S     8.587482  3.489133  3.967999
  S    11.545749  0.735956  0.920006
  S    11.437726  4.208585  0.965846
  S    10.721442  0.600044  4.988596
  S    11.025525  4.412592  5.052049
