16  
    
  C    11.534278  1.447211  2.926124
  C    11.464089  5.018362  3.125135
  C    10.378769  0.656483  2.378446
  C    10.277298  4.532637  2.404153
  N    12.414713  1.732681  1.962583
  N    12.576616  5.320649  2.414270
  N    10.449169  0.387734  1.081412
  N    10.543318  4.382336  1.113639
  N    10.216288  0.615566  4.960816
  N     9.655337  4.322777  4.849400
  S     9.360965  0.024623  3.687484
  S     8.994546  3.971317  3.331556
  S    11.943102  0.932087  0.584272
  S    12.080887  4.981128  0.847887
  S    11.496588  1.600652  4.646584
  S    11.175771  5.027164  4.838212
