16  
    
  C     5.705474 -1.976019  1.641493
  C     5.200553  1.484466  1.708370
  C     4.446084 -2.490030  1.130875
  C     4.046413  0.801517  1.178116
  N     6.726305 -1.977865  0.818718
  N     6.156658  1.759803  0.833571
  N     4.520767 -2.778017 -0.133552
  N     4.104523  0.561680 -0.132870
  N     4.137132 -2.349696  3.679311
  N     3.565303  1.149356  3.653882
  S     3.226142 -2.677819  2.371740
  S     2.747076  0.625347  2.298341
  S     6.075644 -2.397083 -0.663380
  S     5.548322  1.257264 -0.643669
  S     5.676539 -1.834542  3.394766
  S     5.185252  1.504073  3.423414
