16  
    
  C     4.634074 -2.165517  1.520668
  C     4.642921  1.617705  1.637278
  C     3.313169 -2.352688  0.971403
  C     3.515794  1.072755  0.984586
  N     5.603672 -2.157488  0.621286
  N     5.597920  1.918709  0.747079
  N     3.303805 -2.383199 -0.351781
  N     3.521957  0.958059 -0.327247
  N     3.003973 -2.191026  3.572818
  N     2.778299  1.335951  3.424635
  S     2.034506 -2.107648  2.221783
  S     2.109160  0.911274  1.977675
  S     4.868171 -2.323103 -0.832678
  S     5.023932  1.528361 -0.772030
  S     4.653148 -1.871681  3.247140
  S     4.385187  1.685767  3.317817
