16  
    
  C    11.258081  0.414050  3.027842
  C    11.136968  4.499464  3.435480
  C    10.101343 -0.186815  2.340831
  C     9.852901  4.210630  2.813258
  N    12.294344  0.610299  2.255034
  N    12.136461  4.359696  2.580781
  N    10.370383 -0.437122  1.065940
  N     9.879047  3.949610  1.506834
  N     9.443411  0.375780  4.776220
  N     9.469631  4.097634  5.304059
  S     8.738284 -0.330114  3.422621
  S     8.538767  4.344726  3.975368
  S    11.878571  0.106333  0.752610
  S    11.445979  4.030078  1.071430
  S    10.960558  1.052790  4.633471
  S    11.085061  4.591435  5.087397
