16  
    
  C    11.077510  0.538146  3.032492
  C    10.924666  4.394003  2.921523
  C     9.819066  0.068029  2.465376
  C     9.887660  3.610772  2.246172
  N    12.052659  0.708788  2.154973
  N    12.001326  4.610437  2.153017
  N     9.923301 -0.095045  1.165653
  N    10.151933  3.276786  1.001326
  N     9.279101  0.486009  4.946169
  N     9.052467  4.168826  4.611332
  S     8.503522 -0.133645  3.610040
  S     8.472991  3.480521  3.225764
  S    11.456505  0.213406  0.690229
  S    11.611985  3.912327  0.610027
  S    10.911496  0.755145  4.750317
  S    10.656293  4.606463  4.597756
