16  
    
  C     3.127464 -2.705055  1.563675
  C     3.623368  0.986368  1.453526
  C     2.136690 -3.520029  0.866101
  C     2.445553  0.424900  0.833117
  N     4.072508 -2.200181  0.774868
  N     4.609049  1.251229  0.601201
  N     2.372996 -3.515240 -0.430687
  N     2.462124  0.381954 -0.492582
  N     1.407666 -3.383953  3.417305
  N     1.972688  0.285824  3.365116
  S     0.889744 -4.089658  1.970365
  S     1.182723  0.033629  1.945142
  S     3.671633 -2.602293 -0.755567
  S     3.969547  0.960238 -0.896554
  S     2.925079 -2.670791  3.312055
  S     3.570802  0.932548  3.176462
