16  
    
  C    11.500539  1.157624  3.132204
  C    11.371314  4.923202  2.997728
  C    10.460790  0.394695  2.593742
  C    10.283339  4.262274  2.371929
  N    12.305813  1.657983  2.180872
  N    12.454729  5.257188  2.276008
  N    10.368457  0.305544  1.265958
  N    10.515324  4.131016  1.086184
  N     9.884160  0.833568  5.121012
  N     9.544768  4.596523  4.732973
  S     9.205120  0.098445  3.782180
  S     8.950818  3.873429  3.353122
  S    11.698295  1.109984  0.689635
  S    11.939535  4.832234  0.715948
  S    11.411593  1.442522  4.856448
  S    11.144621  5.108100  4.709260
