16  
    
  C    12.837199  1.515470  3.362599
  C    12.477799  5.129156  3.292558
  C    11.627454  1.139250  2.775691
  C    11.222133  4.700597  2.709149
  N    13.785751  1.748821  2.435711
  N    13.503751  5.375179  2.485696
  N    11.602640  0.930838  1.449579
  N    11.353961  4.624293  1.351395
  N    11.282076  1.348581  5.345650
  N    10.658385  4.899365  5.162891
  S    10.330817  0.980769  3.993565
  S     9.900823  4.452838  3.741761
  S    13.113227  1.355314  0.927983
  S    12.904068  5.129934  0.935075
  S    12.864337  1.990970  5.045273
  S    12.252098  5.270909  5.005495
