16  
    
  C     7.627121 -1.091576  1.799551
  C     7.724149  3.022537  2.185303
  C     6.373310 -1.480059  1.304244
  C     6.545631  2.413582  1.590790
  N     8.614733 -0.896898  0.923529
  N     8.818038  3.008174  1.392520
  N     6.426527 -1.755478 -0.002270
  N     6.656578  2.057108  0.296595
  N     6.011116 -1.117905  3.758483
  N     5.952898  2.650699  4.077700
  S     5.119336 -1.603546  2.389888
  S     5.184652  2.166586  2.673953
  S     7.919958 -1.292509 -0.529750
  S     8.285190  2.514414 -0.102009
  S     7.635924 -0.823479  3.492271
  S     7.445622  3.258577  3.909257
