16  
    
  C     9.983038 -0.081550  2.700465
  C     9.810468  3.909159  2.789040
  C     8.845171 -0.619679  2.021690
  C     8.809535  3.053047  2.215573
  N    11.033393  0.241554  1.978482
  N    10.830335  4.341671  2.026737
  N     9.016377 -0.754521  0.728086
  N     9.089944  2.781925  0.950077
  N     8.106207 -0.363963  4.481932
  N     7.905657  3.700251  4.547071
  S     7.426466 -0.957681  3.071982
  S     7.283025  2.994769  3.187505
  S    10.575963 -0.218112  0.406477
  S    10.530139  3.638108  0.568785
  S     9.690574  0.082734  4.391731
  S     9.413438  4.350640  4.414205
