16  
    
  C     7.055770 -1.752111  1.598510
  C     6.781264  2.163004  1.923356
  C     5.814468 -2.247945  1.066136
  C     5.598258  1.541254  1.364501
  N     8.038235 -1.609180  0.731381
  N     7.711991  2.480938  1.011873
  N     5.820450 -2.349814 -0.250330
  N     5.654370  1.469511  0.037207
  N     5.333327 -1.850329  3.518973
  N     5.098898  1.701074  3.875373
  S     4.535287 -2.404623  2.188612
  S     4.383221  1.082484  2.502827
  S     7.383772 -1.936266 -0.725357
  S     7.095612  2.072566 -0.415584
  S     6.970637 -1.628122  3.319236
  S     6.678848  2.260435  3.651381
