16  
    
  C    10.272951  0.630989  2.983569
  C    10.680194  4.533294  2.876317
  C     9.171864 -0.010646  2.373016
  C     9.450650  4.112165  2.285823
  N    11.213335  1.030584  2.139196
  N    11.628379  4.748604  1.981481
  N     9.314779 -0.201833  1.069141
  N     9.414530  4.092709  0.943230
  N     8.718986  0.065281  4.959596
  N     9.077293  3.984667  4.824806
  S     7.972136 -0.439335  3.555595
  S     8.157274  3.935579  3.444085
  S    10.735268  0.491519  0.658748
  S    11.000796  4.454320  0.502915
  S    10.264511  0.641394  4.732731
  S    10.675698  4.415090  4.615707
