16  
    
  C     4.621176 -2.206079  1.546555
  C     5.186946  1.351339  1.911597
  C     3.560525 -2.919656  0.859473
  C     3.821358  1.317639  1.415382
  N     5.546843 -1.737629  0.747614
  N     6.119123  1.458505  0.951972
  N     3.815326 -3.089555 -0.414336
  N     3.758929  1.216260  0.093348
  N     2.883973 -2.971122  3.342786
  N     3.465164  1.634657  3.998205
  S     2.274316 -3.523974  1.897335
  S     2.547413  1.459310  2.579707
  S     5.282139 -2.397969 -0.713622
  S     5.290145  1.290550 -0.510664
  S     4.397435 -2.225955  3.247412
  S     5.169176  1.605618  3.673163
