16  
    
  C     4.552317 -2.604650  1.500697
  C     5.268897  1.463230  1.792767
  C     3.314691 -2.842426  0.798768
  C     3.979710  1.211935  1.230491
  N     5.546330 -2.329237  0.696017
  N     6.192874  1.668580  0.842042
  N     3.395758 -2.729616 -0.529877
  N     3.928426  1.017424 -0.095460
  N     2.790152 -2.829372  3.368192
  N     3.611973  1.553465  3.800542
  S     2.036850 -3.290359  1.910928
  S     2.741052  1.245661  2.380193
  S     4.975020 -2.369379 -0.817924
  S     5.481704  1.397347 -0.661480
  S     4.446846 -2.584204  3.251557
  S     5.244583  1.758895  3.532942
