16  
    
  C     9.285253 -0.575860  2.622756
  C     9.221195  3.224472  2.580616
  C     8.036598 -1.049698  2.038583
  C     8.039111  2.761637  1.987293
  N    10.273579 -0.370178  1.742845
  N    10.273606  3.298948  1.762238
  N     8.144503 -1.443146  0.734009
  N     8.142033  2.499554  0.681657
  N     7.575238 -0.513607  4.552243
  N     7.563809  3.330679  4.467616
  S     6.743617 -1.067792  3.228304
  S     6.719337  2.965672  3.097980
  S     9.693293 -0.884241  0.277284
  S     9.741172  2.778978  0.242449
  S     9.147162 -0.066831  4.264718
  S     9.201937  3.524377  4.320412
