16  
    
  C     5.917960 -2.173655  1.773325
  C     6.076219  1.653032  1.885507
  C     4.647169 -2.477446  1.138699
  C     4.759085  1.681275  1.340565
  N     7.048962 -2.314987  1.008590
  N     7.002313  1.426112  0.962789
  N     4.772386 -2.657749 -0.196994
  N     4.677899  1.361485  0.051514
  N     4.157588 -2.221697  3.650718
  N     4.534149  2.174660  3.871152
  S     3.365387 -2.542139  2.243230
  S     3.564585  2.064619  2.550627
  S     6.400491 -2.442800 -0.532262
  S     6.232168  1.255978 -0.463622
  S     5.789181 -2.093326  3.523977
  S     6.148962  1.924155  3.607129
