16  
    
  C     6.842329 -1.813218  1.727405
  C     6.604700  2.261798  2.014606
  C     5.563478 -2.212183  1.143866
  C     5.519226  1.495447  1.439989
  N     7.821055 -1.694673  0.861613
  N     7.537530  2.607959  1.127588
  N     5.565538 -2.252470 -0.181981
  N     5.633865  1.292651  0.124759
  N     5.163110 -2.095292  3.710085
  N     5.057030  1.522630  3.980871
  S     4.310978 -2.470638  2.327041
  S     4.273742  1.095863  2.576837
  S     7.125805 -1.803374 -0.650596
  S     7.021956  2.113141 -0.327013
  S     6.738280 -1.761994  3.444722
  S     6.502548  2.348152  3.715350
