16  
    
  C    11.323314  0.863299  3.276582
  C    11.614909  4.729621  3.016550
  C    10.012890  0.599395  2.678961
  C    10.453685  4.184021  2.344603
  N    12.302027  1.028845  2.394225
  N    12.609391  4.890433  2.122163
  N    10.053029  0.436899  1.383737
  N    10.545330  3.962297  1.060057
  N     9.650006  0.694113  5.313822
  N     9.837242  4.393775  4.797589
  S     8.825659  0.394802  3.891200
  S     9.072718  3.918067  3.400395
  S    11.647702  0.648866  0.885368
  S    12.048034  4.473184  0.629613
  S    11.189445  1.290282  5.040732
  S    11.413683  4.866976  4.694720
