16  
    
  C    12.056261  1.365824  3.362295
  C    12.196434  5.169399  3.799858
  C    10.970726  0.786045  2.698682
  C    10.947546  4.777565  3.240868
  N    13.106377  1.636699  2.576428
  N    13.176409  5.327069  2.919118
  N    11.118580  0.705393  1.373640
  N    10.908680  4.688164  1.869396
  N    10.325974  1.143502  5.223282
  N    10.601673  4.761202  5.758292
  S     9.607678  0.561964  3.814057
  S     9.642320  4.518825  4.385823
  S    12.673831  1.286419  1.050792
  S    12.456823  5.064285  1.411176
  S    11.861703  1.799982  5.100754
  S    12.208168  5.191456  5.509686
