16  
    
  C     9.846823 -0.220380  2.826435
  C     9.674559  3.964467  2.727959
  C     8.652559 -0.627288  2.083657
  C     8.439117  3.616599  2.079378
  N    10.910427  0.043091  2.070104
  N    10.777847  4.004740  1.981143
  N     8.926202 -0.762849  0.800872
  N     8.636317  3.503096  0.793342
  N     7.882733 -0.286933  4.492880
  N     7.775682  3.571812  4.548208
  S     7.257029 -0.931777  3.104517
  S     7.089417  3.148667  3.096774
  S    10.509278 -0.377985  0.548938
  S    10.211998  3.610098  0.410014
  S     9.544859  0.024239  4.470767
  S     9.414489  3.990957  4.462228
