16  
    
  C    11.967353  1.270232  3.329090
  C    11.780637  4.937053  3.656344
  C    10.823509  0.772726  2.587984
  C    10.643420  4.408083  2.995612
  N    12.981312  1.570142  2.533633
  N    12.910776  5.092192  2.876094
  N    11.073236  0.455616  1.313353
  N    10.819719  4.308017  1.686703
  N    10.298856  0.782883  5.129891
  N     9.920715  4.431257  5.490841
  S     9.508728  0.499788  3.710154
  S     9.264028  4.014109  4.017249
  S    12.539764  1.162256  0.991659
  S    12.358745  4.587738  1.340752
  S    11.827224  1.481381  5.092211
  S    11.475892  5.038597  5.390593
