16  
    
  C     7.207599 -1.669834  1.786867
  C     6.968620  2.067662  1.929286
  C     5.981677 -2.054493  1.131493
  C     5.748327  1.682945  1.310375
  N     8.261378 -1.521504  1.003356
  N     7.980415  2.294097  1.096670
  N     6.113017 -2.382476 -0.127066
  N     5.775284  1.589275 -0.006983
  N     5.334257 -1.811558  3.576628
  N     5.306345  1.567478  3.806692
  S     4.630289 -2.233555  2.162257
  S     4.447673  1.390518  2.435089
  S     7.656288 -1.948555 -0.523793
  S     7.363756  2.045909 -0.439267
  S     6.915235 -1.278147  3.448850
  S     6.855187  2.112887  3.613034
