16  
    
  C     3.285700 -3.081298  1.160564
  C     3.622880  0.659801  1.340369
  C     2.032707 -3.366380  0.449240
  C     2.424961  0.189238  0.689763
  N     4.410958 -3.005173  0.450709
  N     4.721506  0.771665  0.588226
  N     2.220378 -3.487026 -0.863957
  N     2.626376  0.024367 -0.604788
  N     1.579925 -3.428807  3.001016
  N     1.750166  0.424890  3.199738
  S     0.708970 -3.517160  1.535571
  S     1.058576  0.118994  1.725248
  S     3.888048 -3.109123 -1.126871
  S     4.176132  0.431042 -0.999707
  S     3.207406 -3.281541  2.856166
  S     3.412870  0.701236  3.057259
