16  
    
  C    10.999281  0.657552  2.886006
  C    11.001720  4.495895  3.357659
  C     9.782926  0.038412  2.352834
  C     9.833471  3.908478  2.703542
  N    11.942081  0.790210  1.943922
  N    12.008094  4.675472  2.525999
  N     9.738054 -0.139942  1.018477
  N     9.993895  3.610610  1.417713
  N     9.389014  0.359425  4.892081
  N     9.215160  3.953461  5.131646
  S     8.565211 -0.172419  3.555884
  S     8.428489  3.701771  3.676852
  S    11.248799  0.349985  0.489168
  S    11.480027  4.177822  1.013289
  S    10.907767  1.048221  4.640692
  S    10.766807  4.556336  5.059275
