16  
    
  C     7.364118 -1.643337  2.166058
  C     7.542767  2.438970  2.109257
  C     6.112805 -1.978341  1.518495
  C     6.287409  2.004694  1.560368
  N     8.335113 -1.283454  1.331628
  N     8.525056  2.647945  1.214869
  N     6.250006 -2.075081  0.222344
  N     6.306250  1.906946  0.226748
  N     5.596132 -2.103222  3.963167
  N     5.901809  2.079061  4.103234
  S     4.821660 -2.505337  2.513825
  S     4.990570  1.900439  2.750978
  S     7.764078 -1.593642 -0.191254
  S     7.843121  2.399758 -0.244879
  S     7.216128 -1.636787  3.910380
  S     7.418199  2.690986  3.857570
