16  
    
  C    11.229182  0.437730  3.026525
  C    11.112951  4.473999  3.412415
  C    10.136613 -0.216613  2.362163
  C     9.821614  4.230715  2.840908
  N    12.352014  0.560593  2.287575
  N    12.137965  4.408769  2.597388
  N    10.412804 -0.422677  1.064731
  N     9.873395  3.963239  1.533451
  N     9.420211  0.371397  4.770851
  N     9.456655  4.158094  5.327728
  S     8.748592 -0.330347  3.421443
  S     8.533773  4.349860  3.986396
  S    11.942160  0.126961  0.747437
  S    11.437608  4.017617  1.097544
  S    10.935467  1.013465  4.615675
  S    11.090720  4.612350  5.104667
