16  
    
  C    11.776406  1.109158  3.352598
  C    11.901520  5.074238  3.323461
  C    10.638993  0.599617  2.682850
  C    10.726875  4.536617  2.688865
  N    12.864572  1.138085  2.613453
  N    12.997167  5.110520  2.558824
  N    10.828954  0.243342  1.406788
  N    10.853354  4.251460  1.430765
  N    10.000360  0.913845  5.188939
  N    10.155367  4.868971  5.167179
  S     9.242948  0.588227  3.717288
  S     9.321017  4.432762  3.816001
  S    12.398269  0.693528  1.093386
  S    12.460036  4.458642  1.083013
  S    11.568901  1.642198  5.098109
  S    11.733601  5.337564  4.996708
