16  
    
  C     8.727010 -0.485107  2.426046
  C     8.546291  3.208904  2.634490
  C     7.548511 -0.970194  1.675585
  C     7.340982  2.745819  1.939480
  N     9.808860 -0.523516  1.662911
  N     9.524678  3.417698  1.788217
  N     7.719068 -1.280604  0.392805
  N     7.504820  2.469113  0.660975
  N     6.862810 -0.813187  4.111793
  N     6.836538  2.798188  4.474284
  S     6.117948 -0.938878  2.657215
  S     6.062201  2.478632  3.018529
  S     9.336436 -1.031734  0.147210
  S     9.015196  3.002926  0.185525
  S     8.467580 -0.303398  4.158893
  S     8.448640  3.228517  4.395036
