16  
    
  C     5.848737 -2.270681  1.984266
  C     5.729464  1.328424  1.766134
  C     4.587158 -2.565358  1.359791
  C     4.541536  0.840006  1.084594
  N     6.878423 -2.128070  1.106609
  N     6.779732  1.604660  0.990548
  N     4.686845 -2.584505  0.023477
  N     4.729124  0.534537 -0.197025
  N     4.156858 -2.508959  3.840967
  N     3.962720  1.049538  3.610182
  S     3.301731 -2.607134  2.481676
  S     3.211423  0.566327  2.189017
  S     6.270010 -2.320498 -0.381803
  S     6.341598  1.012901 -0.541773
  S     5.747208 -2.103127  3.738458
  S     5.570828  1.342181  3.498584
