16  
    
  C     5.775076 -2.134213  2.103918
  C     5.891903  1.326964  1.925806
  C     4.573672 -2.617926  1.444348
  C     4.680683  0.927391  1.176175
  N     6.808311 -2.113646  1.255067
  N     6.937975  1.569865  1.143905
  N     4.704812 -2.836189  0.135396
  N     4.790392  0.870761 -0.145799
  N     4.019887 -2.247056  3.880008
  N     4.100434  0.854059  3.674007
  S     3.188152 -2.772202  2.544256
  S     3.414976  0.402966  2.195111
  S     6.261599 -2.377391 -0.253710
  S     6.381125  1.398614 -0.456352
  S     5.619304 -1.984972  3.803742
  S     5.610930  1.523843  3.607794
