16  
    
  C     8.685015 -1.123655  2.368949
  C     8.369845  2.926204  2.122558
  C     7.441426 -1.612219  1.721914
  C     7.150644  2.361537  1.545759
  N     9.593784 -0.688232  1.527087
  N     9.349889  3.102960  1.263877
  N     7.530715 -1.753827  0.433589
  N     7.229259  2.241326  0.252774
  N     6.852298 -1.302707  4.194973
  N     6.578260  2.688100  4.043837
  S     6.152696 -1.910098  2.805725
  S     5.823717  2.148314  2.647305
  S     8.995222 -1.117955  0.037948
  S     8.726676  2.731745 -0.292281
  S     8.483780 -0.920893  4.056862
  S     8.157110  3.203307  3.775016
