16  
    
  C     4.529025 -2.648356  1.479198
  C     5.187192  1.437381  1.680447
  C     3.239563 -2.800349  0.829211
  C     3.911449  1.205942  1.090986
  N     5.541043 -2.363752  0.698999
  N     6.139494  1.690018  0.761794
  N     3.308412 -2.792527 -0.492552
  N     3.913498  1.110978 -0.231533
  N     2.721467 -2.772687  3.372851
  N     3.545527  1.220287  3.688049
  S     1.903872 -2.949226  1.895280
  S     2.632349  1.012000  2.278328
  S     4.905891 -2.586259 -0.819273
  S     5.543793  1.410635 -0.773287
  S     4.373328 -2.693751  3.246591
  S     5.203084  1.546337  3.409812
