16  
    
  C     9.680626 -0.645660  2.740369
  C     9.628559  3.249090  2.574332
  C     8.420637 -0.949216  2.133454
  C     8.398766  3.073637  1.951411
  N    10.733713 -0.537625  1.918341
  N    10.697304  3.345159  1.763761
  N     8.555100 -1.027690  0.817040
  N     8.429814  3.052346  0.624807
  N     7.932740 -0.547910  4.577120
  N     7.717641  2.949162  4.425376
  S     7.046922 -0.966955  3.211324
  S     6.934491  3.031812  2.972195
  S    10.116144 -0.790752  0.397296
  S     9.990236  3.282459  0.271788
  S     9.562431 -0.414807  4.450508
  S     9.303301  3.292725  4.268019
