16  
    
  C    11.072095  0.721380  2.842584
  C    11.181003  4.190569  3.298038
  C     9.871948  0.042119  2.340149
  C     9.876547  3.977052  2.697847
  N    12.033337  0.919879  1.943760
  N    12.182854  4.217625  2.427856
  N    10.053205 -0.534927  1.148017
  N     9.891767  4.004103  1.379796
  N     9.404406  0.599518  4.872227
  N     9.400076  4.292763  5.183240
  S     8.679164 -0.239058  3.614563
  S     8.541035  3.956356  3.786994
  S    11.553745  0.070876  0.577791
  S    11.503267  4.145109  0.957762
  S    11.004214  1.049221  4.592471
  S    11.038723  4.443379  4.992630
