16  
    
  C     8.275168 -0.843895  2.458363
  C     8.157619  3.009439  2.339035
  C     7.075766 -1.385389  1.888920
  C     7.006915  2.411464  1.709266
  N     9.309420 -0.861600  1.659798
  N     9.200224  3.259247  1.539519
  N     7.166808 -1.647650  0.603411
  N     7.276489  2.111199  0.455811
  N     6.416740 -0.815069  4.368627
  N     6.398856  2.610047  4.184444
  S     5.672685 -1.464026  3.076557
  S     5.658775  2.087449  2.808823
  S     8.763808 -1.370373  0.172703
  S     8.749143  2.673849  0.067916
  S     8.025642 -0.393125  4.137358
  S     7.929689  3.290150  4.011386
