16  
    
  C     5.158666 -2.359149  1.586809
  C     4.934413  1.533802  2.071885
  C     3.969523 -2.960304  1.011283
  C     3.842794  0.867530  1.394073
  N     6.124695 -2.233256  0.695842
  N     6.005102  1.646905  1.303355
  N     4.095677 -3.337224 -0.291409
  N     3.982330  0.663263  0.098474
  N     3.389228 -2.404259  3.435114
  N     3.043327  1.327100  3.781960
  S     2.595415 -2.983518  2.105107
  S     2.427311  0.782070  2.319312
  S     5.658402 -2.955948 -0.697042
  S     5.576787  1.097241 -0.219570
  S     4.943800 -1.815806  3.258101
  S     4.584550  2.109395  3.718374
