16  
    
  C     4.644603 -2.237790  1.603585
  C     4.986314  1.328065  1.947922
  C     3.558774 -2.797149  0.882838
  C     3.696807  1.259383  1.311416
  N     5.665961 -1.889727  0.785996
  N     5.954720  1.419460  1.037937
  N     3.770950 -2.992752 -0.457156
  N     3.667221  1.159038 -0.009949
  N     2.867973 -2.799461  3.362440
  N     3.375138  1.757925  3.863178
  S     2.263478 -3.296958  1.921546
  S     2.414523  1.414949  2.506540
  S     5.267633 -2.339746 -0.717112
  S     5.257383  1.308500 -0.456658
  S     4.350980 -2.038238  3.305523
  S     5.053910  1.454307  3.654555
