16  
    
  C     7.938033 -0.693356  2.313323
  C     8.357398  2.882492  2.370803
  C     6.833353 -1.381664  1.617546
  C     7.030006  2.625944  1.850077
  N     8.984947 -0.440861  1.536780
  N     9.280903  2.978515  1.428155
  N     6.964816 -1.370652  0.312550
  N     6.928304  2.378498  0.534023
  N     6.015501 -1.081887  4.083854
  N     6.765623  2.925174  4.344929
  S     5.527709 -1.809132  2.707144
  S     5.813196  2.704435  3.062479
  S     8.516336 -0.810841 -0.044814
  S     8.531304  2.609828 -0.000893
  S     7.570547 -0.577177  4.049029
  S     8.419203  3.128247  4.095347
