16  
    
  C     7.171268 -1.429625  2.219263
  C     7.164192  2.227372  2.057914
  C     5.953372 -1.858810  1.598977
  C     5.935893  1.711215  1.490602
  N     8.170266 -1.105434  1.392639
  N     8.215785  2.348496  1.259994
  N     6.093006 -2.105545  0.284810
  N     5.975186  1.549252  0.171631
  N     5.370214 -1.304364  4.105346
  N     5.512006  1.967009  3.968033
  S     4.646419 -1.984710  2.793867
  S     4.667723  1.613657  2.608469
  S     7.636384 -1.689946 -0.114556
  S     7.595643  1.824363 -0.270384
  S     6.979292 -1.152455  3.957656
  S     7.021764  2.513253  3.759230
