16  
    
  C    11.325032  1.278807  3.186802
  C    11.401689  4.878952  2.912201
  C    10.084288  0.637257  2.664784
  C    10.282192  4.221815  2.232680
  N    12.342900  1.372875  2.331469
  N    12.340749  5.220836  2.055951
  N    10.193489  0.549246  1.341358
  N    10.446896  4.021355  0.944129
  N     9.837117  0.719897  5.228207
  N     9.619186  4.599165  4.789658
  S     8.951829  0.116983  3.928854
  S     8.991979  3.920503  3.397035
  S    11.711336  0.979337  0.808495
  S    11.930881  4.642835  0.531977
  S    11.335683  1.379763  4.899628
  S    11.223411  5.047864  4.644543
