16  
    
  C     6.183265 -2.006308  1.664497
  C     6.291462  1.845687  1.861734
  C     4.911544 -2.418541  1.042064
  C     5.076549  1.727010  1.159655
  N     7.174008 -1.717133  0.836078
  N     7.345586  1.927930  1.047613
  N     5.043629 -2.647763 -0.240339
  N     5.211969  1.720109 -0.185376
  N     4.354092 -1.792387  3.469223
  N     4.450489  1.873844  3.688395
  S     3.566311 -2.505311  2.158963
  S     3.657569  1.878092  2.220623
  S     6.658976 -2.303350 -0.665851
  S     6.792995  1.790145 -0.469619
  S     5.974395 -1.503317  3.348515
  S     6.114339  1.888237  3.583148
