16  
    
  C     9.924156 -0.100360  2.992101
  C    10.237200  3.539222  2.884640
  C     8.789693 -0.550811  2.273182
  C     8.932655  3.550940  2.335239
  N    10.994934  0.130894  2.176904
  N    11.166311  3.477579  1.938640
  N     8.965949 -0.705626  0.941860
  N     8.845884  3.652967  1.016972
  N     8.077955 -0.689014  4.674190
  N     8.554878  3.315673  4.811954
  S     7.382864 -0.972922  3.176119
  S     7.625404  3.538372  3.520577
  S    10.510209 -0.241682  0.622461
  S    10.342912  3.642772  0.470984
  S     9.701633 -0.191003  4.757148
  S    10.185580  3.516398  4.629771
