16  
    
  C     4.306761 -2.615100  1.565318
  C     4.207545  1.133320  1.751527
  C     3.045517 -3.105268  1.035667
  C     2.917026  1.201007  1.136803
  N     5.275148 -2.677439  0.684339
  N     5.196526  0.992194  0.878370
  N     3.078535 -3.474619 -0.228844
  N     2.887277  1.006748 -0.172640
  N     2.545227 -2.548240  3.545643
  N     2.516323  1.297526  3.628475
  S     1.826385 -3.367370  2.276953
  S     1.557756  1.295498  2.272330
  S     4.589427 -3.157593 -0.737778
  S     4.519864  0.858942 -0.579610
  S     4.124318 -2.061968  3.239815
  S     4.187800  1.515890  3.389430
