16  
    
  C    11.986158  1.411564  3.505918
  C    11.885736  4.798376  3.737968
  C    10.835490  0.817813  2.778614
  C    10.674702  4.175324  3.152611
  N    13.003136  1.610785  2.688437
  N    12.780736  5.335050  2.863626
  N    10.927551  0.879678  1.457797
  N    10.738193  4.091999  1.855068
  N    10.385223  0.731917  5.373415
  N    10.110619  4.453719  5.660753
  S     9.690093  0.210174  3.927366
  S     9.391782  3.888199  4.291124
  S    12.498249  1.467553  1.159598
  S    12.195229  4.883412  1.351202
  S    11.959729  1.332457  5.206858
  S    11.651372  4.987124  5.463858
