16  
    
  C     4.582540 -2.149398  1.560103
  C     5.195894  1.360597  1.928347
  C     3.563885 -2.903256  0.863015
  C     3.848104  1.301794  1.413863
  N     5.574938 -1.754262  0.782841
  N     6.110502  1.425423  0.955198
  N     3.817777 -3.094348 -0.402323
  N     3.747095  1.191902  0.068542
  N     2.885129 -2.941440  3.356284
  N     3.438043  1.679399  3.958964
  S     2.261797 -3.513713  1.897440
  S     2.546120  1.454928  2.578731
  S     5.300642 -2.394355 -0.729396
  S     5.250076  1.307450 -0.488515
  S     4.402851 -2.201015  3.244539
  S     5.126011  1.564655  3.667435
