16  
    
  C     6.100595 -1.572490  2.388717
  C     6.645777  2.124618  2.189146
  C     5.079318 -2.360708  1.689022
  C     5.346088  1.778990  1.610424
  N     7.060412 -1.139661  1.604897
  N     7.649996  2.289542  1.314932
  N     5.384275 -2.645741  0.435845
  N     5.415764  1.589909  0.289035
  N     4.434640 -2.332435  4.223365
  N     4.943603  1.806473  4.109008
  S     3.757981 -2.834450  2.806134
  S     4.090962  1.428146  2.721959
  S     6.752935 -1.723605  0.053425
  S     6.980165  1.978560 -0.181327
  S     5.913688 -1.504455  4.092929
  S     6.509203  2.250984  3.932609
