16  
    
  C     9.352685 -0.524980  2.673326
  C     9.309124  3.271231  2.555871
  C     8.132934 -1.086560  2.082842
  C     8.038905  2.915824  1.911597
  N    10.343834 -0.466085  1.835511
  N    10.312995  3.307004  1.677534
  N     8.256275 -1.277283  0.784396
  N     8.146595  2.593622  0.617242
  N     7.668916 -0.630262  4.607667
  N     7.499035  3.387157  4.417007
  S     6.830195 -1.011747  3.221507
  S     6.688767  2.927304  2.994681
  S     9.789997 -0.915972  0.345780
  S     9.747666  2.808751  0.229717
  S     9.237668 -0.170202  4.372755
  S     9.187879  3.517007  4.364104
