16  
    
  C    12.062597  1.386620  3.474796
  C    12.191069  5.094164  3.374688
  C    11.018107  0.695424  2.818808
  C    11.012374  4.652264  2.701129
  N    13.139661  1.592235  2.720564
  N    13.315582  5.113203  2.618866
  N    11.199065  0.542904  1.481244
  N    11.162935  4.364044  1.415315
  N    10.128361  1.100232  5.195232
  N    10.369377  5.397781  5.126801
  S     9.460861  0.569743  3.756341
  S     9.644897  4.707780  3.746050
  S    12.745374  1.113610  1.166275
  S    12.874245  4.660543  1.120500
  S    11.680943  1.714297  5.154065
  S    12.012079  5.736845  4.989609
