16  
    
  C     7.626942 -1.133397  1.829365
  C     7.712455  3.006316  2.175610
  C     6.364169 -1.477837  1.300954
  C     6.535747  2.391588  1.569903
  N     8.600220 -0.910179  0.940235
  N     8.793639  3.004056  1.379665
  N     6.414312 -1.750522 -0.009727
  N     6.669581  2.054776  0.304874
  N     6.010939 -1.115719  3.761829
  N     5.955142  2.648608  4.098282
  S     5.099839 -1.627303  2.383590
  S     5.194445  2.176944  2.669124
  S     7.899396 -1.280223 -0.520331
  S     8.262452  2.503911 -0.113847
  S     7.631448 -0.827070  3.503026
  S     7.449366  3.260720  3.908098
