16  
    
  C    10.150479  0.395757  2.833087
  C    10.715699  4.370773  2.806967
  C     8.982037 -0.119671  2.235177
  C     9.573438  3.799412  2.162839
  N    11.092139  0.805104  1.984772
  N    11.754766  4.560018  2.026850
  N     8.991551 -0.170317  0.898456
  N     9.700969  3.684744  0.835908
  N     8.556551 -0.060030  4.744110
  N     8.981333  3.930044  4.638804
  S     7.716749 -0.410850  3.365051
  S     8.137372  3.712049  3.209792
  S    10.500336  0.487794  0.455430
  S    11.190198  4.214852  0.446549
  S    10.018063  0.725947  4.508170
  S    10.576053  4.484577  4.495486
