16  
    
  C    11.327635  0.690300  2.988164
  C    11.059544  4.515879  3.569447
  C    10.344364 -0.077834  2.229829
  C     9.774582  4.093072  3.013132
  N    12.502883  0.895443  2.333584
  N    12.085474  4.573546  2.684693
  N    10.732813 -0.332889  0.958287
  N     9.877383  3.785793  1.723249
  N     9.378336  0.341386  4.601576
  N     9.390128  4.564101  5.554490
  S     8.770080 -0.142556  3.139225
  S     8.531515  4.118252  4.187485
  S    12.356826  0.242441  0.815129
  S    11.470227  4.086273  1.283209
  S    10.954313  0.856315  4.660682
  S    10.943650  5.107322  5.232289
