16  
    
  C     4.250422 -2.427955  1.606252
  C     4.089382  1.220529  1.621506
  C     3.151190 -3.214401  1.085630
  C     2.865847  0.713595  1.086334
  N     5.238113 -2.242021  0.768792
  N     5.114777  1.280365  0.794421
  N     3.313869 -3.641674 -0.140345
  N     2.924173  0.485921 -0.210470
  N     2.667174 -2.890812  3.624243
  N     2.338452  1.287408  3.490338
  S     1.823988 -3.348689  2.257398
  S     1.541323  0.850260  2.131156
  S     4.773842 -2.904840 -0.679055
  S     4.444362  0.876128 -0.702318
  S     4.127155 -2.176608  3.360598
  S     4.016938  1.445644  3.324118
