16  
    
  C     6.232293 -1.716000  2.298556
  C     6.571812  2.040158  2.125260
  C     5.175264 -2.362206  1.611363
  C     5.362526  1.606939  1.501892
  N     7.142778 -1.193075  1.463645
  N     7.576002  2.264079  1.305458
  N     5.354583 -2.622843  0.302649
  N     5.429321  1.541312  0.182409
  N     4.360894 -2.106461  3.933680
  N     4.866939  1.951365  4.029330
  S     3.850544 -2.842541  2.580710
  S     4.044495  1.505608  2.653235
  S     6.791135 -1.814443 -0.072721
  S     6.982753  2.000006 -0.200452
  S     5.927110 -1.560967  3.976507
  S     6.454358  2.281482  3.853858
