16  
    
  C     9.639278 -0.087241  2.890470
  C     9.681413  3.536364  2.761998
  C     8.497147 -0.553293  2.181703
  C     8.431199  3.185803  2.073155
  N    10.692803  0.197496  2.068349
  N    10.679122  3.847471  1.962230
  N     8.711251 -0.874265  0.867545
  N     8.488974  3.269675  0.744330
  N     7.909734 -0.371880  4.745799
  N     7.971177  3.213513  4.609862
  S     7.172077 -0.867723  3.278352
  S     7.198838  3.252501  3.171038
  S    10.247031 -0.275173  0.553184
  S    10.042037  3.787424  0.374096
  S     9.507609  0.066574  4.585023
  S     9.615580  3.486838  4.496852
