16  
    
  C    10.675412  0.726672  2.950252
  C    10.651954  4.407349  2.782903
  C     9.442704  0.243637  2.326967
  C     9.591886  3.576138  2.231046
  N    11.711756  0.806103  2.114098
  N    11.728421  4.565345  2.014941
  N     9.625814 -0.271421  1.083718
  N     9.885032  3.198373  0.990048
  N     8.981177  0.741521  4.817223
  N     8.747814  4.471984  4.538120
  S     8.160046  0.266557  3.469928
  S     8.308206  3.367056  3.358675
  S    11.202793  0.159974  0.682366
  S    11.440954  3.798865  0.654017
  S    10.552994  1.232406  4.598376
  S    10.274079  5.086224  4.388439
