16  
    
  C     9.039583 -0.359824  2.532133
  C     9.234381  3.465027  2.744452
  C     7.794773 -0.840230  1.965070
  C     7.967305  3.157073  2.187565
  N    10.024271 -0.149057  1.657216
  N    10.277630  3.625659  1.920422
  N     7.824462 -0.892458  0.674003
  N     7.983841  3.063190  0.872230
  N     7.358113 -0.917183  4.493486
  N     7.412164  3.355487  4.685403
  S     6.509475 -1.054660  3.042111
  S     6.570118  2.884320  3.280398
  S     9.317870 -0.407856  0.146848
  S     9.602065  3.231954  0.431984
  S     8.936344 -0.339714  4.266109
  S     9.040171  3.698208  4.469686
