16  
    
  C     9.200805 -0.453234  2.538432
  C     9.342824  3.151764  2.599447
  C     8.024101 -1.105668  2.047500
  C     8.047494  2.768981  2.032280
  N    10.222051 -0.336034  1.666644
  N    10.366263  3.267687  1.747005
  N     8.134170 -1.397439  0.761395
  N     8.190431  2.430476  0.748455
  N     7.512298 -0.428922  4.493394
  N     7.581826  3.270959  4.562042
  S     6.667547 -1.127588  3.178847
  S     6.724633  2.975527  3.181575
  S     9.605440 -0.900863  0.230580
  S     9.716365  2.795230  0.333270
  S     9.102451 -0.003352  4.203023
  S     9.177672  3.523090  4.218774
