16  
    
  C     7.359353 -1.585348  2.181848
  C     7.460432  2.377350  2.146476
  C     6.188409 -2.104441  1.496893
  C     6.203285  2.059468  1.522503
  N     8.368618 -1.344142  1.355369
  N     8.447959  2.512851  1.283042
  N     6.244844 -2.152935  0.159570
  N     6.313056  1.875144  0.207724
  N     5.567532 -2.074451  4.047318
  N     5.888736  2.058072  4.126159
  S     4.811301 -2.404580  2.575515
  S     4.982753  1.832563  2.727253
  S     7.772281 -1.618038 -0.206526
  S     7.802794  2.316628 -0.251133
  S     7.160574 -1.690805  3.924000
  S     7.420907  2.703861  3.831651
