16  
    
  C     5.888442 -2.186902  1.713446
  C     5.434910  1.177657  1.708471
  C     4.609981 -2.459241  1.167754
  C     4.210081  0.784028  1.128126
  N     6.865093 -2.055252  0.801728
  N     6.515813  1.094202  0.923480
  N     4.590087 -2.636296 -0.177608
  N     4.293831  0.572833 -0.179949
  N     4.303621 -2.320358  3.751952
  N     3.745992  1.225693  3.654637
  S     3.372698 -2.572795  2.385305
  S     2.923195  0.702767  2.274548
  S     6.163326 -2.270383 -0.692771
  S     5.904459  0.791491 -0.587731
  S     5.975766 -2.012658  3.429161
  S     5.323568  1.661288  3.422219
