16  
    
  C     5.866341 -2.136259  1.867306
  C     6.104810  1.714937  1.897674
  C     4.659430 -2.487541  1.174816
  C     4.772893  1.714862  1.415863
  N     6.945038 -2.121660  1.060622
  N     7.046077  1.449234  0.986507
  N     4.668663 -2.504551 -0.177475
  N     4.727511  1.334888  0.148035
  N     4.070287 -2.357968  3.642206
  N     4.550722  2.028043  3.921083
  S     3.300002 -2.697794  2.246582
  S     3.534706  2.089092  2.620076
  S     6.340633 -2.405686 -0.499136
  S     6.221449  1.083985 -0.361593
  S     5.679503 -2.028128  3.569157
  S     6.190200  2.057643  3.630036
