16  
    
  C     9.695940 -0.101582  2.897053
  C     9.706406  3.540860  2.767517
  C     8.507070 -0.567473  2.182421
  C     8.486092  3.156696  2.085999
  N    10.687398  0.165152  2.050974
  N    10.679919  3.860101  1.935263
  N     8.738956 -0.864806  0.895658
  N     8.515845  3.274506  0.746709
  N     7.893337 -0.416064  4.724528
  N     7.952769  3.216405  4.596006
  S     7.148187 -0.850910  3.258553
  S     7.172915  3.281496  3.181932
  S    10.249386 -0.297284  0.546734
  S    10.030295  3.797059  0.374754
  S     9.512685  0.077802  4.591308
  S     9.579497  3.506671  4.485069
