16  
    
  C    11.381352  0.758039  3.054398
  C    11.101505  4.749522  3.441264
  C    10.224012  0.348342  2.322984
  C    10.034782  3.952648  2.914141
  N    12.447715  0.944358  2.265890
  N    12.170006  4.926080  2.631622
  N    10.462182  0.127264  1.009317
  N    10.232009  3.558898  1.679025
  N     9.487395  0.737810  4.791153
  N     9.451830  4.530130  5.360724
  S     8.891666 -0.056573  3.459411
  S     8.722452  3.878989  4.039760
  S    12.066610  0.438288  0.695666
  S    11.721427  4.154615  1.189694
  S    11.123881  1.268947  4.715513
  S    10.984602  5.135487  5.125339
