16  
    
  C    10.520978  0.773595  3.005272
  C    10.632606  4.531367  2.824432
  C     9.332204  0.188921  2.429988
  C     9.468023  3.835195  2.279580
  N    11.507143  0.800380  2.143682
  N    11.593740  4.752871  1.930901
  N     9.446436 -0.149371  1.174609
  N     9.645105  3.342178  1.062858
  N     8.839846  0.576136  4.925989
  N     8.820444  4.368597  4.680929
  S     8.105467 -0.010539  3.562868
  S     8.181084  3.692499  3.304337
  S    10.935873  0.272874  0.687253
  S    11.127396  3.825789  0.566875
  S    10.376624  1.190921  4.725378
  S    10.382090  5.015885  4.513942
