16  
    
  C     8.997337 -0.385857  2.376029
  C     9.470299  3.271384  2.786723
  C     7.882219 -0.981117  1.702590
  C     8.190361  2.943730  2.119817
  N    10.114715 -0.323329  1.635869
  N    10.476255  3.295616  1.939846
  N     8.061948 -1.258859  0.403290
  N     8.300148  2.709550  0.795899
  N     7.021728 -0.235798  4.021159
  N     7.797892  3.311326  4.663126
  S     6.468835 -1.086722  2.683957
  S     6.953877  3.118493  3.242797
  S     9.684926 -0.870925  0.116967
  S     9.923618  2.893399  0.414517
  S     8.654418  0.079289  4.051170
  S     9.443565  3.742451  4.465060
