16  
    
  C     3.108953 -2.675299  1.537892
  C     3.629207  0.968541  1.421541
  C     2.107965 -3.478325  0.853747
  C     2.429674  0.441081  0.854491
  N     4.084557 -2.211321  0.763280
  N     4.631305  1.235394  0.585961
  N     2.352377 -3.525574 -0.439170
  N     2.449431  0.373461 -0.466098
  N     1.423463 -3.378981  3.414372
  N     1.968551  0.305461  3.379429
  S     0.885497 -4.120836  1.985333
  S     1.194697  0.046375  1.938173
  S     3.657265 -2.616513 -0.783057
  S     3.977353  0.979504 -0.892640
  S     2.925664 -2.660742  3.305672
  S     3.539876  0.966375  3.187096
