16  
    
  C     5.899516 -2.235015  1.667861
  C     5.320394  1.376983  1.722473
  C     4.614579 -2.604420  1.145941
  C     4.062914  0.894078  1.150393
  N     6.790202 -2.018712  0.691877
  N     6.319045  1.385314  0.840449
  N     4.507017 -2.672698 -0.185516
  N     4.061513  0.730479 -0.174340
  N     4.260378 -2.323837  3.689861
  N     3.618115  1.211692  3.676806
  S     3.373354 -2.567590  2.319495
  S     2.810191  0.620563  2.342464
  S     6.046543 -2.348689 -0.750889
  S     5.676879  0.876535 -0.631120
  S     5.863232 -1.850192  3.351617
  S     5.206604  1.626048  3.420049
