16  
    
  C     9.621451 -0.013088  2.811587
  C     9.677889  3.511180  2.734702
  C     8.475641 -0.610856  2.156059
  C     8.442081  3.297874  2.041734
  N    10.686114  0.244673  2.114744
  N    10.681189  3.841703  1.952098
  N     8.665700 -0.832249  0.869726
  N     8.461215  3.272754  0.724162
  N     7.919130 -0.305012  4.744333
  N     8.010872  3.215926  4.652004
  S     7.220285 -0.894890  3.320641
  S     7.174269  3.183792  3.174564
  S    10.235369 -0.240829  0.567163
  S    10.066504  3.756452  0.393403
  S     9.497512  0.045619  4.578638
  S     9.677052  3.454368  4.506344
