16  
    
  C     4.650761 -2.123091  1.555637
  C     4.538217  1.630435  1.506154
  C     3.304870 -2.153051  0.992345
  C     3.357397  1.075639  0.851779
  N     5.608792 -2.272366  0.684895
  N     5.572267  1.882242  0.694172
  N     3.257885 -2.318829 -0.298295
  N     3.518706  0.924825 -0.444926
  N     3.025506 -1.973381  3.556628
  N     2.792649  1.223881  3.376728
  S     2.084569 -2.135541  2.215777
  S     2.050046  0.740691  1.992409
  S     4.864343 -2.294878 -0.830524
  S     4.994402  1.511362 -0.846496
  S     4.649355 -1.838003  3.260863
  S     4.380027  1.673769  3.312059
