16  
    
  C    12.655080  1.643537  3.738749
  C    12.252556  4.976890  3.432806
  C    11.382225  1.321045  3.120322
  C    11.151485  4.474338  2.720067
  N    13.777867  1.604820  2.997322
  N    13.346629  5.198414  2.697105
  N    11.551608  1.190759  1.807047
  N    11.333107  4.317029  1.412306
  N    10.896319  1.430016  5.589123
  N    10.472746  4.886529  5.177956
  S    10.009740  1.306892  4.223813
  S     9.795271  4.272107  3.793326
  S    13.139789  1.337160  1.399024
  S    12.967236  4.795367  1.158432
  S    12.488538  1.803851  5.483604
  S    12.136891  5.096410  5.141212
