16  
    
  C     4.733749 -2.047452  1.648463
  C     4.406815  1.458951  1.416550
  C     3.383523 -2.160582  1.072997
  C     3.191171  1.031156  0.744435
  N     5.717875 -2.061877  0.792152
  N     5.424818  1.721145  0.599652
  N     3.385239 -2.338592 -0.219237
  N     3.301932  0.836827 -0.562384
  N     3.023940 -1.799722  3.595433
  N     2.739269  0.758266  3.243677
  S     2.118780 -2.167740  2.287575
  S     1.886464  0.678899  1.813144
  S     5.011793 -2.315957 -0.726574
  S     4.855314  1.327654 -0.915263
  S     4.681169 -1.785429  3.381172
  S     4.208919  1.485377  3.142228
