16  
    
  C     6.730446 -1.865706  1.782092
  C     6.585995  2.247262  2.046413
  C     5.427406 -2.087871  1.194085
  C     5.508407  1.494896  1.488447
  N     7.739769 -1.606833  0.950824
  N     7.546894  2.659820  1.216280
  N     5.521808 -2.178952 -0.128957
  N     5.568786  1.317031  0.190778
  N     5.083534 -2.184795  3.727722
  N     5.079885  1.509408  3.955133
  S     4.205979 -2.502920  2.377521
  S     4.238955  1.094101  2.581601
  S     7.047500 -1.797795 -0.557410
  S     6.987955  2.099765 -0.327582
  S     6.679517 -1.777600  3.507183
  S     6.457696  2.357493  3.761505
