16  
    
  C    11.615890  1.045386  3.214219
  C    11.988426  4.903521  3.214399
  C    10.462611  0.584562  2.578068
  C    10.793526  4.310994  2.720376
  N    12.700035  1.113749  2.425316
  N    12.906666  5.149550  2.313509
  N    10.540349  0.428090  1.240710
  N    10.870790  3.956834  1.423446
  N     9.853742  1.141645  5.037740
  N    10.248555  5.243251  5.042636
  S     9.114193  0.497423  3.707810
  S     9.531652  4.274531  3.876247
  S    12.116331  0.814473  0.908702
  S    12.317479  4.483485  0.879690
  S    11.529838  1.266192  4.945062
  S    11.877089  5.606719  4.824962
