16  
    
  C    11.538107  1.433213  2.905518
  C    11.455382  5.028554  3.138296
  C    10.367323  0.681964  2.380368
  C    10.293239  4.533853  2.396456
  N    12.432549  1.731710  1.954809
  N    12.577805  5.323119  2.428763
  N    10.458097  0.399125  1.077881
  N    10.544506  4.385015  1.110549
  N    10.217570  0.613604  4.967385
  N     9.661302  4.327394  4.841854
  S     9.363114  0.018403  3.687319
  S     9.001353  3.976026  3.333046
  S    11.946438  0.924719  0.567687
  S    12.080596  4.980078  0.848946
  S    11.495371  1.603670  4.648296
  S    11.188302  5.022268  4.839619
