16  
    
  C     8.718271 -0.961731  2.390188
  C     8.369169  3.282180  2.401539
  C     7.540842 -1.399296  1.671351
  C     7.228781  2.585858  1.776443
  N     9.789165 -0.797267  1.592113
  N     9.337835  3.510820  1.529802
  N     7.686535 -1.620646  0.339258
  N     7.392715  2.331885  0.471657
  N     7.058322 -1.343071  4.194825
  N     6.821233  2.818595  4.272378
  S     6.261951 -1.699979  2.728735
  S     6.028355  2.211224  2.947635
  S     9.277893 -1.216796  0.077062
  S     8.852911  3.000037 -0.030545
  S     8.598689 -0.740285  4.068016
  S     8.305209  3.565740  4.103643
