16  
    
  C    12.795984  1.721538  3.710800
  C    12.905509  5.602165  3.727252
  C    11.555392  1.290528  3.012189
  C    11.713675  4.988971  3.286286
  N    13.844172  1.671445  2.876871
  N    13.870153  5.630524  2.792641
  N    11.695482  0.992837  1.729214
  N    11.709904  4.641528  1.951651
  N    10.909688  1.691393  5.476571
  N    11.216277  5.501514  5.706020
  S    10.238167  1.206218  4.044863
  S    10.411664  4.784980  4.377888
  S    13.320949  1.221427  1.363744
  S    13.224073  4.958929  1.442498
  S    12.571999  1.954282  5.441434
  S    12.764552  6.000344  5.445162
