16  
    
  C    10.650373  0.772207  2.931922
  C    10.632756  4.386393  2.830754
  C     9.463087  0.219643  2.354465
  C     9.593309  3.606040  2.207241
  N    11.653585  0.840148  2.096840
  N    11.688033  4.579412  2.032341
  N     9.645541 -0.211994  1.123000
  N     9.901932  3.133107  0.992873
  N     8.956385  0.713702  4.837218
  N     8.756609  4.455114  4.592797
  S     8.107130  0.255513  3.494851
  S     8.258525  3.426812  3.373327
  S    11.174888  0.159555  0.687671
  S    11.409008  3.822757  0.633423
  S    10.528949  1.227369  4.587415
  S    10.284391  5.090114  4.370145
