16  
    
  C    10.831079  0.699076  2.958312
  C    10.781633  4.483476  2.825138
  C     9.630636  0.138995  2.402865
  C     9.678386  3.727525  2.226446
  N    11.861094  0.602913  2.090174
  N    11.851784  4.606159  2.069142
  N     9.722561 -0.139766  1.078599
  N     9.950999  3.288001  1.007356
  N     9.019812  0.702043  4.829099
  N     8.733242  4.383706  4.434207
  S     8.265095  0.241993  3.426709
  S     8.398977  3.271427  3.265940
  S    11.259959  0.108949  0.635574
  S    11.466880  3.713960  0.642064
  S    10.600140  1.208643  4.595645
  S    10.290101  5.029508  4.401836
