16  
    
  C     9.955967 -0.057639  2.663733
  C     9.780479  4.110902  2.751890
  C     8.819188 -0.588942  1.974456
  C     8.860281  3.171172  2.185385
  N    10.948442  0.241353  1.899581
  N    10.810499  4.357499  1.945055
  N     9.028584 -0.758603  0.705522
  N     9.234928  2.701947  1.004400
  N     8.210396 -0.303551  4.501849
  N     7.956110  3.699660  4.543613
  S     7.532219 -0.953258  3.096023
  S     7.603480  2.705080  3.212278
  S    10.541612 -0.173036  0.356647
  S    10.594843  3.428069  0.595415
  S     9.794129  0.141253  4.407685
  S     9.460557  4.469362  4.516684
