16  
    
  C     8.722817 -0.439586  2.426417
  C     8.636560  3.069690  2.603118
  C     7.516491 -0.867582  1.726511
  C     7.363574  2.691054  1.950112
  N     9.813761 -0.407588  1.710111
  N     9.662803  3.281155  1.794251
  N     7.709670 -1.101122  0.443736
  N     7.473385  2.644008  0.640359
  N     6.873396 -0.644719  4.265779
  N     6.806001  2.910035  4.484817
  S     6.079923 -0.957275  2.782049
  S     6.020341  2.501888  3.033750
  S     9.333331 -0.838879  0.179443
  S     9.067417  2.940614  0.261295
  S     8.453300 -0.187300  4.076959
  S     8.439785  3.208800  4.259609
