16  
    
  C    11.346159  0.649046  2.951480
  C    11.054256  4.471126  3.626425
  C    10.322110  0.026234  2.193784
  C     9.842202  3.994747  3.033689
  N    12.497139  0.879851  2.359176
  N    12.053509  4.514056  2.780828
  N    10.803037 -0.383883  1.034664
  N     9.830404  3.875044  1.701733
  N     9.314747  0.337637  4.602229
  N     9.378419  4.637620  5.496170
  S     8.801023 -0.196962  3.155413
  S     8.493318  4.151459  4.162992
  S    12.333807  0.193006  0.828414
  S    11.408272  4.099664  1.269418
  S    10.906256  0.768095  4.611118
  S    10.996986  5.054426  5.206018
