16  
    
  C     7.182906 -1.271303  2.347532
  C     7.803184  2.858320  2.325144
  C     6.082740 -1.767711  1.522816
  C     6.619827  2.349546  1.646709
  N     8.247455 -0.922127  1.611821
  N     8.848063  3.082602  1.560652
  N     6.349663 -1.819594  0.203390
  N     6.757013  2.087310  0.362082
  N     5.251023 -1.888995  3.988637
  N     5.997071  2.506222  4.193165
  S     4.775518 -2.512179  2.450835
  S     5.291988  2.061356  2.676923
  S     7.887745 -1.215470  0.003654
  S     8.348737  2.681861  0.007321
  S     6.775927 -1.278539  4.060963
  S     7.589131  2.964431  4.069400
