16  
    
  C     8.764198 -0.963045  2.385634
  C     8.501620  3.262105  2.525210
  C     7.567782 -1.185205  1.634016
  C     7.332111  2.625134  1.900047
  N     9.840169 -0.836030  1.646941
  N     9.496734  3.478859  1.671012
  N     7.756911 -1.365641  0.346535
  N     7.436855  2.482501  0.581165
  N     6.846410 -0.741078  4.092483
  N     6.785464  2.842607  4.459817
  S     6.203182 -1.322139  2.680187
  S     6.056724  2.201717  3.064459
  S     9.380467 -1.099776  0.105920
  S     8.935706  3.082564  0.180588
  S     8.559547 -0.607038  4.072286
  S     8.359634  3.470961  4.282870
