16  
    
  C    10.314128  0.407922  2.522349
  C    10.501463  4.178766  3.093508
  C     9.133868 -0.097084  1.905454
  C     9.261859  3.781091  2.533812
  N    11.424435  0.288270  1.826472
  N    11.432563  4.234131  2.164599
  N     9.353600 -0.600109  0.733560
  N     9.217152  3.393111  1.259103
  N     8.368911  0.577867  4.231641
  N     8.655503  4.453079  4.925114
  S     7.745875 -0.307141  2.971810
  S     7.904315  3.919982  3.562217
  S    10.986585 -0.454038  0.346067
  S    10.785560  3.637500  0.716154
  S     9.995399  0.919211  4.194217
  S    10.321239  4.653662  4.798824
