16  
    
  C     4.259230 -2.404073  1.769605
  C     3.966172  1.313621  1.256378
  C     3.072229 -3.007857  1.172388
  C     2.861713  0.468873  0.751753
  N     5.279032 -2.246331  0.952018
  N     4.992610  1.455639  0.432450
  N     3.157739 -3.046217 -0.145643
  N     3.028110  0.228202 -0.541424
  N     2.618115 -2.798559  3.701216
  N     2.341464  0.995370  3.257967
  S     1.876895 -3.418853  2.345664
  S     1.689699  0.071143  1.947109
  S     4.702882 -2.739080 -0.515404
  S     4.607041  0.707714 -0.974957
  S     4.063135 -1.988868  3.439496
  S     3.791250  1.725317  2.976714
