16  
    
  C    12.711491  1.579886  3.351427
  C    12.683585  5.380102  3.247338
  C    11.453105  1.155373  2.776838
  C    11.417264  4.842068  2.719800
  N    13.679814  1.971140  2.543376
  N    13.545350  5.628080  2.303667
  N    11.534346  1.199477  1.474571
  N    11.436708  4.625117  1.411272
  N    10.982635  1.212005  5.306845
  N    11.123753  4.940097  5.328794
  S    10.166343  0.890594  3.909459
  S    10.272807  4.428152  3.910559
  S    13.001016  1.699906  1.001613
  S    12.916293  5.185757  0.824814
  S    12.594098  1.638776  5.085857
  S    12.681075  5.522854  4.999394
