16  
    
  C     4.248909 -2.339014  1.812307
  C     4.066707  1.095306  1.181687
  C     3.115401 -3.015119  1.266744
  C     2.984379  0.317376  0.665654
  N     5.162159 -1.930296  0.963805
  N     4.974168  1.520936  0.286493
  N     3.265229 -3.299287 -0.004115
  N     3.211045 -0.054285 -0.602326
  N     2.560645 -2.505198  3.738462
  N     2.223881  0.924491  3.006970
  S     1.798871 -3.120061  2.383469
  S     1.652705  0.062579  1.705635
  S     4.746289 -2.629676 -0.483832
  S     4.549541  0.703625 -1.128876
  S     4.146624 -2.005852  3.496575
  S     3.778610  1.654894  2.855457
