16  
    
  C    12.816902  1.553525  3.558311
  C    12.361237  4.979348  3.463937
  C    11.561181  1.247488  3.006131
  C    11.213598  4.541871  2.684861
  N    13.869062  1.537134  2.738951
  N    13.400229  5.189080  2.686500
  N    11.642230  1.152784  1.706035
  N    11.410016  4.335242  1.412705
  N    10.968453  1.896993  5.399027
  N    10.437054  4.380965  5.153526
  S    10.134475  1.385603  4.061164
  S     9.769663  4.218562  3.582085
  S    13.244503  1.305959  1.248604
  S    12.953239  4.819416  1.142015
  S    12.642709  1.886971  5.346323
  S    11.927756  5.165028  5.164035
