16  
    
  C    12.001932  1.234664  3.346996
  C    11.871638  4.727311  3.529318
  C    10.822091  0.782804  2.652067
  C    10.659266  4.330828  2.862113
  N    13.023104  1.423399  2.514641
  N    12.965893  4.962473  2.864748
  N    10.980022  0.449712  1.379794
  N    10.844022  4.251700  1.534779
  N    10.066792  1.218192  5.031998
  N     9.888499  4.760421  5.280306
  S     9.456369  0.448269  3.702462
  S     9.201805  4.290182  3.818616
  S    12.541139  0.892054  1.012858
  S    12.463136  4.690495  1.270197
  S    11.671307  1.553191  5.051583
  S    11.549897  5.074277  5.209485
