16  
    
  C    10.162643  0.582253  2.908318
  C    10.753588  4.290142  2.887516
  C     9.005179 -0.052406  2.260358
  C     9.504188  4.146760  2.144719
  N    11.110800  1.029822  2.066842
  N    11.835277  4.607735  2.172781
  N     9.059095  0.012495  0.917538
  N     9.728610  4.223471  0.813880
  N     8.536853  0.085241  4.810688
  N     8.937993  3.833517  4.649003
  S     7.833818 -0.617926  3.455455
  S     8.131501  3.681867  3.200919
  S    10.548673  0.646028  0.578617
  S    11.347311  4.607460  0.641049
  S    10.135320  0.352798  4.617139
  S    10.532510  4.267236  4.541965
