16  
    
  C     6.147358 -1.555966  2.433184
  C     6.577059  2.174430  2.198677
  C     4.996178 -2.105024  1.766632
  C     5.400539  1.591616  1.641724
  N     7.150422 -1.281974  1.608990
  N     7.605345  2.420796  1.390114
  N     5.139667 -2.253344  0.477791
  N     5.461327  1.490349  0.319015
  N     4.403611 -2.149203  4.258719
  N     4.993758  1.625868  4.178873
  S     3.702388 -2.686373  2.851591
  S     4.116762  1.352231  2.788362
  S     6.594535 -1.647309  0.085538
  S     6.965886  2.080175 -0.156805
  S     5.946419 -1.572527  4.193159
  S     6.543959  2.252808  3.922732
