16  
    
  C    10.061323  0.052473  2.688864
  C     9.885557  3.992540  2.745287
  C     8.891166 -0.544062  2.111764
  C     8.905869  3.066022  2.231415
  N    11.039947  0.253340  1.752882
  N    10.871298  4.345964  1.924605
  N     8.953455 -0.677124  0.760180
  N     9.270503  2.666887  1.018648
  N     8.319125 -0.413837  4.557903
  N     8.217975  3.492571  4.696391
  S     7.545691 -0.809157  3.126163
  S     7.811391  2.481214  3.424723
  S    10.435813 -0.221018  0.290396
  S    10.653692  3.333102  0.574267
  S     9.826016  0.166093  4.386870
  S     9.473904  4.548376  4.307876
