16  
    
  C     7.204838 -1.355683  2.193567
  C     7.466848  2.136091  2.180458
  C     6.016156 -1.882968  1.554306
  C     6.223724  1.605193  1.596416
  N     8.254830 -1.259561  1.359126
  N     8.490240  2.260935  1.364150
  N     6.219935 -2.389144  0.320106
  N     6.327308  1.333646  0.322350
  N     5.526812 -1.546070  4.146353
  N     5.676370  2.056742  4.041407
  S     4.695826 -2.129170  2.804062
  S     4.848004  1.623512  2.665378
  S     7.790413 -2.005152 -0.083883
  S     7.880306  1.767834 -0.197855
  S     7.027286 -0.950199  3.881414
  S     7.234424  2.596414  3.844863
