16  
    
  C     6.062874 -2.120727  1.705080
  C     6.154890  1.768547  1.828292
  C     4.817233 -2.514342  1.103382
  C     4.851910  1.837173  1.210621
  N     7.146354 -2.147704  0.906299
  N     7.187584  1.645986  0.991691
  N     4.940738 -2.595840 -0.215824
  N     4.886134  1.741548 -0.111780
  N     4.285391 -2.128744  3.630644
  N     4.407103  1.871374  3.722274
  S     3.443266 -2.502248  2.202080
  S     3.514560  1.966627  2.305390
  S     6.521070 -2.548926 -0.571932
  S     6.501617  1.508952 -0.545761
  S     5.946970 -1.851701  3.457184
  S     6.064716  1.869024  3.556660
