16  
    
  C     9.766539 -0.481250  2.596102
  C     9.661471  3.393343  2.542835
  C     8.490555 -0.938315  2.025947
  C     8.433188  3.190615  1.935972
  N    10.726818 -0.319929  1.707741
  N    10.732587  3.649088  1.788492
  N     8.486892 -0.973174  0.697724
  N     8.513636  3.179376  0.614009
  N     8.071072 -0.541185  4.516945
  N     7.993096  2.867985  4.487369
  S     7.186780 -1.003726  3.209107
  S     7.135632  2.876161  3.118160
  S    10.066994 -0.612420  0.211285
  S    10.093705  3.496951  0.271371
  S     9.702828 -0.267545  4.314772
  S     9.617056  3.194606  4.230484
