16  
    
  C     6.175994 -2.002848  1.661180
  C     6.294052  1.835190  1.861260
  C     4.890141 -2.412874  1.042817
  C     5.048188  1.750083  1.155809
  N     7.177324 -1.755790  0.845731
  N     7.352140  1.926098  1.044463
  N     5.030031 -2.646912 -0.223338
  N     5.198571  1.704848 -0.175998
  N     4.363063 -1.812522  3.464870
  N     4.447581  1.852348  3.679340
  S     3.562482 -2.509721  2.161546
  S     3.640962  1.894442  2.227251
  S     6.657745 -2.316698 -0.667700
  S     6.787431  1.779106 -0.472803
  S     5.966586 -1.513771  3.359671
  S     6.109419  1.882465  3.579942
