16  
    
  C     6.355055 -1.692208  1.606962
  C     6.328658  2.182599  1.905631
  C     5.206301 -2.240452  0.948384
  C     5.227675  1.414902  1.290302
  N     7.348925 -1.394038  0.785082
  N     7.377468  2.417879  1.121843
  N     5.356980 -2.426577 -0.354214
  N     5.410606  1.156766 -0.004100
  N     4.404901 -1.708902  3.350194
  N     4.575626  1.919792  3.760478
  S     3.865342 -2.518921  1.994463
  S     3.910986  1.304147  2.349679
  S     6.868641 -1.917535 -0.726137
  S     7.002565  1.740766 -0.384975
  S     5.982081 -1.246244  3.276563
  S     6.159651  2.508394  3.585969
