16  
    
  C     9.131593 -0.446985  2.530839
  C     9.607922  3.572554  2.853018
  C     7.851624 -0.832536  1.931834
  C     8.357311  3.066708  2.275232
  N    10.106808 -0.202653  1.638159
  N    10.582162  3.672429  1.956892
  N     7.920129 -1.056210  0.630743
  N     8.410229  2.785208  0.986401
  N     7.377734 -0.743662  4.406813
  N     7.688173  3.700672  4.633512
  S     6.561770 -1.172233  3.032523
  S     6.934249  3.236186  3.242058
  S     9.444986 -0.595224  0.151337
  S     9.959479  3.048160  0.517551
  S     9.007932 -0.410546  4.291388
  S     9.307029  3.936674  4.501914
