16  
    
  C     9.779757 -0.174293  2.846625
  C     9.574960  3.875012  2.704278
  C     8.599845 -0.660681  2.086237
  C     8.354279  3.598010  1.992017
  N    10.846806 -0.066461  2.119767
  N    10.658888  3.921444  1.937931
  N     8.831973 -0.844827  0.802787
  N     8.506945  3.502972  0.683141
  N     7.879058 -0.369797  4.606963
  N     7.870292  3.492095  4.564009
  S     7.213798 -0.862517  3.147445
  S     7.101822  3.204543  3.118599
  S    10.417116 -0.378326  0.541461
  S    10.149163  3.676516  0.445835
  S     9.489347  0.058107  4.548005
  S     9.481190  3.783664  4.473910
