16  
    
  C    10.211606 -0.297207  2.888368
  C    10.338972  3.888794  3.159966
  C     8.976967 -0.416807  2.182526
  C     9.080417  3.878272  2.450004
  N    11.240667 -0.016251  2.056384
  N    11.336396  3.804961  2.303360
  N     9.061067 -0.396387  0.834304
  N     9.154214  3.782574  1.116918
  N     8.409259 -0.553894  4.636358
  N     8.500819  4.005619  5.011154
  S     7.580166 -0.542208  3.190383
  S     7.765589  3.906875  3.492519
  S    10.656537 -0.050695  0.474806
  S    10.707741  3.688027  0.736323
  S    10.047701 -0.129429  4.646209
  S    10.205908  4.036783  4.948920
