16  
    
  C    12.184588  1.470709  3.320439
  C    12.239800  5.191654  3.643336
  C    10.935446  0.944129  2.695053
  C    10.962878  4.833133  3.066090
  N    13.200394  1.601187  2.468150
  N    13.273676  5.155578  2.831172
  N    11.138258  0.616463  1.441897
  N    11.018833  4.696895  1.716069
  N    10.309229  1.172959  5.114098
  N    10.543726  5.005818  5.629098
  S     9.523561  0.761557  3.702950
  S     9.739068  4.672169  4.204126
  S    12.694848  0.960934  1.031040
  S    12.596473  4.880902  1.297486
  S    11.895799  1.653567  5.019611
  S    12.161757  5.429880  5.454703
