16  
    
  C     4.157149 -2.624452  1.571155
  C     4.250987  1.355976  1.680971
  C     2.989799 -3.272358  1.067509
  C     2.955062  1.248842  1.119841
  N     5.182174 -2.574799  0.715610
  N     5.272969  1.167667  0.849778
  N     3.074447 -3.795255 -0.160000
  N     2.969860  0.979029 -0.186139
  N     2.494760 -2.539181  3.465516
  N     2.556447  1.621788  3.614415
  S     1.652890 -3.093163  2.124511
  S     1.632180  1.583637  2.190290
  S     4.569452 -3.197127 -0.722274
  S     4.500979  0.964981 -0.664254
  S     4.133419 -2.248265  3.223369
  S     4.216776  1.488469  3.391757
