16  
    
  C     4.220467 -2.641661  1.561338
  C     4.240680  1.382351  1.636409
  C     2.988921 -3.236405  1.048285
  C     2.904602  1.230574  1.073817
  N     5.178653 -2.538771  0.647931
  N     5.251507  1.310360  0.773189
  N     3.091986 -3.689544 -0.171493
  N     2.923437  1.002077 -0.233378
  N     2.411150 -2.573309  3.458029
  N     2.554891  1.626755  3.526110
  S     1.647684 -3.081849  2.103344
  S     1.608923  1.568254  2.201834
  S     4.574996 -3.287026 -0.744134
  S     4.546863  0.985207 -0.664898
  S     4.033392 -2.291507  3.292279
  S     4.226822  1.496977  3.362884
