16  
    
  C    11.005784  0.573631  3.178388
  C    11.062816  4.311171  3.411289
  C     9.853143 -0.023217  2.525366
  C     9.874823  3.766066  2.813082
  N    11.990132  1.005853  2.402717
  N    12.017672  4.546596  2.507372
  N     9.940173 -0.043568  1.203758
  N     9.855348  3.722452  1.481924
  N     9.143035  0.133519  4.935261
  N     9.297479  4.033855  5.297397
  S     8.431798 -0.134275  3.452573
  S     8.556668  3.498232  3.889262
  S    11.422757  0.672110  0.834945
  S    11.397314  4.232837  1.044414
  S    10.728018  0.631124  4.884479
  S    10.840471  4.599740  5.129391
