16  
    
  C    11.986251  1.429418  3.459697
  C    12.327969  5.084703  3.228154
  C    10.905238  0.833628  2.730665
  C    11.053810  4.781157  2.659687
  N    13.049306  1.549069  2.688326
  N    13.380496  5.020429  2.440727
  N    11.133338  0.414121  1.523392
  N    11.130899  4.400362  1.403635
  N    10.136674  1.115984  5.241318
  N    10.420290  5.381632  5.046148
  S     9.518163  0.679339  3.737006
  S     9.648902  4.803552  3.711056
  S    12.704770  0.898869  1.250243
  S    12.711805  4.498753  0.960569
  S    11.735829  1.628902  5.137045
  S    12.007277  5.718346  4.894116
