16  
    
  C    11.979562  1.496983  3.570448
  C    11.908119  5.070781  3.766417
  C    10.906517  0.857062  2.910735
  C    10.711725  4.527838  3.193936
  N    12.878822  2.063130  2.791955
  N    12.837251  5.380509  2.844926
  N    11.081805  0.637921  1.623738
  N    10.660043  4.570535  1.892815
  N    10.503685  0.654771  5.401237
  N    10.496943  4.290827  5.832025
  S     9.712486  0.253392  4.032394
  S     9.601060  3.920544  4.467952
  S    12.426461  1.562286  1.238145
  S    12.211977  5.044637  1.378270
  S    11.903211  1.493552  5.278148
  S    11.962976  4.996061  5.470838
