16  
    
  C     6.165069 -1.848459  1.640508
  C     6.326177  1.871001  1.878148
  C     5.020195 -2.479927  1.034487
  C     5.051772  1.712300  1.150325
  N     7.156450 -1.658768  0.788207
  N     7.407351  1.929904  1.114454
  N     5.137753 -2.674570 -0.283835
  N     5.173220  1.727534 -0.157192
  N     4.301359 -1.730973  3.486777
  N     4.482702  1.973899  3.687496
  S     3.632644 -2.463348  2.136699
  S     3.740392  1.775573  2.185247
  S     6.649200 -2.210756 -0.655897
  S     6.844495  1.852222 -0.494902
  S     5.998277 -1.461278  3.293768
  S     6.146589  1.933432  3.613029
