16  
    
  C     9.080471 -0.378046  2.503056
  C     9.594694  3.552059  2.869088
  C     7.851822 -0.833738  1.944391
  C     8.320347  3.091735  2.296415
  N    10.129025 -0.190163  1.618019
  N    10.585988  3.662034  1.961575
  N     7.910743 -1.018474  0.615663
  N     8.449780  2.808216  1.020720
  N     7.383896 -0.767978  4.437921
  N     7.663392  3.629568  4.641178
  S     6.562598 -1.168835  3.069235
  S     6.881984  3.217245  3.244435
  S     9.436309 -0.584010  0.154354
  S     9.944334  3.069814  0.492997
  S     8.987369 -0.419586  4.270732
  S     9.295902  3.941234  4.500639
