16  
    
  C    12.826948  1.714243  3.468743
  C    12.294028  5.044279  3.353733
  C    11.544777  1.233805  2.856488
  C    11.122604  4.626939  2.654830
  N    13.822209  1.674196  2.573605
  N    13.406479  5.242754  2.681596
  N    11.660337  0.986297  1.555718
  N    11.421543  4.501250  1.326302
  N    11.167720  1.686028  5.321046
  N    10.416346  4.664720  5.133239
  S    10.290155  1.266301  4.010198
  S     9.721463  4.281829  3.648482
  S    13.258541  1.192280  1.142548
  S    13.038294  4.916009  1.131049
  S    12.796801  1.907407  5.195610
  S    12.011806  5.090646  5.053153
