16  
    
  C     3.655534 -2.928436  1.144854
  C     3.943016  0.822687  1.464400
  C     2.484159 -3.535012  0.609100
  C     2.722151  0.363200  0.858340
  N     4.658527 -2.781852  0.259566
  N     4.955578  1.140684  0.670609
  N     2.537267 -3.910181 -0.673330
  N     2.886635  0.125971 -0.449469
  N     1.866774 -2.958752  2.962299
  N     2.242492  0.552668  3.337622
  S     1.194343 -3.811871  1.695716
  S     1.480514  0.102144  1.988121
  S     4.072622 -3.428720 -1.178347
  S     4.390782  0.626788 -0.842856
  S     3.413083 -2.383771  2.778059
  S     3.798061  1.134129  3.151602
