16  
    
  C     8.959002 -0.355823  2.526132
  C     8.817657  3.360424  2.601320
  C     7.685731 -0.667197  1.906842
  C     7.540895  2.842271  2.069752
  N     9.988125 -0.058624  1.750095
  N     9.715558  3.774577  1.733723
  N     7.835649 -0.831112  0.599944
  N     7.617963  2.922386  0.752583
  N     7.230515 -0.532267  4.430636
  N     7.213593  2.930564  4.564865
  S     6.433928 -1.033518  3.043778
  S     6.230846  2.667911  3.236547
  S     9.378361 -0.382019  0.258462
  S     9.076404  3.458559  0.220709
  S     8.863891 -0.304119  4.245617
  S     8.794405  3.369011  4.282462
