16  
    
  C    11.559254  1.233249  3.055021
  C    11.420117  4.896535  3.085206
  C    10.467210  0.320766  2.586772
  C    10.293934  4.329759  2.351302
  N    12.341836  1.695756  2.095566
  N    12.398971  5.235687  2.274922
  N    10.474186  0.238677  1.252919
  N    10.511519  4.171841  1.046676
  N     9.939681  0.799680  5.096472
  N     9.546091  4.541732  4.798736
  S     9.196170  0.096508  3.808107
  S     8.957741  3.883743  3.345749
  S    11.751551  1.149970  0.621281
  S    11.978527  4.884083  0.774104
  S    11.417063  1.464765  4.832141
  S    11.116841  5.120382  4.734228
