16  
    
  C     4.088114 -2.890212  1.542643
  C     4.119298  1.215239  1.498490
  C     2.863379 -3.352124  0.925743
  C     2.801579  0.936794  0.914294
  N     5.124837 -2.826567  0.697991
  N     5.147230  1.267879  0.642995
  N     2.966626 -3.635049 -0.362074
  N     2.907140  0.714320 -0.394722
  N     2.072690 -2.699859  3.237901
  N     2.448442  1.277471  3.465883
  S     1.450351 -3.467583  1.900345
  S     1.577330  0.728483  2.141359
  S     4.516788 -3.287805 -0.775294
  S     4.522215  0.964878 -0.870020
  S     3.695522 -2.357417  3.226134
  S     4.028263  1.541125  3.252829
