16  
    
  C     9.757585 -0.667042  2.654079
  C     9.628154  3.389707  2.615532
  C     8.498275 -0.918601  2.048282
  C     8.353154  3.100398  1.886985
  N    10.711202 -0.412830  1.760311
  N    10.645760  3.558653  1.768671
  N     8.550406 -1.069697  0.728452
  N     8.477952  3.175229  0.545867
  N     8.036988 -0.529981  4.557466
  N     7.971869  2.879992  4.460687
  S     7.205654 -0.973694  3.177367
  S     7.088158  2.940489  3.044443
  S    10.047070 -0.626863  0.249264
  S    10.098131  3.438871  0.244149
  S     9.634258 -0.291418  4.381667
  S     9.590114  3.177786  4.374463
