16  
    
  C     9.124752 -0.366187  2.472095
  C     9.358719  3.190310  2.706500
  C     7.931934 -0.937120  1.934977
  C     8.083142  2.739010  2.097539
  N    10.098638 -0.190647  1.542478
  N    10.368731  3.155982  1.824693
  N     7.993923 -1.413417  0.663250
  N     8.193269  2.492271  0.794269
  N     7.374060 -0.355962  4.323201
  N     7.673466  3.215757  4.552797
  S     6.672603 -1.166721  3.063155
  S     6.764654  2.917967  3.192162
  S     9.520368 -0.955078  0.172548
  S     9.764408  2.756240  0.301187
  S     8.949164  0.098646  4.146203
  S     9.293937  3.625264  4.409979
