16  
    
  C     5.847561 -2.132254  1.841780
  C     6.128206  1.780120  1.958458
  C     4.593447 -2.440192  1.181039
  C     4.765844  1.681947  1.421250
  N     6.893661 -2.124436  1.056959
  N     7.046279  1.388316  1.080651
  N     4.700350 -2.610167 -0.110662
  N     4.663570  1.324937  0.130941
  N     3.996983 -2.364192  3.730233
  N     4.537895  2.019637  3.958716
  S     3.311882 -2.742461  2.225232
  S     3.562321  2.058231  2.614286
  S     6.323418 -2.342514 -0.479925
  S     6.239059  1.101011 -0.362712
  S     5.658383 -2.009712  3.567718
  S     6.180424  2.097644  3.640910
