16  
    
  C     7.907947 -0.662477  2.406248
  C     8.278081  2.987738  2.315171
  C     6.858330 -1.320720  1.706800
  C     7.011044  2.583151  1.780182
  N     9.010162 -0.445620  1.673099
  N     9.273530  3.064818  1.423820
  N     7.055067 -1.447964  0.387170
  N     6.991804  2.256949  0.473594
  N     6.183252 -1.132973  4.155393
  N     6.749845  2.766032  4.320397
  S     5.494338 -1.696823  2.700514
  S     5.796136  2.600307  3.030229
  S     8.613525 -0.903347  0.128790
  S     8.626282  2.544770 -0.022243
  S     7.741995 -0.476161  4.133575
  S     8.275650  3.275867  4.036315
