16  
    
  C    10.400956 -0.015699  2.785865
  C    10.380160  4.209282  3.087057
  C     9.164613 -0.458619  2.182398
  C     9.064644  3.891037  2.611502
  N    11.412644  0.093618  1.913704
  N    11.356618  4.031361  2.179173
  N     9.271067 -0.880607  0.937520
  N     9.032967  3.484000  1.359738
  N     8.515385  0.208606  4.556669
  N     8.568292  4.316625  5.084363
  S     7.847769 -0.474662  3.225210
  S     7.691225  3.902552  3.697226
  S    10.832834 -0.519057  0.418185
  S    10.551529  3.520361  0.754378
  S    10.120287  0.498931  4.413245
  S    10.183589  4.606318  4.788069
