16  
    
  C     8.196522 -0.860910  2.473298
  C     8.194747  2.990900  2.366781
  C     7.004918 -1.336856  1.833290
  C     7.083719  2.334406  1.731401
  N     9.221853 -0.666442  1.695011
  N     9.189581  3.240816  1.530422
  N     7.152914 -1.677407  0.573661
  N     7.149118  2.185285  0.426637
  N     6.357663 -0.864210  4.341152
  N     6.369842  2.849435  4.190987
  S     5.658446 -1.462366  2.918217
  S     5.741485  2.130538  2.806076
  S     8.718426 -1.263235  0.206880
  S     8.705691  2.706826 -0.009301
  S     7.948648 -0.431946  4.170330
  S     7.999928  3.292990  4.086241
