16  
    
  C     9.760577  0.178084  2.745316
  C     9.775015  3.782646  2.611056
  C     8.555160 -0.373143  2.150935
  C     8.636564  3.159497  1.998897
  N    10.638464  0.534774  1.799354
  N    10.676796  4.099037  1.683860
  N     8.537872 -0.396645  0.807902
  N     8.706336  2.922489  0.692510
  N     8.170222 -0.599345  4.665516
  N     8.140922  3.253001  4.539507
  S     7.439473 -1.052353  3.259557
  S     7.336071  2.728443  3.160383
  S     9.982200  0.148377  0.322433
  S    10.144853  3.577638  0.251132
  S     9.765953 -0.085228  4.461174
  S     9.733093  3.902555  4.389688
