16  
    
  C    11.932095  1.283194  3.286188
  C    11.788180  4.814123  3.666760
  C    10.858051  0.645601  2.637207
  C    10.612045  4.458451  2.898885
  N    12.990071  1.543625  2.528747
  N    12.891547  4.985008  2.881273
  N    11.040308  0.443582  1.326992
  N    10.767663  4.243629  1.605504
  N    10.213852  0.953117  5.135791
  N     9.913627  4.520951  5.416182
  S     9.456879  0.525090  3.700341
  S     9.262156  4.099478  3.927945
  S    12.585635  1.083503  0.994443
  S    12.434459  4.643646  1.307534
  S    11.785846  1.495700  5.014758
  S    11.485239  5.071592  5.374270
