16  
    
  C     8.975046 -0.334241  2.351719
  C     9.459237  3.290580  2.725889
  C     7.854069 -0.961243  1.686455
  C     8.210140  3.007395  2.080466
  N    10.047739 -0.276108  1.618754
  N    10.498543  3.225122  1.913935
  N     8.069199 -1.251892  0.441431
  N     8.270534  2.687793  0.782850
  N     7.081187 -0.317717  4.085912
  N     7.790189  3.289502  4.660824
  S     6.487858 -1.072440  2.767141
  S     6.869062  2.991219  3.270153
  S     9.645282 -0.893931  0.145750
  S     9.922812  2.849567  0.444550
  S     8.708350  0.124490  3.978850
  S     9.441799  3.718935  4.462696
