16  
    
  C     8.412063 -0.904364  2.442584
  C     8.178815  2.886447  2.314888
  C     7.125946 -1.448146  2.005290
  C     7.010113  2.278202  1.659367
  N     9.324879 -0.915904  1.505497
  N     9.278375  2.974607  1.543430
  N     7.176398 -1.922089  0.781993
  N     7.165328  1.995485  0.373613
  N     6.741186 -0.757310  4.520137
  N     6.234188  2.727283  4.076450
  S     5.858596 -1.409900  3.280145
  S     5.601336  2.048125  2.661750
  S     8.693419 -1.616314  0.123378
  S     8.753448  2.478954  0.064642
  S     8.357056 -0.417076  4.153243
  S     7.838999  3.151654  3.982755
