16  
    
  C     6.128806 -1.596033  2.464554
  C     6.601279  2.123535  2.235720
  C     4.986500 -2.194459  1.805615
  C     5.363358  1.681721  1.594692
  N     7.063027 -1.160804  1.648012
  N     7.530162  2.427936  1.335750
  N     5.098807 -2.314401  0.514822
  N     5.454677  1.562488  0.243474
  N     4.454043 -2.310458  4.283473
  N     5.039149  1.634208  4.146944
  S     3.756347 -2.715220  2.824987
  S     4.099157  1.382607  2.792932
  S     6.627667 -1.717734  0.126869
  S     6.997230  2.013061 -0.118887
  S     5.919694 -1.493961  4.216524
  S     6.566155  2.259651  3.966837
