16  
    
  C     7.272312 -1.424316  2.246244
  C     7.258703  2.225819  2.076753
  C     6.025012 -1.887431  1.660441
  C     6.020657  1.684021  1.483513
  N     8.279671 -1.329815  1.376666
  N     8.264911  2.346976  1.235495
  N     6.142751 -2.228527  0.393976
  N     6.135822  1.296601  0.212735
  N     5.382765 -1.234062  3.996951
  N     5.580886  2.079068  4.028387
  S     4.715723 -2.087090  2.726272
  S     4.732914  1.600958  2.650425
  S     7.619106 -1.751404 -0.080643
  S     7.718923  1.818464 -0.261721
  S     7.043673 -0.933993  3.929134
  S     7.174582  2.446189  3.814884
