16  
    
  C    12.587261  1.693799  3.368994
  C    12.818455  5.361586  3.343407
  C    11.321077  1.319216  2.751424
  C    11.633970  4.840796  2.706113
  N    13.592559  2.006114  2.560405
  N    13.845686  5.559810  2.523083
  N    11.383808  1.321151  1.438221
  N    11.642869  4.812038  1.400206
  N    10.860672  0.972746  5.278446
  N    11.071462  5.055470  5.189523
  S    10.077861  0.729169  3.803274
  S    10.347503  4.477222  3.833571
  S    12.985074  1.691719  1.046970
  S    13.138362  5.293353  0.956867
  S    12.388067  1.586476  5.091454
  S    12.640990  5.593275  5.136861
