16  
    
  C     8.693626 -0.907890  2.319137
  C     8.394579  3.278790  2.266792
  C     7.546494 -1.527862  1.683910
  C     7.245212  2.618873  1.725575
  N     9.746200 -0.761537  1.565490
  N     9.377080  3.567476  1.426709
  N     7.685537 -1.653088  0.398160
  N     7.393442  2.298942  0.457370
  N     7.061039 -1.450940  4.177065
  N     6.784656  2.808114  4.256699
  S     6.265595 -1.748815  2.806082
  S     5.981266  2.209421  2.960508
  S     9.267886 -1.218278  0.072024
  S     8.834749  2.954662 -0.033904
  S     8.581655 -0.788622  4.036728
  S     8.278018  3.508551  4.009171
