16  
    
  C     7.903179 -0.768547  2.293015
  C     8.280328  2.852452  2.384722
  C     6.833755 -1.368612  1.595038
  C     7.008632  2.559227  1.846201
  N     8.943435 -0.425308  1.500526
  N     9.229025  2.950576  1.464733
  N     6.959987 -1.427514  0.232179
  N     6.998535  2.461560  0.521244
  N     5.990100 -1.114380  4.064238
  N     6.774291  3.002500  4.363693
  S     5.491465 -1.815490  2.683274
  S     5.841310  2.679058  3.082497
  S     8.502968 -0.809526 -0.073106
  S     8.525629  2.647180 -0.010736
  S     7.596494 -0.563371  4.047404
  S     8.409329  3.083875  4.109142
