16  
    
  C     3.223155 -2.688556  1.661067
  C     3.570798  0.888289  1.417899
  C     2.172760 -3.357393  0.890157
  C     2.382811  0.388564  0.807577
  N     4.238909 -2.316864  0.897135
  N     4.588185  1.155709  0.597116
  N     2.427066 -3.467751 -0.400390
  N     2.448539  0.371608 -0.514972
  N     1.347186 -3.489576  3.334615
  N     1.965521  0.164041  3.387944
  S     0.757338 -3.819212  1.783694
  S     1.154153 -0.013284  1.949416
  S     3.846501 -2.644433 -0.681709
  S     3.927329  0.874123 -0.949054
  S     2.961078 -2.889625  3.388983
  S     3.549024  0.656137  3.153227
