16  
    
  C     9.035501 -0.502286  2.475082
  C     9.532296  3.476857  2.685142
  C     7.910889 -0.926627  1.667869
  C     8.238685  3.179619  2.100489
  N    10.180816 -0.437036  1.772764
  N    10.593841  3.415748  1.869547
  N     8.208395 -1.195647  0.389167
  N     8.289470  2.861465  0.785313
  N     7.080039 -0.570575  4.077625
  N     7.823200  3.778653  4.609172
  S     6.424730 -1.046542  2.621841
  S     6.994235  3.383093  3.256683
  S     9.839136 -0.901283  0.205285
  S     9.965265  2.875292  0.467433
  S     8.690859 -0.185821  4.119861
  S     9.456365  3.864868  4.390275
