16  
    
  C     8.723888 -0.543392  2.389115
  C     8.562895  3.230439  2.594928
  C     7.562424 -1.005304  1.702924
  C     7.396178  2.730372  1.985400
  N     9.855342 -0.551130  1.627963
  N     9.573964  3.488069  1.743375
  N     7.732257 -1.303487  0.391055
  N     7.501385  2.459909  0.680094
  N     6.844769 -0.815527  4.164437
  N     6.804451  2.777654  4.508512
  S     6.151673 -0.945248  2.654420
  S     6.019584  2.440266  3.030976
  S     9.359424 -1.070365  0.106730
  S     8.999522  3.015414  0.198998
  S     8.415412 -0.363596  4.149148
  S     8.440624  3.244007  4.364528
