16  
    
  C    10.972232  0.719341  2.848388
  C    11.154391  4.150166  3.313223
  C     9.859369 -0.029787  2.372350
  C     9.887351  4.007367  2.682056
  N    11.940146  0.923818  1.957841
  N    12.161509  4.224496  2.461999
  N    10.001518 -0.488711  1.110541
  N     9.899362  3.930743  1.340867
  N     9.427420  0.629481  4.863632
  N     9.388986  4.353550  5.128595
  S     8.654007 -0.223681  3.607404
  S     8.514207  3.877856  3.773296
  S    11.513881  0.103224  0.578478
  S    11.504258  4.184457  0.964064
  S    11.044338  1.063879  4.559002
  S    11.025957  4.420412  4.969724
