16  
    
  C     9.549760 -0.540273  2.750915
  C     9.378398  3.340776  2.560293
  C     8.218136 -0.802182  2.136903
  C     8.121231  3.018251  1.933396
  N    10.572313 -0.478304  1.899899
  N    10.457551  3.250454  1.788749
  N     8.324478 -1.136910  0.860611
  N     8.206541  2.821485  0.638845
  N     7.719682 -0.692454  4.609744
  N     7.492751  3.296293  4.370514
  S     6.889372 -1.023680  3.210814
  S     6.750838  2.952127  2.980625
  S     9.929811 -0.970675  0.438200
  S     9.838387  2.918352  0.223868
  S     9.374292 -0.317094  4.475498
  S     9.101941  3.476497  4.185611
