16  
    
  C     7.061285 -1.600368  2.291886
  C     7.076311  2.330426  2.081581
  C     5.823070 -1.789456  1.563305
  C     5.883945  1.820398  1.401635
  N     8.109445 -1.388826  1.484150
  N     8.162484  2.370123  1.294432
  N     5.976307 -1.862873  0.239870
  N     6.129940  1.521801  0.128083
  N     5.249226 -1.733865  4.029370
  N     5.204471  2.014690  3.813670
  S     4.436076 -2.111580  2.580021
  S     4.485645  1.651804  2.384340
  S     7.567320 -1.429538 -0.030301
  S     7.678266  1.909983 -0.166099
  S     6.869487 -1.406448  3.969115
  S     6.770003  2.521581  3.844219
