16  
    
  C     7.852472 -0.817200  2.010164
  C     8.115463  3.028095  2.473324
  C     6.682049 -1.390342  1.371143
  C     6.921346  2.555823  1.817220
  N     8.901505 -0.638703  1.182663
  N     9.192303  3.181411  1.680920
  N     6.854745 -1.686840  0.068106
  N     7.105065  2.421360  0.515405
  N     6.065704 -0.925411  3.780423
  N     6.360143  2.505561  4.293246
  S     5.370128 -1.720311  2.423155
  S     5.514963  2.328198  2.890179
  S     8.369718 -1.199390 -0.276807
  S     8.645781  2.871234  0.098016
  S     7.652359 -0.597320  3.649603
  S     7.923639  2.996401  4.206612
