16  
    
  C    10.424216 -0.019131  2.771502
  C    10.364048  4.240588  3.059748
  C     9.229906 -0.453325  2.198781
  C     9.049950  3.872334  2.630905
  N    11.447146  0.080257  1.892641
  N    11.379775  4.022957  2.183887
  N     9.317992 -0.918210  0.938768
  N     9.003723  3.512586  1.375405
  N     8.503532  0.226579  4.546772
  N     8.571555  4.268990  5.098410
  S     7.825799 -0.450431  3.209293
  S     7.684906  3.907242  3.699719
  S    10.832094 -0.527137  0.406006
  S    10.586983  3.511720  0.778274
  S    10.101323  0.556811  4.375695
  S    10.195465  4.645478  4.769720
