16  
    
  C     3.319557 -3.048471  1.113356
  C     3.661877  0.662940  1.370877
  C     2.073298 -3.372235  0.421590
  C     2.474832  0.165870  0.692742
  N     4.405063 -2.970849  0.386317
  N     4.710669  0.759541  0.572353
  N     2.238265 -3.534506 -0.883235
  N     2.624464 -0.021131 -0.616083
  N     1.556714 -3.423386  3.021288
  N     1.772337  0.408337  3.199264
  S     0.753289 -3.525086  1.545308
  S     1.043613  0.127913  1.729288
  S     3.872213 -3.167726 -1.190940
  S     4.217500  0.447895 -0.989028
  S     3.208230 -3.241680  2.838838
  S     3.446607  0.733621  3.064208
