16  
    
  C    11.871176  1.144238  3.402601
  C    11.896145  5.003905  3.404461
  C    10.670672  0.577174  2.725780
  C    10.683276  4.615573  2.733420
  N    12.965898  1.189805  2.612924
  N    12.963550  5.071665  2.557509
  N    10.874452  0.405813  1.413306
  N    10.884416  4.236011  1.494363
  N    10.029365  0.981245  5.189916
  N    10.061781  4.838131  5.187630
  S     9.267334  0.554281  3.765945
  S     9.310468  4.436060  3.762430
  S    12.473323  0.706859  1.097928
  S    12.468693  4.496559  1.113557
  S    11.555510  1.638832  4.985200
  S    11.679856  5.243269  5.070864
