16  
    
  C     9.769719 -0.695737  2.643935
  C     9.602661  3.357192  2.627968
  C     8.492842 -0.933201  2.048172
  C     8.379986  3.098126  1.882508
  N    10.718865 -0.451295  1.793469
  N    10.612264  3.523034  1.794259
  N     8.546858 -1.093087  0.754117
  N     8.452182  3.157081  0.559950
  N     8.006331 -0.529029  4.576261
  N     7.941740  2.887706  4.443696
  S     7.202157 -0.963844  3.169513
  S     7.062858  2.962458  3.015030
  S    10.048765 -0.637080  0.273313
  S    10.094947  3.417848  0.214511
  S     9.616454 -0.306151  4.402543
  S     9.575173  3.183902  4.412471
