16  
    
  C    10.225006  0.478831  2.896855
  C    10.758659  4.269472  2.897325
  C     9.001836  0.033451  2.301058
  C     9.543573  4.078200  2.172751
  N    11.142563  1.015647  2.124546
  N    11.888698  4.503091  2.221782
  N     9.070901  0.025257  0.986754
  N     9.722858  4.323102  0.886071
  N     8.579924 -0.064239  4.844568
  N     8.946438  3.751558  4.670021
  S     7.827084 -0.641167  3.453390
  S     8.158174  3.730598  3.222835
  S    10.596052  0.689966  0.575283
  S    11.290212  4.717169  0.624814
  S    10.163110  0.399735  4.600240
  S    10.516689  4.271085  4.564335
