16  
    
  C     8.997871 -0.387004  2.557533
  C     9.223019  3.508043  2.809135
  C     7.748096 -0.782965  1.885968
  C     8.035075  3.131331  2.132979
  N     9.971687 -0.126031  1.672175
  N    10.287291  3.567929  2.031431
  N     7.810094 -0.913942  0.557231
  N     8.186660  2.973888  0.822766
  N     7.448378 -0.896684  4.421389
  N     7.545291  3.420471  4.676762
  S     6.488688 -1.115363  3.073912
  S     6.794214  3.018653  3.295178
  S     9.374519 -0.475468  0.188922
  S     9.789533  3.198147  0.499570
  S     9.028678 -0.357403  4.280595
  S     9.124207  3.823020  4.515104
