16  
    
  C    11.278028  0.948956  3.349456
  C    11.585880  4.602332  2.780840
  C     9.994121  0.658538  2.758123
  C    10.360158  4.178439  2.200851
  N    12.231073  1.149362  2.457080
  N    12.589345  4.848546  1.934461
  N    10.007864  0.383800  1.468654
  N    10.414594  4.173276  0.896098
  N     9.600437  1.053983  5.265503
  N     9.913398  4.538713  4.689853
  S     8.666303  0.445123  3.920591
  S     9.116526  3.963791  3.364741
  S    11.580284  0.718407  1.006300
  S    11.993069  4.530666  0.469610
  S    11.260800  1.101777  5.042699
  S    11.538006  4.811140  4.548975
