16  
    
  C    12.003744  1.318136  3.437710
  C    11.723583  4.870259  3.754197
  C    10.785975  0.895698  2.723627
  C    10.674988  4.192018  3.078568
  N    13.024234  1.608835  2.647258
  N    12.720416  5.218816  2.891205
  N    10.955323  0.849433  1.396223
  N    10.809265  4.090921  1.754015
  N    10.378367  0.735587  5.293544
  N    10.062139  4.480071  5.635481
  S     9.642208  0.251113  3.869472
  S     9.333827  3.896556  4.224909
  S    12.519737  1.362896  1.064017
  S    12.234510  4.811203  1.390623
  S    11.929328  1.364406  5.218424
  S    11.634505  4.994322  5.445171
