16  
    
  C    12.441702  1.653469  3.353231
  C    12.802279  5.501536  3.678891
  C    11.353689  0.989871  2.735129
  C    11.708891  4.959159  2.848878
  N    13.482671  1.874005  2.554479
  N    13.895240  5.742092  3.024759
  N    11.515396  0.728432  1.460485
  N    12.033335  4.951943  1.533635
  N    10.860806  1.219698  5.335692
  N    10.890230  5.110878  5.252157
  S    10.188564  0.487428  3.991479
  S    10.336017  4.546807  3.820443
  S    13.033581  1.223242  1.078071
  S    13.645019  5.415258  1.433927
  S    12.407044  1.793502  5.095886
  S    12.468351  5.640441  5.330703
