16  
    
  C    12.094590  1.458813  3.300571
  C    12.295245  5.087658  3.606977
  C    10.881245  0.899824  2.625425
  C    10.980446  4.811206  2.990019
  N    13.152999  1.505804  2.529141
  N    13.260317  5.120236  2.734405
  N    11.099300  0.577224  1.363093
  N    11.060867  4.588287  1.674131
  N    10.276686  1.252825  5.143673
  N    10.565572  5.187975  5.469697
  S     9.553864  0.821645  3.664386
  S     9.661794  4.706281  4.149512
  S    12.711461  0.842089  1.037664
  S    12.685542  4.849147  1.226778
  S    11.939144  1.628273  5.061744
  S    12.166002  5.486902  5.249568
