16  
    
  C     5.928311 -2.197573  1.708176
  C     5.423271  1.184709  1.737068
  C     4.613424 -2.446823  1.151406
  C     4.161276  0.840591  1.115531
  N     6.827128 -2.090407  0.755165
  N     6.493038  1.100766  0.944602
  N     4.610699 -2.684801 -0.169995
  N     4.220746  0.583103 -0.186330
  N     4.299147 -2.317331  3.752402
  N     3.734266  1.210800  3.641786
  S     3.367358 -2.569170  2.379280
  S     2.901663  0.687574  2.289969
  S     6.143116 -2.254246 -0.708086
  S     5.866516  0.798990 -0.582246
  S     5.969778 -1.982799  3.399089
  S     5.307315  1.681003  3.393623
