16  
    
  C     9.795157 -0.077057  2.831245
  C     9.840365  3.565625  2.747933
  C     8.603184 -0.546105  2.179074
  C     8.570726  3.239187  2.102728
  N    10.685269  0.416689  2.017241
  N    10.809307  3.703222  1.870224
  N     8.635092 -0.616360  0.881754
  N     8.520584  3.345505  0.780314
  N     8.168663 -0.707774  4.769947
  N     8.152336  3.139929  4.580923
  S     7.323122 -0.961614  3.331851
  S     7.265935  2.885292  3.184371
  S    10.096226  0.122881  0.482114
  S    10.087178  3.666678  0.280176
  S     9.562355  0.138530  4.556979
  S     9.771661  3.597979  4.491414
