16  
    
  C    10.524032  0.589702  3.026465
  C    10.574157  4.648324  2.751014
  C     9.269988  0.100711  2.475813
  C     9.362062  3.993527  2.253650
  N    11.488407  0.862646  2.152628
  N    11.620362  4.594504  1.914460
  N     9.365975 -0.081897  1.173480
  N     9.511850  3.626675  0.961590
  N     8.760106  0.548370  4.949558
  N     8.850530  4.534642  4.721202
  S     8.006239 -0.218330  3.671914
  S     8.131241  3.685039  3.479789
  S    10.878841  0.353363  0.690515
  S    11.090783  3.984404  0.520369
  S    10.323554  1.066604  4.685128
  S    10.460891  4.883537  4.506245
