16  
    
  C     8.756849 -0.381951  2.514506
  C     8.592723  3.030106  2.571010
  C     7.547380 -0.792379  1.819949
  C     7.399238  2.720006  1.877811
  N     9.769410 -0.201912  1.704165
  N     9.667342  3.030764  1.811037
  N     7.661260 -0.955481  0.513513
  N     7.476971  2.604681  0.553177
  N     6.885183 -0.556926  4.314428
  N     6.747526  2.988301  4.396595
  S     6.171452 -1.013702  2.808584
  S     6.101259  2.484493  2.932724
  S     9.228443 -0.518020  0.152746
  S     9.108546  2.889483  0.237889
  S     8.509414 -0.055449  4.236089
  S     8.385353  3.243619  4.371522
