16  
    
  C    10.272944  0.004778  2.811075
  C    10.213026  3.972290  3.122246
  C     9.024064 -0.260018  2.196617
  C     8.952710  3.626146  2.502268
  N    11.349707  0.086934  2.009058
  N    11.228987  4.042004  2.268241
  N     9.158238 -0.595886  0.907741
  N     9.034664  3.453576  1.173064
  N     8.543132 -0.011931  4.666182
  N     8.625401  4.429386  5.025742
  S     7.735996 -0.622182  3.314037
  S     7.655863  3.959027  3.674958
  S    10.784073 -0.378715  0.469312
  S    10.655326  3.689715  0.777782
  S    10.196100  0.122558  4.505154
  S    10.282169  4.349030  4.760803
