16  
    
  C     5.401896 -2.142058  1.564897
  C     5.196369  1.609519  1.575827
  C     4.278101 -2.619306  0.808732
  C     4.154817  0.806669  0.942664
  N     6.570750 -2.063835  0.872112
  N     6.302499  1.721041  0.863135
  N     4.525838 -2.797572 -0.504307
  N     4.447101  0.505773 -0.326573
  N     3.531030 -2.449756  3.243134
  N     3.123708  1.779382  3.094878
  S     2.877700 -2.884084  1.791547
  S     2.640223  0.845308  1.856575
  S     6.140804 -2.469861 -0.729214
  S     5.968290  1.034925 -0.589748
  S     5.095443 -2.000268  3.271034
  S     4.714467  2.318413  3.032588
