16  
    
  C     6.221613 -1.552690  1.549910
  C     6.423534  1.991770  1.896032
  C     5.107819 -2.292363  0.969685
  C     5.168286  1.700573  1.178686
  N     7.209837 -1.394805  0.697400
  N     7.473667  2.112026  1.102993
  N     5.191998 -2.496468 -0.315081
  N     5.262338  1.619911 -0.155469
  N     4.442471 -1.892895  3.475439
  N     4.570439  1.910712  3.699453
  S     3.705393 -2.438589  2.018311
  S     3.835567  1.525538  2.259647
  S     6.773320 -2.124430 -0.734494
  S     6.920587  1.797104 -0.474574
  S     5.994149 -1.222613  3.236938
  S     6.211958  2.201092  3.584442
