16  
    
  C     8.763203 -0.286653  2.508023
  C     8.612702  3.016867  2.635422
  C     7.562049 -0.819845  1.858983
  C     7.385524  2.722573  1.893960
  N     9.815341 -0.128332  1.699972
  N     9.666574  3.081828  1.829417
  N     7.667410 -0.908041  0.543241
  N     7.530357  2.601773  0.593877
  N     6.907699 -0.605220  4.282428
  N     6.725147  2.971486  4.389054
  S     6.180833 -1.008305  2.830991
  S     6.094879  2.478877  2.911177
  S     9.187290 -0.450315  0.191946
  S     9.118562  2.851998  0.226166
  S     8.529970 -0.058189  4.219562
  S     8.370437  3.245119  4.317287
