16  
    
  C    12.071826  1.323839  3.485395
  C    12.253052  5.162206  3.419804
  C    10.949531  0.717566  2.719148
  C    11.041614  4.717592  2.708880
  N    13.110425  1.627736  2.715983
  N    13.342325  5.208368  2.704679
  N    11.205664  0.615037  1.442332
  N    11.305719  4.329824  1.461099
  N    10.095293  1.146136  5.214509
  N    10.357099  5.362544  5.120026
  S     9.572913  0.544927  3.724841
  S     9.608087  4.665162  3.815272
  S    12.747217  1.179750  1.193297
  S    12.879740  4.711004  1.182825
  S    11.669028  1.739536  5.136537
  S    11.974088  5.689487  5.011866
