16  
    
  C    12.062327  1.609464  3.357178
  C    12.257963  5.314350  3.525145
  C    10.963591  0.940379  2.717563
  C    11.168735  4.730567  2.850091
  N    13.213243  1.700997  2.662528
  N    13.320793  5.524640  2.720439
  N    11.251297  0.780004  1.416428
  N    11.328611  4.357574  1.565565
  N    10.142460  1.200895  5.078994
  N    10.294268  5.208314  5.251282
  S     9.575732  0.494972  3.648346
  S     9.746487  4.548225  3.794402
  S    12.817441  1.258430  1.144998
  S    12.940731  4.786158  1.265775
  S    11.721059  1.768920  5.092854
  S    11.920780  5.627384  5.267535
