16  
    
  C    10.342606  0.113302  2.677350
  C    10.189693  4.139455  3.107687
  C     9.191008 -0.467142  2.084736
  C     8.939611  3.849398  2.469923
  N    11.408927  0.081039  1.915446
  N    11.249873  4.078958  2.343106
  N     9.324281 -0.882432  0.839491
  N     9.091826  3.468320  1.181757
  N     8.510425  0.368885  4.378382
  N     8.731968  4.159035  5.045806
  S     7.788195 -0.416135  3.100584
  S     7.773235  3.963635  3.727735
  S    10.951406 -0.547100  0.422031
  S    10.710709  3.537702  0.877121
  S    10.135482  0.784612  4.279007
  S    10.248495  4.765323  4.753117
