16  
    
  C     6.050200 -2.309019  1.780962
  C     6.075370  1.566616  1.874592
  C     4.786873 -2.648510  1.149123
  C     4.768576  1.622857  1.282393
  N     7.065938 -2.204890  0.956470
  N     7.025405  1.410874  0.940307
  N     4.814659 -2.699283 -0.166142
  N     4.762411  1.615389 -0.058753
  N     4.199955 -2.099876  3.667310
  N     4.476422  2.203034  3.805098
  S     3.369979 -2.459475  2.196313
  S     3.524919  1.978442  2.462841
  S     6.437189 -2.522605 -0.581691
  S     6.306610  1.420571 -0.511411
  S     5.901525 -2.077660  3.513630
  S     6.105751  1.902528  3.563900
