16  
    
  C     5.135076 -2.293680  1.556509
  C     4.943620  1.524272  2.042820
  C     3.989165 -2.968940  0.996607
  C     3.850491  0.860777  1.410050
  N     6.202836 -2.222026  0.726481
  N     6.041020  1.628520  1.286978
  N     4.110589 -3.324620 -0.313458
  N     4.016977  0.633519  0.123064
  N     3.402896 -2.367704  3.399180
  N     3.076626  1.379249  3.755341
  S     2.638985 -3.026008  2.107290
  S     2.432836  0.802932  2.327647
  S     5.686536 -2.929062 -0.697344
  S     5.609800  1.067188 -0.234825
  S     4.974106 -1.799228  3.251314
  S     4.525951  2.143379  3.673365
