16  
    
  C     7.297410 -1.511497  2.254420
  C     7.701008  2.754539  2.283737
  C     6.215552 -2.098557  1.520585
  C     6.477717  2.313566  1.626935
  N     8.206925 -0.915977  1.482893
  N     8.739226  2.976874  1.480602
  N     6.423580 -2.202998  0.205814
  N     6.519213  2.288066  0.282843
  N     5.434864 -2.114681  3.930870
  N     5.979528  2.248368  4.164629
  S     4.897735 -2.545594  2.439495
  S     5.178604  2.006087  2.734093
  S     7.803161 -1.324979 -0.056937
  S     8.192964  2.684668 -0.074162
  S     6.960926 -1.405156  3.941768
  S     7.512081  2.932536  4.038860
