16  
    
  C     3.651143 -2.939769  1.146923
  C     3.941114  0.820487  1.468682
  C     2.483226 -3.541606  0.606851
  C     2.720765  0.359505  0.854201
  N     4.654488 -2.787189  0.254805
  N     4.951301  1.134572  0.668978
  N     2.534127 -3.897224 -0.683713
  N     2.879498  0.129644 -0.456947
  N     1.861910 -2.954877  2.963546
  N     2.242012  0.550647  3.341069
  S     1.188155 -3.816696  1.698581
  S     1.480083  0.094738  1.983654
  S     4.069306 -3.429208 -1.185859
  S     4.389609  0.621471 -0.839440
  S     3.408706 -2.384586  2.772292
  S     3.794248  1.130408  3.150406
