16  
    
  C     8.438232 -0.928138  2.460612
  C     8.216292  2.592303  2.233237
  C     7.214210 -1.554543  2.089098
  C     7.036355  2.217395  1.522438
  N     9.417541 -0.963020  1.495627
  N     9.309427  2.709139  1.475117
  N     7.154973 -1.924980  0.775174
  N     7.279582  1.926684  0.254533
  N     6.806921 -0.664966  4.500581
  N     6.279993  2.532980  3.847894
  S     5.866890 -1.345099  3.256287
  S     5.588192  2.093378  2.447278
  S     8.634019 -1.567381  0.108970
  S     8.807250  2.286216 -0.103435
  S     8.391010 -0.419740  4.183366
  S     7.859252  2.853206  3.867744
