16  
    
  C     4.392704 -2.156754  1.885690
  C     3.984697  1.188674  1.155525
  C     3.251126 -2.805912  1.279138
  C     2.837999  0.569209  0.488425
  N     5.463220 -2.010260  1.060500
  N     5.055204  1.353759  0.377661
  N     3.466667 -3.176321  0.007060
  N     3.109512  0.210801 -0.777449
  N     2.562066 -2.332987  3.695004
  N     2.249427  0.928960  3.054155
  S     1.925742 -3.065860  2.334142
  S     1.557479  0.264178  1.671442
  S     4.967569 -2.558238 -0.465583
  S     4.628825  0.730321 -1.112804
  S     4.176738 -1.902485  3.599367
  S     3.832301  1.490723  2.827361
