16  
    
  C     4.716788 -2.530290  1.549961
  C     5.232708  1.625339  1.850389
  C     3.504807 -2.963616  0.866975
  C     3.907852  1.437522  1.318054
  N     5.683385 -2.125026  0.708173
  N     6.187251  1.591434  0.942851
  N     3.606343 -2.962929 -0.472208
  N     3.854841  1.173996  0.040722
  N     2.867263 -3.033084  3.363850
  N     3.638840  1.587879  3.915129
  S     2.147631 -3.445271  1.900426
  S     2.664843  1.344758  2.538697
  S     5.053036 -2.274752 -0.804608
  S     5.453033  1.277989 -0.518669
  S     4.387897 -2.368733  3.277117
  S     5.261685  1.770383  3.505290
