16  
    
  C    11.934849  1.374479  3.436070
  C    11.822136  4.842745  3.719569
  C    10.823650  0.855590  2.751672
  C    10.696318  4.171560  3.147145
  N    13.003280  1.575476  2.688431
  N    12.724428  5.264732  2.878601
  N    10.923098  0.863382  1.414666
  N    10.764376  4.080586  1.803863
  N    10.381732  0.742135  5.339100
  N    10.089163  4.476604  5.650495
  S     9.669666  0.226678  3.886968
  S     9.352209  3.890725  4.266997
  S    12.519178  1.422152  1.103824
  S    12.230428  4.855695  1.367921
  S    11.964379  1.351925  5.233756
  S    11.629128  4.982742  5.446992
