16  
    
  C     8.762427 -0.370507  2.510183
  C     8.593060  3.028478  2.576097
  C     7.548005 -0.796696  1.820300
  C     7.395510  2.719272  1.877268
  N     9.773161 -0.194676  1.705962
  N     9.665467  3.034047  1.815857
  N     7.661172 -0.949936  0.520194
  N     7.481817  2.604319  0.560318
  N     6.886144 -0.561649  4.311890
  N     6.744277  2.987439  4.397619
  S     6.171894 -1.013950  2.809070
  S     6.103992  2.484439  2.928233
  S     9.222727 -0.510178  0.157804
  S     9.109519  2.885715  0.235421
  S     8.513294 -0.054765  4.235516
  S     8.383729  3.243972  4.367056
