16  
    
  C     4.621062 -2.200837  1.598830
  C     4.879702  1.468881  1.892076
  C     3.411335 -2.579766  0.875193
  C     3.599589  1.395065  1.226679
  N     5.676581 -2.073701  0.854086
  N     5.867264  1.401036  1.013809
  N     3.528932 -2.669304 -0.422527
  N     3.589594  1.206269 -0.098313
  N     2.823315 -2.297330  3.443236
  N     3.097691  1.153425  3.717503
  S     2.115702 -2.872998  2.017786
  S     2.231318  1.340829  2.258234
  S     5.146593 -2.254533 -0.741527
  S     5.181958  1.248693 -0.499368
  S     4.466157 -1.987276  3.303316
  S     4.754279  1.691897  3.635171
