16  
    
  C    10.331799  0.047930  2.755385
  C    10.339315  4.132680  3.122260
  C     9.131424 -0.487018  2.150167
  C     9.026459  3.862727  2.547002
  N    11.351773  0.083617  1.935568
  N    11.292124  4.054459  2.191535
  N     9.221701 -0.792279  0.860426
  N     9.042138  3.435744  1.281431
  N     8.529140  0.175705  4.562781
  N     8.582405  4.383488  5.019574
  S     7.828643 -0.526282  3.260912
  S     7.731356  3.909469  3.695651
  S    10.823076 -0.496251  0.470781
  S    10.528807  3.550464  0.746135
  S    10.185819  0.406549  4.491682
  S    10.188251  4.544796  4.832089
