16  
    
  C    10.940888  0.574245  2.952214
  C    10.776729  4.464609  2.792316
  C     9.682211  0.179607  2.389187
  C     9.708708  3.752150  2.192158
  N    11.950969  0.577421  2.095818
  N    11.888680  4.568145  2.006938
  N     9.738980 -0.081313  1.118011
  N     9.983861  3.247936  1.009598
  N     9.075931  0.614059  4.839320
  N     8.784149  4.323351  4.494848
  S     8.289089  0.200604  3.445977
  S     8.404042  3.308572  3.210502
  S    11.295869  0.085437  0.624090
  S    11.518713  3.749484  0.655905
  S    10.624316  1.188491  4.596677
  S    10.300047  4.993630  4.427018
