16  
    
  C    11.340224  0.635928  2.984034
  C    11.053235  4.433200  3.614241
  C    10.294332  0.061253  2.192850
  C     9.798491  3.994067  3.031990
  N    12.518329  0.872109  2.338378
  N    12.083819  4.488344  2.765272
  N    10.798197 -0.408084  1.023479
  N     9.837962  3.896669  1.730818
  N     9.307275  0.352236  4.600426
  N     9.374095  4.671448  5.464144
  S     8.821079 -0.233977  3.140114
  S     8.489427  4.163767  4.152477
  S    12.303427  0.169364  0.851085
  S    11.388589  4.110888  1.263914
  S    10.896798  0.747937  4.617631
  S    11.005547  5.022583  5.209147
