16  
    
  C     6.234061 -1.702570  2.249760
  C     6.581596  2.034720  2.135319
  C     5.159729 -2.369761  1.565847
  C     5.365268  1.646879  1.510918
  N     7.205494 -1.241324  1.437179
  N     7.587930  2.271279  1.323150
  N     5.391483 -2.605738  0.275696
  N     5.405878  1.491680  0.186076
  N     4.352860 -2.082790  3.920643
  N     4.853544  1.953430  4.004582
  S     3.837135 -2.845651  2.558730
  S     4.030701  1.508760  2.644695
  S     6.789331 -1.818457 -0.099650
  S     6.992224  1.999090 -0.225049
  S     5.933930 -1.559583  3.960753
  S     6.436420  2.284961  3.829315
