16  
    
  C     4.736587 -2.283514  1.613051
  C     4.913188  1.461521  1.881631
  C     3.514119 -2.706809  0.924841
  C     3.618162  1.316304  1.277567
  N     5.762105 -2.071152  0.805629
  N     5.924879  1.356047  1.033072
  N     3.647888 -2.728114 -0.371859
  N     3.627731  1.181285 -0.054468
  N     2.820994 -2.503171  3.369027
  N     3.200140  1.293366  3.819364
  S     2.131353 -3.042872  1.968537
  S     2.316799  1.404548  2.442604
  S     5.171752 -2.244949 -0.713365
  S     5.252237  1.256525 -0.493615
  S     4.390603 -1.930114  3.301645
  S     4.787730  1.580263  3.589250
