16  
    
  C     7.039134 -1.546017  2.213329
  C     7.108193  2.212212  2.138276
  C     5.832663 -1.936290  1.486245
  C     5.926317  1.801629  1.411439
  N     8.157828 -1.343335  1.519002
  N     8.184184  2.397603  1.382366
  N     6.011241 -1.814501  0.187787
  N     6.090515  1.567152  0.108575
  N     5.157213 -1.668012  3.982995
  N     5.129710  1.969698  3.862758
  S     4.483365 -2.110281  2.534034
  S     4.511420  1.642446  2.343590
  S     7.600304 -1.496759 -0.074725
  S     7.702442  1.901240 -0.242717
  S     6.837509 -1.482083  3.920945
  S     6.734951  2.478954  3.789364
