16  
    
  C     7.293465 -1.572767  2.163388
  C     7.576644  2.712721  2.188658
  C     6.108999 -1.980230  1.449648
  C     6.370063  2.233726  1.554905
  N     8.296492 -1.209986  1.346418
  N     8.547593  2.937627  1.312023
  N     6.276090 -2.029811  0.118075
  N     6.411905  2.007003  0.238283
  N     5.535497 -2.139866  4.008121
  N     5.911730  2.299104  4.103710
  S     4.921661 -2.630841  2.579301
  S     5.103178  1.961204  2.713854
  S     7.825997 -1.436139 -0.215519
  S     7.973329  2.560742 -0.155262
  S     7.094878 -1.518348  3.879864
  S     7.555180  2.675441  3.942794
