16  
    
  C     7.291326 -1.503224  2.267557
  C     7.705874  2.720580  2.250316
  C     6.265800 -2.117975  1.535068
  C     6.460346  2.331236  1.605629
  N     8.214812 -0.970668  1.466355
  N     8.710955  3.013139  1.425930
  N     6.385588 -2.171987  0.212168
  N     6.544484  2.284633  0.290052
  N     5.454030 -2.116492  3.916316
  N     5.928533  2.240575  4.188055
  S     4.890091 -2.564784  2.439294
  S     5.153506  1.995533  2.751091
  S     7.786367 -1.346601 -0.070220
  S     8.160623  2.657663 -0.080431
  S     7.004622 -1.408335  3.914101
  S     7.519603  2.893925  4.002947
