16  
    
  C     4.613885 -2.306203  1.574428
  C     5.135612  1.574972  1.904936
  C     3.582242 -3.041126  0.844359
  C     3.809190  1.349135  1.308607
  N     5.597672 -1.915543  0.811944
  N     6.100632  1.481880  1.001906
  N     3.708987 -3.096682 -0.475337
  N     3.788789  1.230721 -0.014153
  N     2.907384 -3.046144  3.349876
  N     3.651568  1.519374  3.837526
  S     2.277390 -3.492220  1.874791
  S     2.613969  1.436156  2.619158
  S     5.168536 -2.333881 -0.802190
  S     5.391571  1.274095 -0.448263
  S     4.383209 -2.294840  3.305518
  S     5.263877  1.734840  3.618593
