16  
    
  C     6.139166 -1.605283  2.485861
  C     6.600247  2.138658  2.232353
  C     4.975735 -2.157948  1.819712
  C     5.372736  1.657159  1.593679
  N     7.069827 -1.175286  1.636155
  N     7.534487  2.422645  1.333052
  N     5.093953 -2.309912  0.503568
  N     5.474573  1.558036  0.248784
  N     4.457027 -2.278757  4.275965
  N     5.032723  1.630366  4.142726
  S     3.745243 -2.713021  2.827487
  S     4.096491  1.378409  2.798742
  S     6.626602 -1.705957  0.115031
  S     6.987141  2.023997 -0.115588
  S     5.920195 -1.505704  4.218751
  S     6.566146  2.259144  3.961953
