16  
    
  C     5.346306 -2.239990  1.541794
  C     4.981364  1.738570  1.729830
  C     4.214845 -2.867623  0.923279
  C     3.899285  0.933434  1.124901
  N     6.349988 -2.017433  0.691021
  N     6.079433  1.865501  0.957394
  N     4.417752 -3.123114 -0.379796
  N     4.281310  0.284481  0.035395
  N     3.454129 -2.303763  3.331065
  N     3.014896  1.804085  3.381003
  S     2.858364 -3.057380  1.918377
  S     2.539011  0.836775  2.161951
  S     5.940382 -2.592943 -0.799468
  S     5.819005  0.765322 -0.250866
  S     5.055446 -1.749296  3.220772
  S     4.643098  2.336151  3.329179
