16  
    
  C    11.329618  0.960183  3.183505
  C    11.507383  4.769962  3.083029
  C    10.072197  0.463571  2.689916
  C    10.387750  4.146783  2.423949
  N    12.371821  1.071301  2.360419
  N    12.505020  4.921450  2.255282
  N    10.152322  0.239966  1.384042
  N    10.506103  3.933674  1.101932
  N     9.703106  0.771413  5.173401
  N     9.757189  4.336214  4.963991
  S     8.778324  0.306711  3.837490
  S     9.041737  3.815903  3.539346
  S    11.699928  0.699715  0.921083
  S    12.091577  4.367685  0.795111
  S    11.273747  1.274731  4.886509
  S    11.306008  4.977549  4.800188
