16  
    
  C     8.546293 -1.029409  2.331808
  C     8.295536  2.670399  2.059793
  C     7.349778 -1.573622  1.658173
  C     7.042296  2.288511  1.364296
  N     9.578673 -0.837726  1.534231
  N     9.311344  2.898487  1.240020
  N     7.511060 -1.544769  0.353692
  N     7.154396  2.238513  0.042561
  N     6.762078 -1.201356  4.220922
  N     6.557538  2.500533  3.932048
  S     6.000036 -1.824132  2.853500
  S     5.754777  2.067969  2.527008
  S     9.058060 -1.076052 -0.037455
  S     8.763871  2.633872 -0.262360
  S     8.354835 -0.939142  4.084564
  S     8.086568  3.077715  3.773280
