16  
    
  C     5.470834 -2.219753  1.950890
  C     5.238276  1.568219  1.702644
  C     4.284737 -2.647956  1.222084
  C     4.149202  0.977485  0.941896
  N     6.488108 -1.857986  1.144232
  N     6.210376  2.043884  0.938386
  N     4.421604 -2.752103 -0.131036
  N     4.345873  1.079302 -0.382792
  N     3.653099 -2.565674  3.757392
  N     3.488756  0.880878  3.467599
  S     2.931980 -2.969438  2.282992
  S     2.993248  0.243618  1.996641
  S     5.970674 -2.222083 -0.413199
  S     5.780406  1.825885 -0.615353
  S     5.280422 -1.976729  3.632361
  S     5.008344  1.566596  3.473721
