16  
    
  C     9.376453 -0.502180  2.720170
  C     9.314307  3.264163  2.524585
  C     8.189998 -1.049783  2.128340
  C     8.080151  2.985997  1.919103
  N    10.419353 -0.476853  1.846555
  N    10.386336  3.305633  1.674946
  N     8.266399 -1.228235  0.779148
  N     8.182792  2.641572  0.630821
  N     7.698690 -0.655390  4.625014
  N     7.489184  3.385311  4.413400
  S     6.832289 -1.011204  3.207537
  S     6.696915  2.924213  2.983511
  S     9.819777 -0.933880  0.372937
  S     9.743351  2.830992  0.240823
  S     9.276984 -0.208264  4.401283
  S     9.150701  3.505138  4.318294
