16  
    
  C     4.591919 -2.627418  1.591635
  C     5.063237  1.349804  1.746804
  C     3.327287 -2.809950  0.932317
  C     3.801364  1.090955  1.057407
  N     5.638341 -2.615581  0.775284
  N     6.090225  1.504464  0.904192
  N     3.448186 -2.816467 -0.416815
  N     3.842268  1.329477 -0.266634
  N     2.822978 -2.650298  3.400698
  N     3.451152  0.980237  3.664063
  S     1.981056 -2.826033  1.966872
  S     2.542806  0.722658  2.276300
  S     5.073721 -2.832734 -0.760258
  S     5.453390  1.553701 -0.630968
  S     4.431212 -2.365387  3.294255
  S     5.040082  1.414476  3.484369
