16  
    
  C    12.132551  1.229683  3.329240
  C    12.250396  5.029129  3.408308
  C    10.895892  0.762058  2.729967
  C    11.035889  4.664084  2.827956
  N    13.276184  1.187191  2.617605
  N    13.255020  5.111855  2.500108
  N    11.078105  0.601225  1.413947
  N    11.057136  4.407593  1.535287
  N    10.228855  1.405157  5.154509
  N    10.530966  5.356463  5.274711
  S     9.463923  0.828022  3.759024
  S     9.716996  4.813299  3.918733
  S    12.684761  0.821194  1.053169
  S    12.620508  4.695136  1.041604
  S    11.886762  1.663766  4.978426
  S    12.171480  5.529020  5.106182
