16  
    
  C    10.004900 -0.135175  2.825863
  C    10.021643  3.811146  2.702232
  C     8.798392 -0.581939  2.180071
  C     8.851517  3.156401  2.203859
  N    11.014117 -0.034774  1.979395
  N    10.909792  4.069802  1.763535
  N     8.846658 -0.598261  0.857449
  N     8.979763  2.751465  0.930925
  N     8.217382 -0.336475  4.644456
  N     8.538098  3.561147  4.725338
  S     7.471332 -0.777726  3.217295
  S     7.759886  2.769266  3.471793
  S    10.418690 -0.297773  0.444107
  S    10.363727  3.371855  0.350983
  S     9.867982 -0.174203  4.627977
  S    10.114497  4.100146  4.488109
