16  
    
  C     6.068146 -2.128931  1.709420
  C     6.135729  1.772781  1.811053
  C     4.818756 -2.508218  1.096316
  C     4.849148  1.818910  1.215517
  N     7.134218 -2.165613  0.926497
  N     7.174481  1.610902  0.973613
  N     4.922826 -2.627110 -0.212436
  N     4.898524  1.738947 -0.102852
  N     4.278266 -2.125284  3.654394
  N     4.402193  1.896528  3.734179
  S     3.441891 -2.500148  2.199765
  S     3.505113  1.962608  2.315231
  S     6.516730 -2.543137 -0.573530
  S     6.484841  1.506834 -0.542126
  S     5.946093 -1.873855  3.454402
  S     6.071999  1.870280  3.557172
