16  
    
  C     7.685540 -0.889716  1.708173
  C     7.706261  2.907086  2.289962
  C     6.472507 -1.410899  1.196544
  C     6.564288  2.435755  1.606122
  N     8.682330 -0.761070  0.827127
  N     8.788976  3.118622  1.538468
  N     6.563418 -1.771118 -0.096667
  N     6.858041  2.240271  0.288744
  N     6.105148 -1.114094  3.826490
  N     5.913744  2.696634  4.069076
  S     5.189923 -1.458714  2.453174
  S     5.213038  2.100988  2.616558
  S     8.108899 -1.421781 -0.631822
  S     8.386346  2.558236  0.022568
  S     7.652505 -0.756635  3.509351
  S     7.494729  3.271158  3.942147
