16  
    
  C     9.791089 -0.064666  2.854316
  C     9.859774  3.546482  2.677021
  C     8.575059 -0.550776  2.204631
  C     8.583342  3.184941  2.127557
  N    10.705820  0.468721  2.004429
  N    10.873587  3.758444  1.829615
  N     8.622373 -0.574866  0.846211
  N     8.561903  3.301200  0.804506
  N     8.198155 -0.756862  4.751214
  N     8.164972  3.150018  4.592915
  S     7.297265 -0.979804  3.340815
  S     7.234150  2.874151  3.204219
  S    10.110307  0.141476  0.464469
  S    10.100497  3.676782  0.285741
  S     9.599199  0.136271  4.537969
  S     9.751073  3.632537  4.449428
