16  
    
  C     4.856818 -2.509580  1.628574
  C     4.933990  1.523519  2.020976
  C     3.630253 -2.909594  1.004764
  C     3.751660  1.082348  1.305442
  N     5.910319 -2.409268  0.811647
  N     5.887922  1.896052  1.168620
  N     3.723057 -3.184561 -0.346606
  N     3.897597  0.891628 -0.000330
  N     3.046478 -2.331854  3.472806
  N     3.227709  1.111807  3.838190
  S     2.257318 -2.840518  2.080674
  S     2.453363  0.716636  2.358442
  S     5.366901 -2.989404 -0.680781
  S     5.444875  1.405178 -0.348457
  S     4.743677 -2.112943  3.308158
  S     4.838066  1.511516  3.767590
