16  
    
  C    12.319162  1.566212  3.338311
  C    12.267673  5.321845  3.631100
  C    11.095807  1.055930  2.610906
  C    11.169914  4.660889  2.962254
  N    13.357695  1.860334  2.531214
  N    13.297567  5.633960  2.867661
  N    11.392036  0.780905  1.333975
  N    11.342136  4.591811  1.610543
  N    10.381545  1.363456  5.018057
  N    10.581804  4.816716  5.438512
  S     9.660308  0.835316  3.601964
  S     9.902163  4.325419  4.007719
  S    12.888006  1.385606  0.975169
  S    12.947934  5.175521  1.325923
  S    11.998099  1.863836  4.984877
  S    11.983840  5.664886  5.356024
