16  
    
  C    10.262722  0.580501  3.004430
  C    10.609333  4.560085  2.881248
  C     9.090679  0.009659  2.352982
  C     9.361469  4.165187  2.238959
  N    11.179181  0.999024  2.157809
  N    11.613650  4.824945  2.068640
  N     9.309235 -0.193816  1.053256
  N     9.440147  4.149823  0.915469
  N     8.714669  0.064563  4.931187
  N     9.102963  3.916486  4.814503
  S     7.964113 -0.493896  3.540014
  S     8.165177  3.939462  3.446932
  S    10.735680  0.537581  0.642330
  S    11.052075  4.461165  0.510394
  S    10.274037  0.614400  4.734985
  S    10.718582  4.332787  4.615383
