16  
    
  C     8.834070 -0.917235  2.377856
  C     8.506839  3.221127  2.458890
  C     7.604487 -1.317252  1.729906
  C     7.334672  2.587230  1.860135
  N     9.920581 -0.880510  1.536130
  N     9.459321  3.543073  1.545915
  N     7.753966 -1.416731  0.389492
  N     7.363643  2.456505  0.513933
  N     6.888803 -1.073398  4.157324
  N     6.773814  2.818014  4.404675
  S     6.207170 -1.572580  2.748825
  S     6.099267  2.214757  2.988339
  S     9.353710 -1.192519 -0.004862
  S     8.847763  3.030928  0.126401
  S     8.542484 -0.692244  4.102561
  S     8.277475  3.561551  4.167027
