16  
    
  C     4.634722 -2.218359  1.597766
  C     4.996116  1.343775  1.948001
  C     3.555756 -2.800310  0.869280
  C     3.701712  1.255287  1.324844
  N     5.663709 -1.883756  0.783279
  N     5.961568  1.408852  1.037351
  N     3.782926 -3.011978 -0.460995
  N     3.661138  1.156311  0.006288
  N     2.872566 -2.810056  3.358308
  N     3.395180  1.766151  3.853039
  S     2.264362 -3.314742  1.923294
  S     2.432580  1.416585  2.505611
  S     5.270483 -2.343176 -0.714657
  S     5.255541  1.314951 -0.456382
  S     4.353500 -2.049671  3.306867
  S     5.053773  1.454598  3.658376
