16  
    
  C    12.140880  1.187951  3.336660
  C    12.264505  5.028726  3.369606
  C    10.927625  0.745001  2.752462
  C    11.006729  4.684475  2.802977
  N    13.261711  1.163888  2.625365
  N    13.247313  5.103253  2.470061
  N    11.063833  0.618598  1.426000
  N    11.039033  4.368292  1.541575
  N    10.222145  1.419531  5.158084
  N    10.530897  5.355112  5.243344
  S     9.448400  0.816785  3.753316
  S     9.722632  4.824377  3.890012
  S    12.678610  0.816604  1.051488
  S    12.624449  4.678320  1.009082
  S    11.889490  1.678936  4.987658
  S    12.171586  5.534866  5.103750
