16  
    
  C     7.286886 -1.612359  2.271665
  C     7.513158  2.196133  2.203207
  C     6.070778 -2.034004  1.566157
  C     6.278864  1.673200  1.640252
  N     8.357669 -1.642040  1.458042
  N     8.463111  2.481852  1.338335
  N     6.181767 -2.093875  0.237863
  N     6.328863  1.408640  0.337995
  N     5.440374 -1.859247  4.092929
  N     5.758687  2.150125  4.126380
  S     4.706840 -2.304274  2.654755
  S     4.885192  1.733269  2.740993
  S     7.805672 -1.996218 -0.071399
  S     7.921871  1.934304 -0.144117
  S     7.076580 -1.485725  4.017055
  S     7.373250  2.634899  3.846756
