16  
    
  C     4.719571 -2.284903  1.629985
  C     4.917905  1.348904  1.871550
  C     3.580264 -2.851489  0.940602
  C     3.595915  1.235018  1.284881
  N     5.764603 -1.954350  0.850403
  N     5.958846  1.433592  1.022937
  N     3.658641 -2.790684 -0.396201
  N     3.670477  1.204703 -0.043119
  N     2.846261 -2.660355  3.403889
  N     3.255325  1.557182  3.884771
  S     2.197692 -3.157367  1.913086
  S     2.323911  1.414683  2.513512
  S     5.217209 -2.303309 -0.742156
  S     5.293640  1.259558 -0.481676
  S     4.351897 -1.954819  3.293238
  S     4.943897  1.493649  3.615660
