16  
    
  C    10.153243  0.596252  2.905066
  C    10.747450  4.302498  2.896395
  C     9.010893 -0.061755  2.255381
  C     9.505056  4.140739  2.135203
  N    11.095069  1.018368  2.063612
  N    11.820270  4.621458  2.167148
  N     9.065897  0.008080  0.915230
  N     9.719722  4.211436  0.802160
  N     8.531077  0.101426  4.803857
  N     8.940356  3.843636  4.645824
  S     7.834770 -0.612195  3.451692
  S     8.134657  3.679191  3.193511
  S    10.539046  0.641370  0.572364
  S    11.353552  4.588442  0.633329
  S    10.133946  0.350460  4.626067
  S    10.534627  4.266438  4.550511
