16  
    
  C     4.224980 -2.259987  1.751499
  C     3.974640  1.211294  1.185750
  C     3.075711 -2.925127  1.226496
  C     2.995426  0.306455  0.721380
  N     5.248969 -2.135532  0.882494
  N     4.982315  1.452197  0.338776
  N     3.226708 -3.255229 -0.050537
  N     3.164183 -0.053810 -0.553205
  N     2.602482 -2.755155  3.768693
  N     2.325997  0.938214  3.096779
  S     1.785731 -3.208642  2.401576
  S     1.717751  0.032204  1.816351
  S     4.667124 -2.685535 -0.550413
  S     4.562811  0.745276 -1.084326
  S     4.061394 -1.974490  3.533147
  S     3.726367  1.676403  2.827704
