16  
    
  C     7.072041 -1.592286  2.276964
  C     7.063883  2.346802  2.083790
  C     5.812781 -1.789873  1.557118
  C     5.879649  1.811563  1.412503
  N     8.109510 -1.385372  1.489603
  N     8.157804  2.373087  1.312319
  N     5.978558 -1.855065  0.253660
  N     6.109380  1.517163  0.117779
  N     5.241872 -1.752957  4.031251
  N     5.212288  2.017355  3.806888
  S     4.444014 -2.104734  2.595463
  S     4.484970  1.654435  2.390402
  S     7.560103 -1.432752 -0.035979
  S     7.679907  1.909816 -0.168214
  S     6.871906 -1.395535  3.986079
  S     6.784191  2.528241  3.846338
