16  
    
  C    10.904227  0.670780  3.029136
  C    10.936629  4.427443  3.424322
  C     9.691988  0.247420  2.379190
  C     9.823311  3.805062  2.763620
  N    11.899640  0.947449  2.195787
  N    11.961784  4.639488  2.597173
  N     9.841783 -0.023748  1.090182
  N     9.918252  3.660158  1.443634
  N     9.256745  0.192816  4.950380
  N     9.199398  4.060521  5.253103
  S     8.446432 -0.191282  3.531964
  S     8.444243  3.520261  3.862806
  S    11.416278  0.507683  0.645836
  S    11.463450  4.223764  1.082941
  S    10.811633  0.728550  4.815706
  S    10.702206  4.683093  5.083975
