16  
    
  C     6.179853 -1.557946  1.493045
  C     6.394933  2.121873  1.874329
  C     4.996613 -2.079939  0.847322
  C     5.189158  1.690607  1.186539
  N     7.271013 -1.414646  0.757629
  N     7.427230  2.177467  1.050149
  N     5.258062 -2.492969 -0.377005
  N     5.351317  1.434743 -0.111238
  N     4.507432 -1.922136  3.375478
  N     4.634455  1.780944  3.708316
  S     3.790870 -2.463170  2.040538
  S     3.852612  1.459360  2.268914
  S     6.820374 -2.062148 -0.706161
  S     6.928560  1.757587 -0.456059
  S     5.957830 -1.164903  3.213879
  S     6.201178  2.312794  3.612414
