16  
    
  C    11.732487  1.061149  2.889816
  C    11.636158  4.983600  3.168795
  C    10.482629  0.460244  2.352636
  C    10.489214  4.445656  2.426945
  N    12.561292  1.463259  1.929050
  N    12.696906  5.336880  2.391164
  N    10.473916  0.378725  1.013681
  N    10.687789  4.350633  1.131739
  N    10.175980  0.781224  4.850062
  N     9.746252  4.577049  4.926445
  S     9.362572  0.096892  3.562583
  S     9.123580  4.026266  3.493663
  S    11.855579  1.065995  0.491163
  S    12.196960  4.935315  0.769651
  S    11.596452  1.562321  4.524103
  S    11.348363  5.022563  4.857018
