16  
    
  C    11.008999  0.612277  3.298616
  C    11.177135  4.324625  3.299357
  C     9.799473  0.272091  2.565525
  C     9.931171  3.865961  2.712083
  N    12.042752  0.966825  2.542730
  N    12.126157  4.541910  2.419685
  N    10.048484  0.195895  1.278589
  N     9.935370  3.746130  1.378530
  N     9.113682  0.100359  4.986570
  N     9.580077  3.832926  5.236161
  S     8.509448 -0.354966  3.519287
  S     8.710463  3.505609  3.869145
  S    11.577428  0.574124  1.001266
  S    11.420938  4.160838  0.885633
  S    10.707312  0.596560  5.004143
  S    11.173756  4.250323  5.015605
