16  
    
  C     4.107474 -2.909601  1.543957
  C     4.122647  1.234178  1.500877
  C     2.888318 -3.362531  0.925176
  C     2.826024  0.926528  0.913088
  N     5.138315 -2.840454  0.708027
  N     5.139603  1.258161  0.640103
  N     2.993796 -3.564319 -0.352402
  N     2.880418  0.763350 -0.409173
  N     2.082877 -2.685621  3.254953
  N     2.462630  1.292558  3.480446
  S     1.458491 -3.454768  1.922234
  S     1.599966  0.772474  2.142486
  S     4.529934 -3.293881 -0.775667
  S     4.525790  0.980680 -0.851306
  S     3.695764 -2.343671  3.245305
  S     4.024949  1.560245  3.253474
