16  
    
  C     9.646652 -0.662131  2.777900
  C     9.550025  3.253352  2.600709
  C     8.369501 -0.827772  2.107032
  C     8.264787  3.017487  1.922973
  N    10.691562 -0.514716  1.951004
  N    10.627438  3.285802  1.798136
  N     8.528298 -1.021708  0.794745
  N     8.379733  3.039033  0.608991
  N     7.895958 -0.560390  4.609129
  N     7.682262  2.983307  4.387877
  S     7.030936 -0.987064  3.232062
  S     6.899085  3.033215  2.956885
  S    10.125835 -0.858453  0.435529
  S    10.007693  3.226548  0.252463
  S     9.539460 -0.435373  4.466279
  S     9.267138  3.357390  4.257377
