16  
    
  C    12.419070  1.572867  3.318010
  C    12.342505  5.429206  3.631343
  C    11.224039  1.172166  2.651434
  C    11.177935  4.800338  3.012534
  N    13.421666  1.793321  2.471433
  N    13.295961  5.668953  2.750471
  N    11.345292  0.875323  1.358341
  N    11.245860  4.620279  1.665699
  N    10.628133  1.387312  5.173238
  N    10.593992  4.958402  5.433317
  S     9.876795  0.840955  3.764725
  S     9.920966  4.320616  4.056798
  S    12.884524  1.338323  0.948639
  S    12.797196  5.203856  1.253332
  S    12.235052  1.862114  5.022294
  S    12.116304  5.541026  5.338374
