16  
    
  C     4.285122 -2.478982  1.748412
  C     4.067678  1.272964  1.416370
  C     3.110336 -3.081219  1.138840
  C     2.873737  0.665640  0.877189
  N     5.317826 -2.277751  0.925185
  N     5.099795  1.420237  0.551348
  N     3.285660 -3.300312 -0.164001
  N     3.006884  0.254652 -0.379229
  N     2.523951 -2.703455  3.658071
  N     2.319892  1.050644  3.355954
  S     1.895883 -3.495745  2.336818
  S     1.645024  0.323005  1.967558
  S     4.767719 -2.689776 -0.633685
  S     4.495530  0.764673 -0.846848
  S     4.089050 -2.128922  3.444880
  S     3.826063  1.667804  3.111650
