16  
    
  C     8.717072 -0.443481  2.533171
  C     8.615287  3.038869  2.578498
  C     7.538873 -0.779342  1.809539
  C     7.399971  2.724682  1.877343
  N     9.754952 -0.249947  1.686751
  N     9.684394  3.029940  1.767726
  N     7.669191 -0.986022  0.471460
  N     7.465385  2.613174  0.522360
  N     6.879536 -0.533360  4.316611
  N     6.768814  2.986436  4.384980
  S     6.170857 -1.006293  2.820069
  S     6.069117  2.483584  2.971304
  S     9.268068 -0.574998  0.124219
  S     9.102473  2.910648  0.251031
  S     8.475148 -0.067786  4.231559
  S     8.397280  3.240749  4.383109
