16  
    
  C     6.639442 -1.794845  1.889243
  C     6.626826  2.192096  2.082094
  C     5.386443 -2.132850  1.255427
  C     5.455307  1.544060  1.467907
  N     7.609880 -1.542406  1.001634
  N     7.476124  2.657543  1.176807
  N     5.403189 -2.071883 -0.086913
  N     5.587602  1.386927  0.150356
  N     5.013127 -2.235910  3.789874
  N     5.019644  1.505215  3.993611
  S     4.108986 -2.514405  2.386676
  S     4.220919  1.081694  2.605115
  S     7.013892 -1.797156 -0.485059
  S     6.963914  2.086233 -0.289529
  S     6.624417 -1.794577  3.595542
  S     6.461271  2.373929  3.831599
