16  
    
  C     9.434065 -0.515603  2.717368
  C     9.360865  3.287971  2.531616
  C     8.225132 -0.973829  2.135449
  C     8.097077  3.021662  1.930769
  N    10.490401 -0.472831  1.867567
  N    10.427944  3.292926  1.709797
  N     8.265030 -1.192260  0.810728
  N     8.208799  2.699900  0.646053
  N     7.707036 -0.676731  4.627962
  N     7.485022  3.367829  4.401616
  S     6.838774 -1.015951  3.200928
  S     6.716765  2.930209  2.983462
  S     9.855161 -0.949086  0.402002
  S     9.755954  2.855899  0.239278
  S     9.317693 -0.243456  4.432151
  S     9.112859  3.490475  4.253620
