16  
    
  C     5.855253 -2.117369  1.877674
  C     6.109608  1.755583  1.932620
  C     4.637178 -2.470907  1.190747
  C     4.786831  1.695725  1.415010
  N     6.916394 -2.128989  1.065778
  N     7.044112  1.414843  1.027564
  N     4.662098 -2.555719 -0.153122
  N     4.708735  1.326227  0.134506
  N     4.026434 -2.364873  3.688563
  N     4.551143  2.019231  3.938259
  S     3.312066 -2.718364  2.232620
  S     3.544276  2.076460  2.619336
  S     6.335887 -2.374009 -0.493376
  S     6.223299  1.091680 -0.356379
  S     5.669923 -2.019997  3.560635
  S     6.185289  2.078122  3.633951
