16  
    
  C     4.626268 -2.126780  1.546547
  C     4.571693  1.655280  1.524387
  C     3.291504 -2.213808  1.013182
  C     3.393022  1.049422  0.900983
  N     5.618824 -2.254439  0.652214
  N     5.593696  1.887006  0.702468
  N     3.280105 -2.336909 -0.319755
  N     3.542674  0.944046 -0.414300
  N     3.025693 -2.037435  3.565241
  N     2.776188  1.252441  3.365284
  S     2.070800 -2.124670  2.216911
  S     2.079644  0.796934  2.001427
  S     4.864302 -2.298441 -0.832984
  S     4.993309  1.519990 -0.826836
  S     4.647824 -1.848216  3.252015
  S     4.373371  1.676521  3.320388
