16  
    
  C     6.127450 -1.540279  2.386110
  C     6.634534  2.141880  2.233343
  C     4.980658 -2.162177  1.770025
  C     5.404796  1.616470  1.633240
  N     7.217857 -1.328276  1.601575
  N     7.588111  2.436455  1.366417
  N     5.141977 -2.213328  0.427668
  N     5.441577  1.439552  0.321886
  N     4.356889 -2.083250  4.251500
  N     4.985929  1.646022  4.204983
  S     3.713851 -2.637429  2.834434
  S     4.142455  1.317701  2.772384
  S     6.598685 -1.610322  0.066033
  S     6.955045  2.110644 -0.172355
  S     5.984207 -1.620646  4.133815
  S     6.508548  2.248961  3.915714
