16  
    
  C     5.932212 -2.198633  1.668825
  C     5.418120  1.198707  1.761068
  C     4.603854 -2.482843  1.140684
  C     4.115945  0.900086  1.119500
  N     6.841928 -2.110190  0.721137
  N     6.447983  1.130428  0.941743
  N     4.621895 -2.707917 -0.155716
  N     4.177524  0.611034 -0.188062
  N     4.320548 -2.311894  3.723845
  N     3.710161  1.192227  3.622934
  S     3.371556 -2.562445  2.372489
  S     2.877995  0.670052  2.312724
  S     6.108293 -2.251940 -0.720948
  S     5.819051  0.807857 -0.571718
  S     5.940015 -1.951816  3.381217
  S     5.286895  1.691390  3.362799
