16  
    
  C    12.861852  1.716122  3.459010
  C    12.303188  5.042954  3.328440
  C    11.586275  1.222081  2.836968
  C    11.140302  4.664997  2.622953
  N    13.808765  1.693422  2.539477
  N    13.425942  5.260152  2.691298
  N    11.646794  0.975720  1.544517
  N    11.430886  4.506431  1.338052
  N    11.180490  1.647981  5.329932
  N    10.392877  4.708628  5.146453
  S    10.274862  1.247878  4.013032
  S     9.723471  4.291013  3.652678
  S    13.263268  1.184234  1.123902
  S    13.020692  4.926684  1.118132
  S    12.813490  1.916793  5.183321
  S    12.027428  5.081383  5.050321
