16  
    
  C     4.582072 -2.112880  1.927653
  C     4.124379  1.156996  1.229380
  C     3.442968 -2.664544  1.232418
  C     2.944082  0.746950  0.532442
  N     5.651686 -1.974717  1.202889
  N     5.192360  1.216981  0.444459
  N     3.583692 -2.758551 -0.064106
  N     3.007160  0.661028 -0.798948
  N     2.799704 -2.444666  3.707902
  N     2.237316  0.961696  3.041128
  S     2.063340 -2.887421  2.274602
  S     1.564064  0.479983  1.598296
  S     5.233295 -2.517755 -0.350468
  S     4.593874  0.822982 -1.095541
  S     4.291137 -1.716658  3.563891
  S     3.845970  1.388869  2.916196
