16  
    
  C    12.148652  1.692263  3.353177
  C    12.261829  5.338438  3.588480
  C    11.082710  0.992534  2.597855
  C    11.167790  4.716595  2.922831
  N    13.213086  1.825626  2.567129
  N    13.367762  5.628452  2.875693
  N    11.324018  0.792995  1.283370
  N    11.481708  4.455750  1.621009
  N    10.301537  1.251650  5.048071
  N    10.470529  4.853895  5.431552
  S     9.678369  0.766037  3.562171
  S     9.770333  4.388420  3.981474
  S    12.882564  1.338920  1.070377
  S    12.977808  5.086798  1.359568
  S    11.849043  1.822721  5.005811
  S    11.971340  5.647323  5.245577
