16  
    
  C     7.809737 -0.870019  1.785568
  C     7.878346  2.930669  2.398026
  C     6.565387 -1.437222  1.276461
  C     6.741231  2.451478  1.648053
  N     8.865031 -0.890769  0.963440
  N     8.950408  3.129577  1.660704
  N     6.664682 -1.699321 -0.027293
  N     7.068175  2.192263  0.392223
  N     6.192332 -1.015942  3.689413
  N     5.938742  2.644574  4.106301
  S     5.296383 -1.482533  2.340536
  S     5.296225  2.154839  2.648720
  S     8.188755 -1.398915 -0.464042
  S     8.527642  2.734875  0.054280
  S     7.732757 -0.587918  3.463968
  S     7.468300  3.185754  4.066193
