16  
    
  C    11.388651  0.628122  2.987336
  C    11.081031  4.637077  3.540460
  C    10.342422 -0.027472  2.208634
  C     9.844697  4.183096  2.994279
  N    12.473352  0.907219  2.320563
  N    12.097638  4.638611  2.705495
  N    10.691388 -0.276518  0.963308
  N     9.940164  3.714785  1.730487
  N     9.414337  0.372811  4.614633
  N     9.409684  4.516041  5.545870
  S     8.807689 -0.118667  3.113348
  S     8.550436  4.079712  4.209082
  S    12.289185  0.277800  0.829857
  S    11.498312  4.059130  1.252643
  S    10.991389  0.951891  4.706324
  S    10.905405  5.119576  5.232538
