16  
    
  C     7.220326 -1.332506  2.301090
  C     7.788227  2.879732  2.349451
  C     6.090919 -1.776362  1.525025
  C     6.653453  2.299447  1.702225
  N     8.301207 -0.916784  1.592817
  N     8.848756  3.060324  1.556393
  N     6.343312 -1.815780  0.216778
  N     6.827870  2.124495  0.399198
  N     5.223694 -1.861908  3.970904
  N     6.016418  2.486632  4.114570
  S     4.744587 -2.447875  2.478562
  S     5.281747  2.069093  2.700669
  S     7.868789 -1.189784 -0.003221
  S     8.304782  2.647676 -0.006581
  S     6.770229 -1.265440  4.049781
  S     7.587711  2.987373  4.029277
