16  
    
  C    11.354041  0.783926  3.051583
  C    11.147424  4.769609  3.438258
  C    10.186669  0.335277  2.326948
  C    10.072669  3.936361  2.904666
  N    12.431015  0.967802  2.271345
  N    12.177602  4.896465  2.610852
  N    10.428173  0.131179  1.006948
  N    10.266070  3.538782  1.651000
  N     9.511848  0.755904  4.804598
  N     9.447996  4.539791  5.367646
  S     8.899537 -0.026886  3.476712
  S     8.729120  3.866474  4.036744
  S    12.054420  0.454864  0.708151
  S    11.740709  4.180867  1.167834
  S    11.146842  1.278057  4.713648
  S    10.977226  5.128567  5.108112
