16  
    
  C    11.428099  1.033958  3.108492
  C    11.396108  4.683081  3.276834
  C    10.233073  0.401828  2.566623
  C    10.268044  3.943502  2.741577
  N    12.344087  1.249490  2.159375
  N    12.384489  4.873701  2.446731
  N    10.289107  0.041113  1.273125
  N    10.391286  3.748257  1.425476
  N     9.617762  0.897956  5.023220
  N     9.582862  4.455318  5.109480
  S     8.843681  0.269816  3.660952
  S     8.968042  3.712306  3.727182
  S    11.796155  0.582948  0.714039
  S    11.890949  4.285120  1.036961
  S    11.243182  1.242314  4.887804
  S    11.117668  5.127777  4.975421
