16  
    
  C     9.535598 -0.525837  2.783230
  C     9.347819  3.329099  2.533943
  C     8.244749 -0.766266  2.150689
  C     8.131310  3.016346  1.919260
  N    10.587488 -0.493137  1.906516
  N    10.463452  3.240301  1.796346
  N     8.359739 -1.116878  0.850442
  N     8.212438  2.855092  0.611193
  N     7.739194 -0.685301  4.609157
  N     7.506309  3.267108  4.372819
  S     6.913484 -1.024078  3.218199
  S     6.751174  2.958032  2.970129
  S     9.951622 -0.974764  0.442060
  S     9.869487  2.943505  0.227018
  S     9.383400 -0.344528  4.482280
  S     9.122662  3.480918  4.205284
