16  
    
  C    10.626955  0.799345  2.963120
  C    10.633181  4.495419  2.792427
  C     9.406716  0.245095  2.400169
  C     9.564628  3.622273  2.344061
  N    11.627510  0.917854  2.105626
  N    11.662019  4.670955  1.960697
  N     9.463895 -0.194357  1.161047
  N     9.795839  3.194709  1.093367
  N     8.887301  0.603011  4.911616
  N     8.852969  4.344719  4.648420
  S     8.071293  0.134124  3.546295
  S     8.121851  3.633639  3.324838
  S    11.043588  0.201234  0.686099
  S    11.246823  3.851475  0.611440
  S    10.410707  1.216767  4.658875
  S    10.321559  5.054431  4.401186
