16  
    
  C     7.304729 -1.697040  2.231109
  C     7.422356  2.320566  2.167968
  C     6.038128 -1.904964  1.540933
  C     6.214456  1.801849  1.592863
  N     8.379190 -1.618573  1.440527
  N     8.424422  2.436670  1.302239
  N     6.206622 -2.153062  0.265676
  N     6.364492  1.543298  0.277036
  N     5.466864 -1.989073  4.123765
  N     5.765282  2.236206  4.086892
  S     4.776142 -2.281581  2.654554
  S     4.931282  1.697307  2.750730
  S     7.820182 -1.941625 -0.108963
  S     7.832113  1.968960 -0.155024
  S     7.043604 -1.549391  3.996836
  S     7.374732  2.596791  3.892943
