16  
    
  C     6.217022 -1.775029  2.331703
  C     6.612381  2.112775  2.198715
  C     5.011730 -2.149481  1.659337
  C     5.410136  1.547660  1.595397
  N     7.166318 -1.298222  1.538866
  N     7.530819  2.486770  1.302849
  N     5.123380 -2.171936  0.326134
  N     5.480720  1.517247  0.250633
  N     4.488358 -2.024755  4.134013
  N     4.939577  1.700709  4.113579
  S     3.739961 -2.547528  2.736035
  S     4.176420  1.224984  2.752876
  S     6.673683 -1.591382  0.017938
  S     6.913189  2.110923 -0.182378
  S     6.067020 -1.690392  4.047379
  S     6.507129  2.269499  3.979458
