16  
    
  C     8.428033 -0.971899  2.438164
  C     8.251233  2.361934  2.093517
  C     7.208971 -1.256744  1.698103
  C     7.136849  1.877977  1.322673
  N     9.523185 -0.887886  1.709394
  N     9.337121  2.653967  1.425313
  N     7.370967 -1.325457  0.394139
  N     7.442862  1.765045  0.043174
  N     6.502188 -0.991205  4.138285
  N     6.228548  2.258017  3.678417
  S     5.753687 -0.991571  2.688524
  S     5.675952  1.697463  2.244460
  S     9.001856 -1.094268  0.136968
  S     8.945789  2.361325 -0.215099
  S     8.177253 -0.716303  4.127366
  S     7.886941  2.492188  3.710276
