16  
    
  C    11.979394  1.557782  3.476338
  C    12.131795  5.045108  3.778989
  C    10.895745  0.917345  2.814304
  C    10.892301  4.519990  3.297889
  N    12.914990  1.974819  2.671586
  N    13.016399  5.451491  2.848972
  N    11.085372  0.656231  1.529597
  N    10.736217  4.602895  2.012079
  N    10.352070  0.977656  5.328731
  N    10.552300  4.536325  5.831494
  S     9.769732  0.305356  3.946088
  S     9.638849  4.188742  4.447841
  S    12.536494  1.454669  1.117250
  S    12.223284  5.215331  1.404918
  S    11.844271  1.688767  5.293004
  S    12.147936  4.975713  5.528950
