16  
    
  C    11.337746  0.972506  3.278662
  C    11.532521  4.680549  3.043817
  C    10.083894  0.461056  2.695502
  C    10.341902  4.172656  2.395567
  N    12.330706  1.014188  2.393826
  N    12.577058  4.980573  2.259537
  N    10.127695  0.364470  1.357020
  N    10.517690  3.947931  1.102286
  N     9.702960  0.705303  5.196337
  N     9.795740  4.336937  4.869876
  S     8.744188  0.334324  3.883548
  S     9.085412  3.868701  3.435110
  S    11.679340  0.680550  0.894765
  S    12.061077  4.392554  0.738848
  S    11.259745  1.300367  4.948641
  S    11.383128  4.941773  4.748634
