16  
    
  C     6.505922 -1.730645  2.034161
  C     6.530461  2.259198  2.113008
  C     5.266914 -2.048475  1.372378
  C     5.393716  1.535670  1.509411
  N     7.513339 -1.464903  1.166538
  N     7.510392  2.564605  1.290443
  N     5.334974 -2.109641  0.025865
  N     5.457183  1.447737  0.198056
  N     4.807642 -2.252769  3.894441
  N     4.972558  1.621177  4.070443
  S     4.010092 -2.497419  2.487908
  S     4.226838  1.073886  2.668238
  S     6.866542 -1.720674 -0.364819
  S     6.975428  2.128194 -0.278206
  S     6.397862 -1.829971  3.757196
  S     6.453992  2.322590  3.852331
