16  
    
  C    12.517574  1.599263  3.492919
  C    12.367107  5.240869  3.482376
  C    11.333587  1.025461  2.995190
  C    11.145175  4.800258  2.899705
  N    13.584766  1.787973  2.678196
  N    13.322128  5.435459  2.579826
  N    11.394780  0.887266  1.686636
  N    11.168048  4.511622  1.567709
  N    10.831014  1.326740  5.468941
  N    10.655404  4.898657  5.442990
  S    10.021541  0.756101  4.101999
  S     9.868869  4.642839  3.961378
  S    12.872915  1.377814  1.138091
  S    12.723830  4.918448  1.092075
  S    12.461511  1.784262  5.264688
  S    12.230179  5.493848  5.232119
