16  
    
  C    11.065385  0.595214  2.845913
  C    11.055206  4.249306  3.318071
  C     9.819959 -0.024086  2.376090
  C     9.875555  3.827834  2.612255
  N    11.960077  0.919717  1.942818
  N    12.063280  4.410182  2.459072
  N     9.871580 -0.392375  1.108974
  N     9.924007  3.816448  1.274887
  N     9.431229  0.541983  4.861527
  N     9.251426  4.297786  5.149841
  S     8.605677 -0.153414  3.618437
  S     8.491471  3.759951  3.753626
  S    11.327655  0.251664  0.541450
  S    11.546725  4.200910  0.924485
  S    10.958284  1.068040  4.479988
  S    10.898713  4.434450  5.043453
