16  
    
  C     9.056580 -0.268377  2.375266
  C     9.403519  3.172683  2.690508
  C     7.871040 -0.938867  1.834879
  C     8.161882  2.830134  2.066915
  N    10.049959 -0.202460  1.525246
  N    10.381782  3.164414  1.822517
  N     8.025876 -1.355018  0.622352
  N     8.188417  2.564683  0.751507
  N     7.302951 -0.350291  4.316146
  N     7.675922  3.243260  4.608450
  S     6.642768 -1.142147  3.009502
  S     6.848149  2.886060  3.200256
  S     9.528782 -0.966405  0.139416
  S     9.778450  2.727871  0.358581
  S     8.872228  0.135372  4.109662
  S     9.313650  3.660296  4.480914
