16  
    
  C    11.005175  0.554255  3.193486
  C    11.058327  4.306872  3.401233
  C     9.844194 -0.011686  2.531415
  C     9.860592  3.749498  2.810604
  N    11.985210  1.000906  2.412194
  N    12.030923  4.554758  2.500271
  N     9.960140 -0.049355  1.206829
  N     9.859377  3.736447  1.486111
  N     9.143567  0.137345  4.936191
  N     9.305085  4.027989  5.299858
  S     8.428017 -0.139831  3.455070
  S     8.563104  3.500033  3.898501
  S    11.431338  0.684502  0.839473
  S    11.400992  4.229846  1.037743
  S    10.725076  0.627742  4.889426
  S    10.851022  4.585997  5.126479
