16  
    
  C     9.775653 -0.146006  2.537530
  C     9.720595  3.669761  2.591970
  C     8.526715 -0.700233  2.004567
  C     8.526583  3.103415  1.899706
  N    10.671675  0.178548  1.631331
  N    10.635814  4.029441  1.715005
  N     8.435680 -0.601067  0.686588
  N     8.618644  2.989547  0.571753
  N     8.304145 -0.610526  4.597297
  N     8.323231  3.011799  4.531070
  S     7.350937 -0.940670  3.253489
  S     7.353130  2.657199  3.145747
  S     9.899225  0.054810  0.162228
  S    10.137203  3.651100  0.127769
  S     9.805226 -0.053659  4.265107
  S     9.695546  3.960673  4.284673
