16  
    
  C     9.713853 -0.343551  2.533775
  C     9.747761  3.458118  2.555663
  C     8.446158 -0.762265  2.011513
  C     8.420095  3.192065  1.986656
  N    10.730656 -0.178391  1.633626
  N    10.766013  3.713727  1.754665
  N     8.484029 -0.872900  0.661264
  N     8.522771  3.191101  0.666267
  N     8.154967 -0.546938  4.544014
  N     8.111965  2.896405  4.497629
  S     7.198648 -1.048056  3.225972
  S     7.161003  2.796505  3.110419
  S    10.060722 -0.590144  0.178733
  S    10.095523  3.582362  0.207131
  S     9.758118 -0.246976  4.224895
  S     9.676004  3.263918  4.228802
