16  
    
  C     9.765832 -0.689135  2.644145
  C     9.612497  3.372439  2.626641
  C     8.496031 -0.924546  2.045856
  C     8.367138  3.096314  1.881695
  N    10.712797 -0.436200  1.781801
  N    10.623825  3.536642  1.782980
  N     8.551084 -1.085210  0.746028
  N     8.461966  3.165476  0.552079
  N     8.019762 -0.528922  4.569668
  N     7.956609  2.884635  4.450686
  S     7.204836 -0.967597  3.171932
  S     7.072842  2.954170  3.026058
  S    10.046905 -0.632575  0.263606
  S    10.097005  3.426081  0.226061
  S     9.622399 -0.299801  4.395224
  S     9.581905  3.180633  4.399848
