16  
    
  C     8.517910 -0.883133  2.384679
  C     8.281490  2.651125  2.029424
  C     7.279754 -1.252082  1.681216
  C     7.068528  2.271797  1.311637
  N     9.594328 -0.884474  1.631630
  N     9.350622  2.828197  1.245366
  N     7.417094 -1.248297  0.397642
  N     7.223891  2.095125  0.021408
  N     6.604092 -1.169285  4.088757
  N     6.356816  2.289379  3.777578
  S     5.834697 -1.510996  2.631657
  S     5.686970  1.892448  2.339248
  S     9.014852 -1.165119  0.078884
  S     8.848492  2.379829 -0.284795
  S     8.233233 -0.911960  4.082920
  S     7.917848  2.710108  3.720692
