16  
    
  C    12.580682  1.486359  3.373373
  C    12.772255  5.455237  3.501847
  C    11.387446  0.899961  2.734245
  C    11.661984  4.969973  2.735093
  N    13.469931  1.911515  2.484789
  N    13.860101  5.770482  2.810525
  N    11.432351  0.943904  1.410520
  N    12.002427  4.804539  1.460303
  N    10.860702  1.055993  5.246348
  N    10.920978  4.849345  5.218198
  S    10.065716  0.647566  3.855345
  S    10.286419  4.627166  3.675238
  S    12.852982  1.653921  0.973194
  S    13.569340  5.356241  1.281893
  S    12.366869  1.639093  5.035319
  S    12.478922  5.571043  5.243183
