16  
    
  C     5.875447 -2.150221  1.851220
  C     6.109945  1.704438  1.893659
  C     4.654832 -2.487766  1.163573
  C     4.761620  1.719940  1.417812
  N     6.952153 -2.118157  1.055860
  N     7.048303  1.460511  0.979086
  N     4.682553 -2.490948 -0.177008
  N     4.722404  1.338518  0.149945
  N     4.084425 -2.354180  3.631705
  N     4.548445  2.032740  3.917990
  S     3.295330 -2.691508  2.250156
  S     3.533789  2.092019  2.618736
  S     6.341181 -2.415155 -0.499421
  S     6.223862  1.081784 -0.367724
  S     5.683189 -2.030245  3.574053
  S     6.191475  2.050272  3.627737
