16  
    
  C     8.649706 -0.958404  2.360504
  C     8.350607  3.107131  2.162248
  C     7.527400 -1.684660  1.720790
  C     7.152744  2.491344  1.526672
  N     9.586691 -0.709906  1.486755
  N     9.272254  3.341198  1.259788
  N     7.624883 -1.818901  0.422936
  N     7.251821  2.181526  0.239458
  N     6.939236 -1.420250  4.216504
  N     6.697058  2.797464  4.046677
  S     6.238073 -1.911162  2.831733
  S     5.916655  2.191395  2.714541
  S     9.080671 -1.161848 -0.017032
  S     8.733148  2.779230 -0.181567
  S     8.542747 -0.902428  4.132912
  S     8.272926  3.348001  3.962135
