16  
    
  C     4.296235 -2.347435  1.827897
  C     4.083176  1.124106  1.193784
  C     3.146888 -3.026422  1.272670
  C     2.995979  0.337003  0.639924
  N     5.176390 -1.893944  0.941561
  N     4.950930  1.500475  0.280599
  N     3.316206 -3.267757 -0.024619
  N     3.164331 -0.001496 -0.611665
  N     2.555805 -2.422666  3.709633
  N     2.259569  0.952684  3.005547
  S     1.810324 -3.105947  2.382295
  S     1.635665  0.102465  1.704329
  S     4.778159 -2.619444 -0.439556
  S     4.584009  0.700711 -1.140769
  S     4.157258 -2.005679  3.509665
  S     3.750305  1.597062  2.835092
