16  
    
  C     5.432203 -2.115956  1.596706
  C     5.248985  1.588319  1.566501
  C     4.298045 -2.599362  0.838698
  C     4.144477  0.874185  0.905191
  N     6.552224 -2.116373  0.871030
  N     6.371236  1.702336  0.876530
  N     4.538861 -2.789512 -0.464619
  N     4.451360  0.545803 -0.358496
  N     3.516322 -2.447567  3.240265
  N     3.125555  1.755338  3.068795
  S     2.887919 -2.890806  1.796742
  S     2.646399  0.821840  1.852046
  S     6.142184 -2.452278 -0.708876
  S     5.974937  1.068490 -0.631912
  S     5.098780 -2.032804  3.261503
  S     4.700269  2.287280  3.036869
