16  
    
  C     5.477851 -2.186294  1.915099
  C     5.249754  1.616387  1.757989
  C     4.329230 -2.775128  1.248199
  C     4.160586  0.967380  1.021076
  N     6.443384 -1.834168  1.093292
  N     6.210104  2.067940  0.975080
  N     4.455859 -2.749145 -0.054331
  N     4.173976  1.096611 -0.313148
  N     3.738179 -2.473850  3.735262
  N     3.524568  0.856196  3.516099
  S     2.974361 -2.892597  2.323185
  S     3.019751  0.195179  2.057383
  S     6.005652 -2.213646 -0.426388
  S     5.704984  1.751504 -0.615514
  S     5.266948 -1.915450  3.636170
  S     5.046497  1.561997  3.453626
