16  
    
  C    11.630594  1.213100  2.852091
  C    11.811897  4.996261  3.115699
  C    10.431435  0.648751  2.325770
  C    10.679553  4.345558  2.542795
  N    12.534057  1.501817  1.933002
  N    12.842359  5.129837  2.258260
  N    10.444919  0.389055  1.053594
  N    10.773541  4.165663  1.236221
  N    10.099469  0.808936  4.899968
  N    10.084129  4.707345  5.032292
  S     9.260828  0.272790  3.525434
  S     9.303471  4.108438  3.689304
  S    11.931180  0.946195  0.490582
  S    12.330201  4.641688  0.799824
  S    11.715429  1.209550  4.635771
  S    11.540055  5.400004  4.777351
