16  
    
  C    11.957872  1.265732  3.313638
  C    11.850848  4.879859  3.673107
  C    10.772084  0.695128  2.586219
  C    10.632505  4.453446  2.932706
  N    12.965157  1.547257  2.521936
  N    12.883761  5.032337  2.905500
  N    11.075820  0.423448  1.312288
  N    10.768310  4.267025  1.612455
  N    10.264876  0.879249  5.113310
  N     9.901279  4.473196  5.464770
  S     9.479892  0.521400  3.700047
  S     9.256584  4.059104  3.967375
  S    12.573346  1.124242  0.991808
  S    12.407070  4.612197  1.311588
  S    11.812433  1.498070  5.066855
  S    11.475760  5.059050  5.379298
