16  
    
  C     8.995531 -0.215455  2.324226
  C     9.479544  3.271458  2.707904
  C     7.842656 -0.896712  1.785405
  C     8.225712  2.969081  2.148736
  N    10.063151 -0.224104  1.546774
  N    10.512996  3.187551  1.880350
  N     8.009535 -1.324128  0.550312
  N     8.221257  2.672459  0.848647
  N     7.222713 -0.378908  4.237808
  N     7.697896  3.280268  4.652595
  S     6.504496 -1.117429  2.947892
  S     6.907338  2.880146  3.270670
  S     9.609271 -0.938842  0.108707
  S     9.827265  2.727424  0.400787
  S     8.811079  0.167004  4.015362
  S     9.282322  3.634718  4.377974
