16  
    
  C    11.984165  1.438089  3.457347
  C    12.333645  5.087529  3.217572
  C    10.896038  0.824699  2.731744
  C    11.047291  4.790080  2.660380
  N    13.046703  1.544671  2.684200
  N    13.381065  5.017998  2.434966
  N    11.128217  0.419330  1.520192
  N    11.123075  4.396797  1.407148
  N    10.134913  1.120238  5.243687
  N    10.422481  5.380857  5.047789
  S     9.521700  0.683154  3.736100
  S     9.647155  4.805485  3.708743
  S    12.705902  0.890677  1.252839
  S    12.712334  4.495426  0.957058
  S    11.738388  1.626124  5.137101
  S    12.010060  5.715520  4.890303
