16  
    
  C    11.077594  0.601880  2.876968
  C    11.069311  4.267006  3.285865
  C     9.826223  0.021070  2.381738
  C     9.836500  3.827649  2.647384
  N    11.972864  0.861252  1.916826
  N    12.068844  4.518409  2.453910
  N     9.858802 -0.361744  1.116428
  N     9.940438  3.780566  1.317361
  N     9.416121  0.502178  4.901194
  N     9.224482  4.215235  5.161656
  S     8.589629 -0.150324  3.607022
  S     8.484568  3.747656  3.734354
  S    11.291186  0.290848  0.479537
  S    11.541732  4.185420  0.930884
  S    10.926384  1.067959  4.511028
  S    10.842316  4.459849  5.055006
