16  
    
  C     4.654627 -2.582807  1.522781
  C     5.282412  1.627309  1.790397
  C     3.438078 -3.003414  0.846927
  C     3.959235  1.275355  1.306080
  N     5.649004 -2.194641  0.764499
  N     6.244169  1.649785  0.827089
  N     3.458691 -2.806809 -0.448255
  N     3.917458  1.174431 -0.026695
  N     2.851991 -2.959446  3.326062
  N     3.627094  1.622675  3.791964
  S     2.117298 -3.381150  1.910303
  S     2.679029  1.300183  2.513759
  S     5.022291 -2.310101 -0.811130
  S     5.457625  1.296012 -0.604380
  S     4.410227 -2.447206  3.231590
  S     5.243868  1.774852  3.600867
