16  
    
  C     9.033631 -0.347539  2.521260
  C     9.243522  3.461461  2.752711
  C     7.793555 -0.849179  1.957344
  C     7.980566  3.161314  2.185267
  N    10.016313 -0.153632  1.665451
  N    10.278327  3.629060  1.936435
  N     7.825649 -0.887818  0.669813
  N     8.004867  3.063598  0.865991
  N     7.370490 -0.920161  4.482764
  N     7.425362  3.365016  4.689374
  S     6.503526 -1.060309  3.041449
  S     6.591551  2.896058  3.284221
  S     9.319840 -0.414275  0.152237
  S     9.623016  3.223376  0.442804
  S     8.950384 -0.340648  4.269052
  S     9.047020  3.710352  4.466080
