16  
    
  C     7.257822 -1.440603  2.263283
  C     7.265149  2.230836  2.097686
  C     6.016090 -1.874440  1.664286
  C     6.065158  1.641026  1.493660
  N     8.302334 -1.313148  1.391655
  N     8.272081  2.346521  1.285984
  N     6.142797 -2.237798  0.378931
  N     6.145654  1.285513  0.220266
  N     5.423541 -1.259294  4.006035
  N     5.604342  2.081928  4.005041
  S     4.733550 -2.095819  2.725986
  S     4.769594  1.612598  2.646141
  S     7.625193 -1.784674 -0.070446
  S     7.725266  1.810086 -0.263096
  S     7.035076 -0.917606  3.905330
  S     7.180266  2.450612  3.821326
