16  
    
  C    11.620961  1.158718  2.935181
  C    11.788186  5.141837  3.071542
  C    10.372622  0.815820  2.392368
  C    10.673639  4.428090  2.572340
  N    12.622557  1.343069  2.078669
  N    12.795480  5.195347  2.227170
  N    10.431384  0.553859  1.062914
  N    10.824760  4.004423  1.309597
  N    10.101875  0.619418  4.954840
  N    10.255693  4.792878  5.068684
  S     9.171467  0.367532  3.623374
  S     9.466720  4.177817  3.713615
  S    11.992945  0.872499  0.601902
  S    12.334980  4.432925  0.855327
  S    11.610033  1.236063  4.641761
  S    11.717653  5.539541  4.795621
