16  
    
  C     7.302240 -1.026032  2.044357
  C     7.725734  2.820288  2.149258
  C     6.118990 -1.509038  1.368414
  C     6.497897  2.249731  1.585285
  N     8.324283 -0.912100  1.255932
  N     8.692715  2.932426  1.273186
  N     6.230080 -1.637562  0.074355
  N     6.488429  2.017597  0.267967
  N     5.675690 -1.606667  3.870305
  N     6.031531  2.785539  4.081309
  S     4.824836 -1.930880  2.423814
  S     5.262855  2.063938  2.794827
  S     7.825359 -1.336425 -0.265705
  S     8.117017  2.439337 -0.190091
  S     7.248325 -1.125837  3.786799
  S     7.570125  3.200636  3.903627
