16  
    
  C     4.610776 -1.983442  1.547116
  C     4.637075  1.623833  1.718369
  C     3.347326 -2.354709  0.974750
  C     3.424694  1.187487  1.036026
  N     5.619210 -2.020966  0.640884
  N     5.708922  1.702471  0.937190
  N     3.377270 -2.671418 -0.354190
  N     3.598439  1.043172 -0.279516
  N     2.940999 -2.320255  3.507654
  N     2.903748  1.478550  3.546342
  S     2.050655 -2.321325  2.103544
  S     2.083900  1.122492  2.129483
  S     4.908476 -2.352949 -0.797436
  S     5.220046  1.466292 -0.631878
  S     4.588901 -2.030379  3.288718
  S     4.527479  1.695164  3.446515
