16  
    
  C    10.873872  0.786575  2.919377
  C    10.869964  4.407730  3.341718
  C     9.697359  0.181938  2.348389
  C     9.735054  3.842234  2.698344
  N    11.929782  0.864587  2.120464
  N    11.907753  4.799553  2.598456
  N     9.794820  0.055977  1.040021
  N     9.985891  3.656457  1.404899
  N     9.312578  0.254790  4.938010
  N     9.186194  3.973822  5.250023
  S     8.458239 -0.230327  3.588210
  S     8.419764  3.590108  3.839464
  S    11.356855  0.424288  0.645434
  S    11.535499  4.181381  1.068935
  S    10.866224  0.817555  4.629916
  S    10.679512  4.661941  5.069339
