16  
    
  C    10.152687  0.580912  2.653443
  C    10.720305  4.244475  2.873580
  C     9.013617 -0.050948  2.027114
  C     9.415419  3.929309  2.291245
  N    11.186749  0.680529  1.821445
  N    11.641535  4.262953  1.936076
  N     9.158130 -0.322082  0.725868
  N     9.383843  3.628329  0.994345
  N     8.322519  0.528503  4.400618
  N     8.975923  4.170747  4.756420
  S     7.738070 -0.324317  3.120765
  S     8.166527  3.689457  3.384678
  S    10.721346  0.064806  0.358512
  S    10.984171  3.808027  0.490934
  S     9.965021  0.851285  4.355071
  S    10.563024  4.677888  4.590132
