16  
    
  C     3.298715 -3.213145  1.232761
  C     3.620287  0.597532  1.361639
  C     2.073766 -3.344052  0.495675
  C     2.403765  0.292393  0.669205
  N     4.361335 -3.011505  0.504462
  N     4.662362  0.800798  0.563913
  N     2.259013 -3.334192 -0.827557
  N     2.553759  0.093166 -0.636697
  N     1.545538 -3.437043  2.967027
  N     1.793058  0.439776  3.158769
  S     0.659355 -3.509619  1.548213
  S     1.037082  0.085073  1.716059
  S     3.884731 -3.041069 -1.027191
  S     4.128811  0.412782 -0.976578
  S     3.182362 -3.322428  2.912423
  S     3.375449  0.666053  3.078593
