16  
    
  C     6.213603 -1.631602  1.532690
  C     6.416193  1.997629  1.884057
  C     5.067695 -2.290441  1.015119
  C     5.190966  1.683426  1.193997
  N     7.236618 -1.414765  0.673215
  N     7.487139  2.052904  1.115375
  N     5.241641 -2.566416 -0.294138
  N     5.244759  1.674374 -0.118176
  N     4.395690 -1.870033  3.466087
  N     4.550683  1.964300  3.706129
  S     3.683855 -2.437907  2.032261
  S     3.795911  1.549241  2.243540
  S     6.730085 -2.124794 -0.736635
  S     6.919049  1.826416 -0.494892
  S     6.011353 -1.247807  3.270723
  S     6.217153  2.149582  3.576377
