16  
    
  C     7.085444 -1.227094  2.272587
  C     7.107860  2.243324  2.081216
  C     5.866673 -1.703768  1.608927
  C     5.873582  1.778981  1.466643
  N     8.134019 -1.168903  1.471416
  N     8.198567  2.267175  1.318232
  N     6.002860 -1.981387  0.322285
  N     5.993896  1.580551  0.176245
  N     5.395645 -1.699171  4.108875
  N     5.375593  1.947174  3.959916
  S     4.521269 -2.009540  2.697549
  S     4.540813  1.646012  2.540279
  S     7.549905 -1.624755 -0.057005
  S     7.584685  1.918137 -0.298624
  S     6.994034 -1.280700  3.983985
  S     6.895497  2.595685  3.788982
