16  
    
  C     9.732986 -0.318600  2.522602
  C     9.720085  3.497571  2.539797
  C     8.423440 -0.658712  1.973601
  C     8.467409  3.160780  1.957063
  N    10.677442 -0.140472  1.624189
  N    10.755179  3.724669  1.697536
  N     8.502894 -0.855549  0.651966
  N     8.518413  3.206057  0.638751
  N     8.183977 -0.556177  4.553620
  N     8.135753  2.911104  4.478945
  S     7.232312 -1.052401  3.230726
  S     7.176765  2.772997  3.095049
  S    10.044014 -0.571229  0.166490
  S    10.083922  3.609536  0.189878
  S     9.762144 -0.239079  4.207193
  S     9.716589  3.303744  4.306018
