16  
    
  C     5.479585 -2.179243  1.919445
  C     5.255917  1.616436  1.763312
  C     4.333325 -2.777780  1.253259
  C     4.156107  0.971779  1.028187
  N     6.450244 -1.833279  1.092244
  N     6.208950  2.070013  0.972527
  N     4.455596 -2.754672 -0.058831
  N     4.170878  1.092652 -0.305151
  N     3.741975 -2.469761  3.733769
  N     3.525935  0.853493  3.513053
  S     2.977206 -2.887939  2.326364
  S     3.018724  0.194416  2.062595
  S     6.005512 -2.213053 -0.427882
  S     5.700051  1.747232 -0.615532
  S     5.265802 -1.913274  3.633727
  S     5.048196  1.561393  3.450949
