16  
    
  C     8.432420 -1.014549  2.491603
  C     8.180916  2.609710  2.245442
  C     7.161802 -1.494871  2.103129
  C     7.030935  2.095749  1.551348
  N     9.320934 -0.872798  1.495976
  N     9.277835  2.784188  1.475289
  N     7.154862 -1.995374  0.862067
  N     7.162170  1.976234  0.212693
  N     6.804902 -0.699276  4.440930
  N     6.202008  2.787663  3.959965
  S     5.927152 -1.364463  3.248909
  S     5.551582  2.062950  2.530611
  S     8.611970 -1.594548  0.200674
  S     8.818365  2.376215 -0.033974
  S     8.441857 -0.443695  4.106701
  S     7.900102  2.968269  3.956333
