16  
    
  C     9.725353 -0.105252  2.880002
  C     9.722900  3.535615  2.760135
  C     8.518327 -0.590390  2.185560
  C     8.521988  3.155983  2.087506
  N    10.693820  0.148160  2.048873
  N    10.685926  3.873279  1.912323
  N     8.747938 -0.851993  0.916985
  N     8.530349  3.275277  0.753244
  N     7.886012 -0.440451  4.706131
  N     7.943011  3.219829  4.596076
  S     7.137638 -0.840129  3.247438
  S     7.147913  3.295187  3.186576
  S    10.250054 -0.311354  0.543365
  S    10.026093  3.800819  0.378540
  S     9.512574  0.083081  4.596911
  S     9.561055  3.519484  4.479219
