16  
    
  C    10.222063  0.459222  2.859246
  C    10.788385  4.435843  2.851992
  C     9.047391 -0.101222  2.273878
  C     9.611184  4.057531  2.143169
  N    11.118282  0.941109  1.968530
  N    11.780961  4.721263  2.004220
  N     9.044913 -0.172632  0.940026
  N     9.712844  3.832105  0.832961
  N     8.501961  0.036709  4.774913
  N     8.899381  3.872450  4.624230
  S     7.716215 -0.493599  3.376624
  S     8.216010  3.701988  3.124481
  S    10.428825  0.589286  0.491529
  S    11.230722  4.327697  0.486191
  S    10.087120  0.528920  4.625695
  S    10.494270  4.326047  4.614651
