16  
    
  C     6.360683 -1.679394  2.165108
  C     6.584387  2.160348  2.140705
  C     5.152033 -2.148718  1.533083
  C     5.360502  1.634634  1.546605
  N     7.402308 -1.435951  1.322826
  N     7.519951  2.529176  1.265454
  N     5.238854 -2.168576  0.195897
  N     5.491773  1.501710  0.242637
  N     4.635077 -2.159021  4.047223
  N     4.916698  1.729429  4.082952
  S     3.837583 -2.490109  2.574065
  S     4.192868  1.076905  2.727012
  S     6.783103 -1.604636 -0.209146
  S     6.932985  2.140148 -0.172562
  S     6.237519 -1.793055  3.887024
  S     6.489289  2.283956  3.856057
