16  
    
  C     6.060893 -2.180807  1.776677
  C     6.138365  1.764624  1.809164
  C     4.799177 -2.443018  1.110143
  C     4.822630  1.781119  1.214222
  N     7.104925 -2.214427  0.959839
  N     7.117967  1.512382  0.946237
  N     4.865629 -2.745600 -0.208285
  N     4.901227  1.710513 -0.113394
  N     4.265443 -2.116485  3.672190
  N     4.401805  1.975725  3.769443
  S     3.455547 -2.491010  2.203107
  S     3.492155  1.950824  2.347894
  S     6.510936 -2.518247 -0.585295
  S     6.437868  1.506449 -0.531002
  S     5.930884 -1.937171  3.445059
  S     6.085392  1.875150  3.554896
