16  
    
  C     8.417811 -0.940471  2.481975
  C     8.158572  2.931267  2.325496
  C     7.129026 -1.378992  2.007225
  C     7.027152  2.302890  1.710353
  N     9.382350 -0.894619  1.502803
  N     9.263727  3.056110  1.572103
  N     7.166096 -1.892502  0.745243
  N     7.170710  2.034962  0.414365
  N     6.746508 -0.768374  4.525058
  N     6.242827  2.665597  4.151565
  S     5.841489 -1.426142  3.254217
  S     5.606937  2.049553  2.651345
  S     8.688066 -1.610222  0.126379
  S     8.758277  2.471047  0.039297
  S     8.296326 -0.405989  4.148140
  S     7.841517  3.192258  4.003989
