16  
    
  C     4.277318 -2.568389  1.607109
  C     4.185641  1.169344  1.705044
  C     3.026873 -3.044609  1.069414
  C     2.841102  1.188085  1.115901
  N     5.297169 -2.667089  0.719116
  N     5.211682  0.989377  0.894089
  N     3.082889 -3.472034 -0.202983
  N     2.884702  0.943611 -0.185634
  N     2.566957 -2.602132  3.514672
  N     2.527616  1.310283  3.628145
  S     1.855069 -3.405980  2.251538
  S     1.583849  1.217707  2.260294
  S     4.593884 -3.141354 -0.734092
  S     4.498682  0.855311 -0.580790
  S     4.144021 -2.043184  3.250218
  S     4.143475  1.483332  3.395570
