16  
    
  C     8.953103 -0.268910  2.544974
  C     8.582221  3.442945  2.555589
  C     7.730458 -0.673095  1.901053
  C     7.370218  2.924516  1.936921
  N     9.963264 -0.061520  1.694748
  N     9.523188  3.750848  1.663446
  N     7.809006 -0.758826  0.579805
  N     7.426955  2.794187  0.624132
  N     7.145173 -0.577622  4.487419
  N     7.078631  2.744910  4.533175
  S     6.407697 -0.957728  2.992332
  S     6.267751  2.478002  3.103692
  S     9.390393 -0.375736  0.149851
  S     8.887965  3.447951  0.176304
  S     8.806616 -0.237344  4.375922
  S     8.645507  3.267785  4.321394
