16  
    
  C    10.273446 -0.087665  2.837175
  C    10.349515  3.925598  3.112550
  C     9.069674 -0.423551  2.203243
  C     9.051321  3.747155  2.515770
  N    11.337338 -0.008842  1.982181
  N    11.367401  3.889063  2.264800
  N     9.091146 -0.423429  0.847909
  N     9.040857  3.560045  1.187401
  N     8.461898 -0.387284  4.717549
  N     8.586385  4.204068  4.967957
  S     7.697417 -0.547070  3.231582
  S     7.678485  3.962484  3.633001
  S    10.664428 -0.191591  0.463005
  S    10.709130  3.743632  0.755996
  S    10.086394 -0.044352  4.621911
  S    10.197040  4.174039  4.806384
