16  
    
  C    12.753597  1.669939  3.414152
  C    12.650303  5.438367  3.209138
  C    11.500101  1.164615  2.760604
  C    11.419821  4.879493  2.749535
  N    13.666144  1.948832  2.462317
  N    13.605354  5.629957  2.310361
  N    11.479335  1.149299  1.422784
  N    11.395213  4.659604  1.405185
  N    11.063413  1.421222  5.267167
  N    11.077470  4.839930  5.224006
  S    10.209543  0.856051  3.923126
  S    10.222046  4.421863  3.906867
  S    13.038593  1.622936  0.971544
  S    12.827055  5.116647  0.839182
  S    12.693776  1.633470  5.137811
  S    12.587848  5.501791  5.004999
