16  
    
  C    11.877462  1.278367  3.305571
  C    11.882454  4.802875  3.508761
  C    10.767114  0.704278  2.652730
  C    10.723305  4.410825  2.803063
  N    13.000036  1.240841  2.600248
  N    12.903955  4.986621  2.732048
  N    10.923045  0.471330  1.354989
  N    10.910251  4.247669  1.471119
  N     9.997043  1.235398  5.077401
  N     9.935225  4.840072  5.209847
  S     9.431636  0.432401  3.694409
  S     9.252222  4.388842  3.787319
  S    12.513866  0.806544  1.061115
  S    12.471138  4.624433  1.170652
  S    11.670378  1.608735  5.086457
  S    11.560186  5.105046  5.210127
