16  
    
  C     7.290775 -1.514799  2.266728
  C     7.707809  2.733488  2.260862
  C     6.247083 -2.103503  1.536747
  C     6.464695  2.322141  1.614662
  N     8.208499 -0.945998  1.472141
  N     8.726260  2.999837  1.446553
  N     6.401618 -2.188510  0.208513
  N     6.527004  2.286770  0.285473
  N     5.441043 -2.117875  3.919115
  N     5.946136  2.240945  4.179561
  S     4.896589 -2.555147  2.438696
  S     5.164122  2.000326  2.744530
  S     7.792924 -1.337319 -0.063226
  S     8.177437  2.669777 -0.076588
  S     6.987543 -1.406285  3.922998
  S     7.516919  2.912338  4.020052
