16  
    
  C     8.404949 -0.898595  2.483974
  C     8.257546  2.490260  2.105124
  C     7.118047 -1.115543  1.832848
  C     7.112258  2.067228  1.329185
  N     9.440621 -0.914326  1.602119
  N     9.423830  2.505884  1.415292
  N     7.260287 -1.479260  0.542818
  N     7.358957  1.881279  0.036068
  N     6.593515 -0.535756  4.304961
  N     6.253350  2.089146  3.809529
  S     5.783897 -1.178463  2.983047
  S     5.642709  1.812635  2.250116
  S     8.869493 -1.360272  0.116511
  S     8.984892  2.213715 -0.108256
  S     8.257412 -0.525359  4.187006
  S     7.886704  2.593730  3.769288
