16  
    
  C    11.302106  1.256776  3.191202
  C    11.389418  4.896947  2.917867
  C    10.072137  0.656648  2.657763
  C    10.298134  4.224099  2.223248
  N    12.344202  1.365045  2.333374
  N    12.352995  5.200727  2.068939
  N    10.184639  0.562737  1.340276
  N    10.434222  4.009199  0.929259
  N     9.821874  0.697751  5.261969
  N     9.644672  4.583944  4.782490
  S     8.940519  0.136461  3.943460
  S     8.986542  3.924126  3.394591
  S    11.714059  0.964447  0.807032
  S    11.919835  4.631284  0.522584
  S    11.319858  1.373313  4.909489
  S    11.239018  5.045346  4.624951
