16  
    
  C     9.382317 -0.502455  2.723222
  C     9.318934  3.265790  2.522473
  C     8.198702 -1.039098  2.133025
  C     8.085399  2.994780  1.921300
  N    10.432783 -0.476831  1.849059
  N    10.396015  3.304388  1.678605
  N     8.266068 -1.221595  0.781507
  N     8.188449  2.650663  0.633534
  N     7.701467 -0.659265  4.626457
  N     7.488207  3.383478  4.412111
  S     6.832730 -1.011764  3.205812
  S     6.699543  2.924617  2.982889
  S     9.825308 -0.936662  0.377748
  S     9.743909  2.834937  0.241486
  S     9.283868 -0.214297  4.406287
  S     9.143952  3.502805  4.308229
