16  
    
  C     7.771329 -0.845651  1.765584
  C     7.799369  2.943397  2.350090
  C     6.569606 -1.406502  1.217183
  C     6.684305  2.399587  1.628911
  N     8.762384 -0.843205  0.912303
  N     8.923122  3.117821  1.639647
  N     6.614650 -1.738683 -0.049908
  N     6.904845  2.192142  0.331163
  N     6.150816 -1.075659  3.699064
  N     5.911822  2.670603  4.032081
  S     5.255556 -1.453860  2.367718
  S     5.301261  2.140155  2.645756
  S     8.185884 -1.419653 -0.499927
  S     8.521434  2.699161  0.065803
  S     7.758700 -0.622969  3.473744
  S     7.461072  3.216606  4.049688
