16  
    
  C     9.978934 -0.032014  2.671635
  C     9.944299  3.823481  2.749561
  C     8.753754 -0.497983  2.013048
  C     9.009366  2.812094  2.264279
  N    10.987452  0.156893  1.836320
  N    10.918302  4.173498  1.919688
  N     8.882396 -0.667620  0.697461
  N     9.220528  2.473729  1.006750
  N     8.362494 -0.442215  4.592647
  N     8.469953  3.401252  4.715405
  S     7.488334 -0.722925  3.218473
  S     7.813316  2.506897  3.494297
  S    10.462632 -0.219422  0.333598
  S    10.565855  3.426910  0.452671
  S     9.942732  0.112194  4.403937
  S     9.588059  4.550988  4.316648
