16  
    
  C     9.884970 -0.067911  2.789984
  C     9.714920  3.804036  2.806635
  C     8.804144 -0.659650  2.067527
  C     8.579486  3.321862  2.083316
  N    11.007832  0.077356  2.010277
  N    10.770596  4.112073  2.069002
  N     8.961876 -0.792937  0.720147
  N     8.774953  3.046415  0.792807
  N     7.966831 -0.358422  4.453515
  N     7.824729  3.602814  4.543632
  S     7.407979 -0.919852  3.017018
  S     7.231886  3.187014  3.051544
  S    10.530551 -0.299082  0.448656
  S    10.330104  3.694860  0.477316
  S     9.573250  0.045167  4.530292
  S     9.391025  4.245783  4.525354
