16  
    
  C     5.675634 -2.077591  2.051374
  C     5.927279  1.572483  1.998472
  C     4.498463 -2.689255  1.483610
  C     4.718957  1.143371  1.290972
  N     6.732782 -1.841444  1.248453
  N     6.921435  1.958929  1.204605
  N     4.671213 -2.947696  0.184050
  N     4.901341  1.109728 -0.037535
  N     3.936421 -2.336631  3.912531
  N     4.145421  1.009551  3.803340
  S     3.202721 -2.977761  2.552666
  S     3.395385  0.701618  2.364752
  S     6.244522 -2.465774 -0.229800
  S     6.455134  1.616144 -0.346269
  S     5.492738 -1.820361  3.771292
  S     5.703273  1.648869  3.708174
