16  
    
  C    12.577517  1.635253  3.417496
  C    12.725020  5.223004  3.270719
  C    11.335011  1.169967  2.706363
  C    11.527971  4.729602  2.725743
  N    13.609964  1.889453  2.591943
  N    13.706359  5.639685  2.440792
  N    11.455278  1.243042  1.358887
  N    11.555767  4.692191  1.378923
  N    10.977319  0.952412  5.222213
  N    11.152328  5.084157  5.266318
  S    10.083394  0.860361  3.849087
  S    10.301499  4.461554  3.965575
  S    13.008561  1.772100  1.021909
  S    13.047504  5.303898  0.913672
  S    12.489411  1.669831  5.180563
  S    12.692844  5.550906  4.935748
