16  
    
  C     6.301115 -1.613919  1.587953
  C     6.385893  2.127982  1.888626
  C     5.137964 -2.181626  0.927366
  C     5.249170  1.550768  1.235400
  N     7.355314 -1.382406  0.765836
  N     7.373444  2.401173  1.036729
  N     5.296893 -2.359706 -0.401816
  N     5.458955  1.213118 -0.035144
  N     4.435538 -1.795563  3.332914
  N     4.644207  1.826016  3.730284
  S     3.815485 -2.530874  2.005807
  S     3.875571  1.361310  2.343499
  S     6.884568 -1.979701 -0.723882
  S     6.968722  1.721613 -0.379367
  S     5.976825 -1.170938  3.241247
  S     6.140460  2.438198  3.571139
