16  
    
  C     9.748489  0.030654  2.866580
  C     9.771749  3.558429  2.692413
  C     8.629723 -0.609269  2.215594
  C     8.483033  3.451104  2.070470
  N    10.701028  0.320805  2.042436
  N    10.778225  3.728793  1.837494
  N     8.633155 -0.677547  0.914350
  N     8.484027  3.449077  0.739174
  N     7.980865 -0.461443  4.738854
  N     8.094586  3.155866  4.687144
  S     7.296994 -0.992697  3.306322
  S     7.316037  2.923370  3.224271
  S    10.091552  0.006732  0.483260
  S    10.094005  3.614077  0.372965
  S     9.567954  0.123088  4.638050
  S     9.706042  3.466119  4.473477
