16  
    
  C    10.981063  0.731690  3.299178
  C    11.287679  4.221442  3.232337
  C     9.837014  0.205213  2.550996
  C    10.020768  3.810041  2.642647
  N    12.049529  0.823126  2.548664
  N    12.174383  4.435839  2.267133
  N     9.996966  0.126101  1.255377
  N     9.949278  3.773989  1.299656
  N     9.234869 -0.043119  5.052721
  N     9.576193  3.777278  5.174720
  S     8.549612 -0.310393  3.528701
  S     8.709702  3.481755  3.788868
  S    11.597200  0.543568  0.951068
  S    11.490260  4.144879  0.800742
  S    10.745561  0.660101  5.064537
  S    11.142272  4.314224  4.974539
