16  
    
  C    11.734486  0.933039  3.145535
  C    11.924493  5.089511  3.090770
  C    10.427995  0.610266  2.466859
  C    10.725880  4.394442  2.645708
  N    12.674376  1.052756  2.232512
  N    12.912226  5.234259  2.182501
  N    10.451806  0.605299  1.150426
  N    10.922272  3.940937  1.447455
  N     9.981511  0.742408  5.002603
  N    10.254433  5.047272  5.129289
  S     9.105466  0.450009  3.625427
  S     9.501943  4.226210  3.870153
  S    12.003385  0.912985  0.709397
  S    12.348191  4.404750  0.821330
  S    11.533856  1.356891  4.822529
  S    11.795123  5.567208  4.747177
