16  
    
  C     8.487636 -1.073438  2.344906
  C     8.194127  2.706307  2.062330
  C     7.272257 -1.335497  1.610819
  C     7.021689  2.282949  1.345288
  N     9.550002 -0.859441  1.581889
  N     9.266578  2.756568  1.303646
  N     7.424491 -1.484798  0.287485
  N     7.189938  2.188022  0.040113
  N     6.650151 -1.178903  4.179969
  N     6.462337  2.376917  3.881273
  S     6.011594 -1.718204  2.767954
  S     5.717825  1.999520  2.405873
  S     9.045904 -1.097234  0.017323
  S     8.780419  2.554146 -0.305895
  S     8.311071 -0.934842  4.102951
  S     8.085061  2.969589  3.760090
