16  
    
  C     4.317867 -2.473504  1.713212
  C     4.080018  1.135801  1.621549
  C     3.212680 -3.221749  1.138820
  C     2.854090  0.656260  0.965192
  N     5.212201 -2.141657  0.814063
  N     5.035785  1.356196  0.724310
  N     3.376997 -3.583869 -0.111243
  N     2.953482  0.310242 -0.336182
  N     2.611213 -2.869399  3.596718
  N     2.366241  1.222582  3.503323
  S     1.850225 -3.376761  2.189076
  S     1.522750  0.714120  2.098452
  S     4.719543 -2.845648 -0.633598
  S     4.487494  0.890706 -0.739631
  S     4.164187 -2.185626  3.408159
  S     3.961882  1.532357  3.276406
