16  
    
  C     5.424581 -2.117492  1.594929
  C     5.243777  1.594182  1.568413
  C     4.294477 -2.603042  0.836264
  C     4.145765  0.860917  0.912542
  N     6.556569 -2.108910  0.870689
  N     6.359726  1.704928  0.874673
  N     4.537116 -2.790530 -0.473087
  N     4.452561  0.539753 -0.355004
  N     3.520329 -2.447467  3.239030
  N     3.123780  1.757777  3.070894
  S     2.886232 -2.889586  1.795988
  S     2.645038  0.826789  1.854243
  S     6.142236 -2.455332 -0.712938
  S     5.972963  1.062884 -0.624623
  S     5.097666 -2.027916  3.262489
  S     4.702662  2.292295  3.034943
