16  
    
  C     3.147717 -2.747320  1.601872
  C     3.618490  0.981129  1.484640
  C     2.177810 -3.532110  0.902480
  C     2.449137  0.421881  0.815620
  N     4.064359 -2.177612  0.802034
  N     4.577858  1.273121  0.619211
  N     2.362629 -3.523672 -0.438682
  N     2.485656  0.394110 -0.515070
  N     1.400930 -3.390958  3.398242
  N     1.996307  0.276104  3.350841
  S     0.892215 -4.053917  1.951177
  S     1.164302  0.019073  1.950512
  S     3.689116 -2.594059 -0.731617
  S     3.963327  0.939015 -0.910010
  S     2.924784 -2.683662  3.314627
  S     3.592628  0.897387  3.173990
