16  
    
  C    10.614797  0.786493  2.975708
  C    10.639381  4.508005  2.799480
  C     9.400418  0.259490  2.401310
  C     9.578484  3.644230  2.347796
  N    11.612145  0.909489  2.107724
  N    11.646796  4.672838  1.945035
  N     9.462190 -0.199125  1.158908
  N     9.775390  3.205991  1.087904
  N     8.884089  0.597343  4.910350
  N     8.854786  4.340909  4.648159
  S     8.078798  0.120779  3.548313
  S     8.119909  3.643833  3.320527
  S    11.029395  0.208075  0.686024
  S    11.233162  3.850694  0.614672
  S    10.403913  1.216326  4.668876
  S    10.325654  5.049979  4.409644
