16  
    
  C     4.324595 -2.479440  1.717656
  C     4.082436  1.129396  1.613983
  C     3.219079 -3.221003  1.139899
  C     2.855304  0.653248  0.961281
  N     5.208841 -2.135102  0.819741
  N     5.034263  1.363698  0.723380
  N     3.370113 -3.576622 -0.105672
  N     2.959052  0.308448 -0.341471
  N     2.609306 -2.864962  3.595762
  N     2.365813  1.217102  3.500185
  S     1.852289 -3.379445  2.187715
  S     1.520173  0.706136  2.099058
  S     4.720318 -2.843190 -0.633923
  S     4.488908  0.887574 -0.745587
  S     4.163295 -2.186293  3.409074
  S     3.958584  1.537838  3.276092
