16  
    
  C    11.463625  0.790750  3.023160
  C    11.090192  4.766150  3.486022
  C    10.367314  0.165331  2.343699
  C     9.928947  4.121901  2.995387
  N    12.600204  0.818316  2.319715
  N    12.096230  4.868430  2.614907
  N    10.522360 -0.059943  1.064060
  N    10.042451  3.672801  1.736795
  N     9.433365  0.556367  4.656271
  N     9.446550  4.479725  5.468123
  S     8.932548 -0.106183  3.242562
  S     8.610152  3.953350  4.087594
  S    12.114193  0.377094  0.761543
  S    11.600293  4.045643  1.306161
  S    10.976050  1.098190  4.670528
  S    10.972564  5.151530  5.203460
