16  
    
  C    11.056127  0.597002  2.841512
  C    11.053385  4.245034  3.318238
  C     9.822838 -0.031538  2.379377
  C     9.875100  3.831881  2.611636
  N    11.957573  0.924070  1.944372
  N    12.065327  4.398215  2.463223
  N     9.875482 -0.393298  1.105205
  N     9.924855  3.819934  1.272562
  N     9.434473  0.547487  4.856926
  N     9.254980  4.306278  5.146954
  S     8.607448 -0.154491  3.618766
  S     8.492779  3.761724  3.754975
  S    11.332557  0.246246  0.549158
  S    11.545678  4.202527  0.923545
  S    10.962878  1.068079  4.478553
  S    10.906425  4.431964  5.041577
