16  
    
  C    10.739590  0.709309  2.916670
  C    10.691025  4.482982  2.824160
  C     9.536792  0.190017  2.311701
  C     9.691627  3.635994  2.246863
  N    11.793368  0.708042  2.138679
  N    11.789984  4.596508  2.081349
  N     9.619766 -0.254502  1.073474
  N     9.880162  3.274349  0.982325
  N     9.004338  0.754612  4.820305
  N     8.732293  4.445900  4.444258
  S     8.228646  0.266796  3.432935
  S     8.361537  3.288981  3.325709
  S    11.235340  0.144818  0.664560
  S    11.456573  3.732101  0.637810
  S    10.580066  1.228723  4.610280
  S    10.281338  5.059663  4.389653
