16  
    
  C     7.339470 -1.562880  2.178292
  C     7.576207  2.779999  2.189953
  C     6.151391 -1.990637  1.442680
  C     6.367564  2.246024  1.585498
  N     8.283536 -1.168399  1.366467
  N     8.603470  2.958166  1.365359
  N     6.289429 -2.062750  0.124410
  N     6.403284  2.043208  0.264368
  N     5.525143 -2.135407  3.982195
  N     5.941740  2.315288  4.078557
  S     4.886108 -2.645882  2.566674
  S     5.112949  1.965327  2.724519
  S     7.820516 -1.413438 -0.204803
  S     8.017705  2.586994 -0.150318
  S     7.087002 -1.483879  3.900404
  S     7.547303  2.691180  3.946163
