16  
    
  C     5.473712 -2.205763  1.945653
  C     5.251741  1.563938  1.710989
  C     4.280040 -2.638878  1.209955
  C     4.151538  0.988897  0.939829
  N     6.499144 -1.869023  1.148923
  N     6.210694  2.045192  0.937754
  N     4.415944 -2.754513 -0.128105
  N     4.362548  1.064748 -0.387520
  N     3.650731 -2.574272  3.755076
  N     3.483046  0.878836  3.449894
  S     2.929812 -2.978105  2.279720
  S     2.983510  0.252976  1.992223
  S     5.966257 -2.221990 -0.411459
  S     5.789016  1.833100 -0.618486
  S     5.275271 -1.988613  3.630900
  S     5.004239  1.568031  3.467410
