16  
    
  C    10.252682  0.387287  2.592507
  C    10.544954  4.208624  2.960358
  C     9.111296 -0.297248  2.004862
  C     9.243473  3.797656  2.419713
  N    11.320640  0.510801  1.806315
  N    11.540127  4.302750  2.094756
  N     9.327110 -0.603390  0.720617
  N     9.390127  3.351884  1.173647
  N     8.359162  0.507008  4.293023
  N     8.842494  4.283827  4.896951
  S     7.695864 -0.123880  2.931520
  S     7.906234  3.913030  3.604915
  S    10.886570 -0.125049  0.310980
  S    10.949204  3.750774  0.622491
  S     9.943105  0.941381  4.156238
  S    10.474234  4.592341  4.594418
