16  
    
  C     7.213089 -1.625593  2.234029
  C     7.523894  2.275104  2.191269
  C     6.054449 -2.196002  1.618246
  C     6.294372  1.787461  1.604628
  N     8.309911 -1.536854  1.440778
  N     8.550259  2.329232  1.358483
  N     6.224850 -2.399063  0.298258
  N     6.373330  1.379145  0.347495
  N     5.402893 -1.485413  4.073023
  N     5.737948  2.134554  4.127739
  S     4.698069 -2.220253  2.725311
  S     4.965684  1.646977  2.685398
  S     7.776894 -1.932909 -0.072928
  S     7.996366  1.776379 -0.107648
  S     7.036446 -1.370531  3.975773
  S     7.310927  2.669143  3.909147
