16  
    
  C     6.481122 -1.736706  2.066355
  C     6.530851  2.245869  2.130785
  C     5.241865 -2.004138  1.421136
  C     5.393326  1.584299  1.513498
  N     7.478742 -1.459237  1.199748
  N     7.531091  2.546640  1.310819
  N     5.322223 -2.160923  0.077511
  N     5.478119  1.462888  0.199471
  N     4.741153 -2.237351  3.930924
  N     4.961832  1.661737  4.054051
  S     3.968550 -2.494345  2.528554
  S     4.218511  1.070526  2.707107
  S     6.831698 -1.677448 -0.313722
  S     6.951320  2.134801 -0.246717
  S     6.327930 -1.827120  3.792729
  S     6.452502  2.301665  3.838067
