16  
    
  C     7.217172 -1.656775  1.817616
  C     6.971853  2.104355  1.928431
  C     5.998713 -2.040646  1.129343
  C     5.750234  1.679001  1.310779
  N     8.251574 -1.536401  1.014257
  N     7.991679  2.277390  1.071085
  N     6.114145 -2.388401 -0.115614
  N     5.807400  1.592756 -0.014829
  N     5.328629 -1.816695  3.581619
  N     5.313225  1.575993  3.800447
  S     4.618115 -2.223153  2.177209
  S     4.452978  1.407382  2.423286
  S     7.677067 -1.928165 -0.509108
  S     7.371920  2.042153 -0.416364
  S     6.901792 -1.269277  3.468098
  S     6.859309  2.104795  3.631648
