16  
    
  C    10.893018  0.764945  2.993118
  C    10.911907  4.437444  3.389483
  C     9.672971  0.232405  2.365659
  C     9.779228  3.784754  2.747838
  N    11.938960  0.905762  2.172128
  N    11.934587  4.707219  2.564218
  N     9.794760 -0.008506  1.036937
  N     9.931765  3.674928  1.421872
  N     9.276305  0.215875  4.943190
  N     9.197528  4.037554  5.269584
  S     8.435589 -0.216476  3.570936
  S     8.427183  3.546520  3.865792
  S    11.407747  0.476143  0.631314
  S    11.513960  4.208913  1.089492
  S    10.838883  0.758025  4.746652
  S    10.672544  4.671600  5.068465
