16  
    
  C     6.174530 -1.449153  1.534446
  C     6.382913  2.207968  1.853540
  C     5.061122 -2.060208  0.870887
  C     5.218634  1.621247  1.241461
  N     7.284285 -1.493827  0.781428
  N     7.470559  2.266104  1.095556
  N     5.301852 -2.459190 -0.410926
  N     5.338114  1.316981 -0.028719
  N     4.479638 -1.881240  3.436310
  N     4.622108  1.734852  3.734784
  S     3.778389 -2.516624  2.005546
  S     3.835083  1.416365  2.275561
  S     6.859800 -2.014311 -0.719705
  S     6.955059  1.737717 -0.473471
  S     5.984974 -1.143044  3.190934
  S     6.199291  2.370996  3.589091
