16  
    
  C     3.629035 -3.037282  1.094067
  C     3.902941  0.842728  1.473506
  C     2.419880 -3.651471  0.540278
  C     2.742797  0.294543  0.812026
  N     4.591602 -2.869001  0.211409
  N     4.902333  1.022892  0.628751
  N     2.515854 -3.743860 -0.781220
  N     2.788732  0.173979 -0.515182
  N     1.789768 -2.921170  2.981541
  N     2.219913  0.524325  3.390524
  S     1.123687 -3.849314  1.744466
  S     1.437148  0.013779  1.931678
  S     4.035184 -3.422552 -1.255249
  S     4.393897  0.571444 -0.830197
  S     3.361617 -2.417711  2.712615
  S     3.755727  1.095155  3.163009
