16  
    
  C     4.181221 -2.673138  1.569602
  C     4.189643  1.410086  1.626970
  C     2.928899 -3.182222  0.980949
  C     2.906572  1.257257  0.971420
  N     5.177457 -2.613431  0.706392
  N     5.188803  1.374931  0.767100
  N     3.011865 -3.555338 -0.269026
  N     2.947603  0.978470 -0.343577
  N     2.338993 -2.592813  3.449687
  N     2.526823  1.492382  3.631156
  S     1.572108 -3.167987  2.078282
  S     1.673072  1.457609  2.193130
  S     4.648970 -3.333438 -0.715946
  S     4.531144  1.016278 -0.757528
  S     3.994996 -2.312939  3.292527
  S     4.153252  1.576340  3.329298
