16  
    
  C    11.342333  0.829077  3.030871
  C    11.197425  4.768752  3.428001
  C    10.165063  0.312261  2.323115
  C    10.108084  3.935755  2.898363
  N    12.417066  0.983410  2.276911
  N    12.186755  4.873201  2.585016
  N    10.388521  0.128747  1.017380
  N    10.298328  3.521399  1.623269
  N     9.540764  0.772663  4.818057
  N     9.445829  4.547176  5.372379
  S     8.907627  0.007335  3.492251
  S     8.735981  3.851623  4.029444
  S    12.035662  0.475718  0.731437
  S    11.758397  4.205456  1.149190
  S    11.162918  1.280371  4.709037
  S    10.972246  5.124462  5.093356
