16  
    
  C    11.608463  1.422702  2.888263
  C    11.471890  5.031873  3.138571
  C    10.432246  0.671159  2.363074
  C    10.362058  4.464224  2.393614
  N    12.533674  1.522480  1.925587
  N    12.540075  5.371204  2.361307
  N    10.447534  0.430309  1.051130
  N    10.609689  4.449298  1.097597
  N    10.193610  0.639382  4.968956
  N     9.718796  4.442381  4.871096
  S     9.392938  0.019019  3.640097
  S     9.081933  4.020791  3.387630
  S    11.931101  0.956091  0.458212
  S    12.164156  4.961657  0.844400
  S    11.513851  1.606331  4.594462
  S    11.274854  4.978576  4.890277
