16  
    
  C    10.022182 -0.187952  2.973708
  C    10.361856  3.448039  3.072147
  C     8.827350 -0.456575  2.217116
  C     9.065581  3.669368  2.500396
  N    11.115563  0.150926  2.223348
  N    11.399368  3.509113  2.232424
  N     9.057651 -0.498142  0.889396
  N     9.088705  3.856922  1.190840
  N     8.064514 -0.609320  4.629441
  N     8.423566  3.563413  4.969399
  S     7.436204 -0.845823  3.144789
  S     7.711300  3.973916  3.524904
  S    10.589120 -0.005362  0.678691
  S    10.646069  3.802539  0.712852
  S     9.674888 -0.255601  4.644371
  S    10.116387  3.317762  4.792314
