16  
    
  C    11.989054  1.270450  3.368025
  C    11.893441  4.709034  3.525591
  C    10.792353  0.769409  2.642349
  C    10.647315  4.344578  2.850576
  N    12.999930  1.368690  2.530908
  N    12.969209  4.982247  2.831202
  N    10.962360  0.443308  1.367022
  N    10.841575  4.249238  1.548682
  N    10.059509  1.234738  5.020922
  N     9.891874  4.784000  5.273034
  S     9.456978  0.438170  3.691924
  S     9.204270  4.311952  3.808678
  S    12.540489  0.877121  1.012029
  S    12.477577  4.684331  1.252164
  S    11.676692  1.568910  5.079688
  S    11.548958  5.075749  5.198662
