16  
    
  C     8.361140 -0.933570  2.410747
  C     8.208065  2.443729  2.041313
  C     7.189048 -1.233183  1.644783
  C     7.083488  1.987528  1.261027
  N     9.505230 -0.933823  1.684780
  N     9.321015  2.715956  1.333600
  N     7.421329 -1.316976  0.301093
  N     7.360436  1.763724 -0.038032
  N     6.502546 -1.107001  4.178878
  N     6.304983  2.251011  3.655413
  S     5.823450 -1.088147  2.706498
  S     5.663712  1.748882  2.246410
  S     9.062975 -1.087092  0.086667
  S     8.946017  2.373311 -0.198567
  S     8.130300 -0.770944  4.146547
  S     7.912362  2.526454  3.773514
