16  
    
  C     5.650499 -2.040170  2.005191
  C     5.958036  1.769662  2.059290
  C     4.553718 -2.770112  1.384776
  C     4.772899  1.338098  1.383970
  N     6.666689 -1.827660  1.203675
  N     6.970635  2.049518  1.248366
  N     4.685620 -2.966394  0.099664
  N     4.872599  1.111062  0.083682
  N     4.003392 -2.500750  3.848508
  N     4.163900  1.386876  3.867595
  S     3.245742 -3.003330  2.503648
  S     3.383925  1.155561  2.449987
  S     6.246689 -2.413350 -0.286304
  S     6.445560  1.589459 -0.292531
  S     5.432663 -1.805849  3.712362
  S     5.785861  1.796360  3.770056
