16  
    
  C    12.452136  1.669565  3.352551
  C    12.820216  5.446142  3.403507
  C    11.253107  1.246893  2.675942
  C    11.624574  5.047643  2.728003
  N    13.470126  1.947271  2.561409
  N    13.817829  5.659823  2.608455
  N    11.410582  1.211675  1.389464
  N    11.775119  4.904080  1.409032
  N    10.824573  1.138502  5.225270
  N    10.967760  4.945896  5.287687
  S    10.087253  0.630201  3.786680
  S    10.336590  4.508777  3.782121
  S    12.950998  1.694078  1.014059
  S    13.382938  5.247945  1.100523
  S    12.436586  1.554543  5.152144
  S    12.553095  5.572139  5.134935
