16  
    
  C    12.072536  1.372446  3.473975
  C    12.264924  5.104008  3.349689
  C    10.869534  0.801678  2.777801
  C    11.038652  4.630380  2.693864
  N    13.163767  1.611309  2.738107
  N    13.296631  5.046255  2.546217
  N    11.214112  0.427733  1.539847
  N    11.166657  4.426068  1.363959
  N    10.161511  1.078667  5.175663
  N    10.374846  5.395526  5.084261
  S     9.454867  0.616802  3.759045
  S     9.673855  4.761781  3.718657
  S    12.711235  1.016525  1.183959
  S    12.781381  4.569925  1.027051
  S    11.699023  1.677746  5.156209
  S    12.010312  5.747319  4.949966
