16  
    
  C    12.801146  1.674671  3.301140
  C    12.465422  5.198811  3.259950
  C    11.583390  1.158634  2.783695
  C    11.204013  4.758038  2.612877
  N    13.792778  1.834560  2.426673
  N    13.502157  5.473373  2.454752
  N    11.523148  1.054558  1.449459
  N    11.364605  4.672062  1.288236
  N    11.183541  1.494362  5.292657
  N    10.892948  4.775048  5.247319
  S    10.336401  0.877566  4.029780
  S    10.022211  4.454086  3.858894
  S    13.092463  1.461472  0.952938
  S    12.893540  5.142662  0.906609
  S    12.754895  1.764492  5.016007
  S    12.457548  5.461028  4.973503
