16  
    
  C     4.945291 -2.423192  1.597140
  C     4.867574  1.699869  2.004652
  C     3.739932 -2.935586  1.044882
  C     3.768789  1.047971  1.352483
  N     5.988494 -2.409776  0.763579
  N     5.948735  1.858094  1.240271
  N     3.898821 -3.396836 -0.233355
  N     3.939787  0.807117  0.058353
  N     3.214620 -2.410485  3.441647
  N     3.095893  1.218761  3.861534
  S     2.375250 -2.833635  2.070156
  S     2.414534  0.717700  2.476692
  S     5.432331 -2.957733 -0.664812
  S     5.514456  1.293290 -0.282344
  S     4.813551 -2.011079  3.290598
  S     4.717096  1.624970  3.725206
