16  
    
  C     9.767003  0.135290  2.673492
  C     9.820777  3.847698  2.579256
  C     8.586501 -0.462711  2.140436
  C     8.592718  3.198766  2.081276
  N    10.658261  0.514229  1.753753
  N    10.740783  4.208183  1.676312
  N     8.505953 -0.367958  0.821027
  N     8.723993  2.930975  0.810104
  N     8.215302 -0.528772  4.640301
  N     8.157765  3.200899  4.550958
  S     7.380628 -1.069012  3.259353
  S     7.358326  2.698059  3.133325
  S     9.966420  0.152326  0.268951
  S    10.128845  3.528417  0.195290
  S     9.797418 -0.096063  4.426618
  S     9.672353  3.927451  4.305325
