16  
    
  C     4.356762 -2.175589  1.865089
  C     3.984188  1.193736  1.103418
  C     3.233538 -2.881541  1.282389
  C     2.860970  0.484335  0.512107
  N     5.415979 -1.980343  1.062920
  N     5.065046  1.388402  0.355850
  N     3.438459 -3.198072  0.009755
  N     3.105620  0.173078 -0.747225
  N     2.550768 -2.321040  3.689098
  N     2.217577  0.929019  3.055203
  S     1.902433 -3.076320  2.340740
  S     1.583980  0.245309  1.690054
  S     4.927873 -2.571444 -0.473596
  S     4.625575  0.724265 -1.111681
  S     4.176500 -1.929720  3.590788
  S     3.812338  1.499930  2.821793
