16  
    
  C     4.471985 -2.651746  1.562911
  C     5.179453  1.549555  1.633359
  C     3.229648 -2.804763  0.843036
  C     3.887841  1.218703  1.057478
  N     5.515461 -2.452442  0.730694
  N     6.143020  1.647766  0.742827
  N     3.299895 -2.857841 -0.500863
  N     3.896900  1.209744 -0.278012
  N     2.715399 -2.801721  3.330861
  N     3.514312  1.195650  3.671685
  S     1.895223 -2.878198  1.911256
  S     2.672367  0.921975  2.242478
  S     4.939245 -2.613619 -0.836002
  S     5.493295  1.390700 -0.761794
  S     4.389660 -2.637564  3.264438
  S     5.141810  1.460420  3.448117
