16  
    
  C    11.288987  0.469341  2.998705
  C    11.088015  4.424500  3.418715
  C    10.209393 -0.206385  2.351349
  C     9.779449  4.252315  2.842217
  N    12.423433  0.538109  2.341267
  N    12.122731  4.460566  2.556562
  N    10.432144 -0.418983  1.062953
  N     9.836531  3.978031  1.562037
  N     9.347521  0.372713  4.771684
  N     9.440605  4.293959  5.388834
  S     8.772392 -0.335888  3.403971
  S     8.524171  4.339675  4.012173
  S    12.038671  0.145452  0.752336
  S    11.445833  4.009858  1.137055
  S    10.894920  0.940963  4.596315
  S    11.082674  4.651672  5.161841
