16  
    
  C    11.258235  0.955168  3.367584
  C    11.581599  4.658624  2.753759
  C    10.019855  0.476678  2.772737
  C    10.273074  4.329758  2.204387
  N    12.198966  1.191195  2.463646
  N    12.580243  4.804371  1.881434
  N    10.052698  0.326829  1.425103
  N    10.384370  4.139310  0.869311
  N     9.575710  0.983823  5.308943
  N     9.895095  4.429664  4.741958
  S     8.742065  0.534298  3.965118
  S     9.073428  3.980601  3.354879
  S    11.574896  0.832955  0.934659
  S    11.909366  4.540493  0.376331
  S    11.175846  1.113308  5.069486
  S    11.481517  4.904659  4.497931
