16  
    
  C     8.413332 -0.819173  2.453819
  C     8.252111  2.300803  2.157767
  C     7.184570 -1.213763  1.775031
  C     7.146194  1.936910  1.313052
  N     9.476535 -0.925561  1.661138
  N     9.347117  2.513976  1.449939
  N     7.263710 -1.400136  0.459654
  N     7.395349  1.821398  0.035326
  N     6.518189 -0.604727  4.250143
  N     6.278751  2.161351  3.674131
  S     5.829497 -1.042287  2.838289
  S     5.702726  1.706910  2.204487
  S     8.890971 -1.253081  0.109570
  S     8.976089  2.265351 -0.200829
  S     8.187752 -0.589293  4.222314
  S     7.868438  2.554517  3.866016
