16  
    
  C    12.060023  1.276855  3.394036
  C    12.161952  5.165218  3.147342
  C    10.848070  0.899473  2.752087
  C    10.886171  4.774896  2.532894
  N    13.179038  1.300121  2.635369
  N    13.238557  5.093232  2.349153
  N    11.083087  0.512882  1.518080
  N    11.049030  4.334103  1.284235
  N    10.138144  1.366295  5.184607
  N    10.565916  5.302703  5.049825
  S     9.418146  0.712767  3.815682
  S     9.652122  4.894960  3.743131
  S    12.701108  0.754674  1.160025
  S    12.690794  4.429488  0.950902
  S    11.795547  1.626754  5.092325
  S    12.161988  5.586262  4.820153
