16  
    
  C     5.431074 -2.225247  1.528597
  C     5.106259  1.590438  1.584950
  C     4.261294 -2.646830  0.751906
  C     4.090292  0.787455  0.990154
  N     6.503233 -1.970245  0.825032
  N     6.181404  1.800763  0.864262
  N     4.514909 -2.843842 -0.537605
  N     4.407474  0.357436 -0.237241
  N     3.495093 -2.474537  3.283426
  N     3.153293  1.853351  3.183933
  S     2.860329 -2.873508  1.786003
  S     2.633088  0.860058  1.850172
  S     6.133268 -2.484958 -0.746732
  S     5.968269  0.956560 -0.524658
  S     5.106423 -1.923495  3.262422
  S     4.728974  2.383628  3.075728
