16  
    
  C    10.996754  0.649600  2.890761
  C    10.990236  4.504396  3.350795
  C     9.779402  0.050114  2.352919
  C     9.825560  3.904385  2.706470
  N    11.939873  0.797791  1.951214
  N    12.007064  4.677083  2.523460
  N     9.727765 -0.134495  1.014701
  N     9.992434  3.606626  1.422216
  N     9.388951  0.354861  4.888598
  N     9.217800  3.947800  5.131820
  S     8.564525 -0.174556  3.554812
  S     8.427891  3.699688  3.676126
  S    11.251273  0.350906  0.494743
  S    11.481897  4.179920  1.019198
  S    10.907566  1.044375  4.639922
  S    10.764718  4.560235  5.063193
