16  
    
  C     5.927137 -2.192638  1.817371
  C     5.654365  1.168680  1.737288
  C     4.650957 -2.404422  1.253523
  C     4.389034  0.759278  1.156168
  N     6.875466 -2.013195  0.909721
  N     6.697044  1.359412  0.929143
  N     4.646407 -2.503227 -0.069543
  N     4.493793  0.449434 -0.128882
  N     4.241079 -2.404079  3.792988
  N     3.809661  1.234019  3.586791
  S     3.384009 -2.591709  2.409005
  S     3.033521  0.713070  2.206265
  S     6.211624 -2.319026 -0.540292
  S     6.094123  0.811497 -0.575451
  S     5.880146 -2.127983  3.541198
  S     5.429384  1.464620  3.452828
