16  
    
  C     6.314209 -1.621804  1.821518
  C     6.412538  2.256219  1.967082
  C     5.134786 -2.150824  1.138431
  C     5.280193  1.618765  1.390376
  N     7.356104 -1.510924  1.049349
  N     7.530868  2.336270  1.214825
  N     5.342881 -2.525293 -0.094420
  N     5.469030  1.341864  0.102944
  N     4.541512 -2.172559  3.625302
  N     4.692532  1.855547  3.889980
  S     3.821200 -2.629098  2.206807
  S     3.915684  1.378458  2.469002
  S     6.914668 -1.988137 -0.508305
  S     7.032106  1.816172 -0.292895
  S     6.044802 -1.455531  3.544892
  S     6.233334  2.502445  3.686471
