16  
    
  C    10.455093  0.083491  2.704829
  C    10.304089  4.217347  3.111480
  C     9.223072 -0.547472  2.158759
  C     9.004997  3.844406  2.541968
  N    11.488037  0.036091  1.855760
  N    11.302056  4.049439  2.261628
  N     9.373485 -0.922894  0.908967
  N     9.030436  3.509342  1.249655
  N     8.480356  0.270438  4.476920
  N     8.663858  4.189487  5.063655
  S     7.776629 -0.418957  3.164085
  S     7.714471  3.933177  3.722064
  S    10.864534 -0.535177  0.416756
  S    10.635939  3.512606  0.853739
  S    10.117991  0.685410  4.333653
  S    10.221276  4.720498  4.755440
