16  
    
  C     7.066643 -1.444954  2.308349
  C     7.035089  2.266344  2.119493
  C     5.881490 -1.850492  1.589460
  C     5.855961  1.805707  1.407936
  N     8.132865 -1.298038  1.499255
  N     8.107755  2.425366  1.375816
  N     5.942020 -1.776214  0.244726
  N     6.063200  1.562585  0.115338
  N     5.262874 -1.832915  4.145535
  N     5.247973  2.018163  3.920194
  S     4.518930 -2.045890  2.664804
  S     4.515794  1.671926  2.433893
  S     7.534337 -1.518340 -0.097581
  S     7.663859  1.899786 -0.194284
  S     6.845908 -1.356337  4.032231
  S     6.829351  2.562607  3.793694
