16  
    
  C    12.067852  1.301649  3.466325
  C    12.219181  5.193415  3.413329
  C    10.921607  0.770893  2.702083
  C    11.068780  4.717082  2.732261
  N    13.115935  1.654705  2.749056
  N    13.376201  5.249658  2.713487
  N    11.205414  0.624336  1.419802
  N    11.348444  4.346323  1.511529
  N    10.104153  1.161917  5.186369
  N    10.340347  5.342659  5.124494
  S     9.609645  0.536266  3.714133
  S     9.613957  4.649426  3.829583
  S    12.742587  1.197952  1.197080
  S    12.884097  4.721962  1.194452
  S    11.666745  1.746749  5.129066
  S    11.958076  5.672174  5.035784
