16  
    
  C     9.007066 -0.408350  2.516966
  C     9.242374  3.534771  2.785526
  C     7.714600 -0.757670  1.872832
  C     8.076376  3.124108  2.128074
  N     9.960157 -0.116042  1.682462
  N    10.320076  3.541558  2.047171
  N     7.813990 -0.925720  0.570499
  N     8.208727  2.918754  0.816914
  N     7.440682 -0.884543  4.442518
  N     7.575497  3.433003  4.680088
  S     6.508975 -1.127232  3.083911
  S     6.816730  3.050307  3.288469
  S     9.399262 -0.493729  0.184955
  S     9.833763  3.201238  0.508826
  S     9.030175 -0.367809  4.273415
  S     9.157568  3.858226  4.544517
