16  
    
  C     6.351162 -1.678231  2.176634
  C     6.585780  2.158164  2.144334
  C     5.153342 -2.158970  1.539084
  C     5.359163  1.629042  1.550002
  N     7.394994 -1.431928  1.333776
  N     7.519551  2.528900  1.267499
  N     5.233975 -2.165133  0.195463
  N     5.484506  1.503584  0.247317
  N     4.627710 -2.153722  4.050487
  N     4.916109  1.733107  4.087341
  S     3.828753 -2.490372  2.578529
  S     4.191572  1.078840  2.724805
  S     6.778604 -1.603085 -0.202333
  S     6.934681  2.140059 -0.173478
  S     6.234917 -1.789568  3.893010
  S     6.492401  2.283684  3.859672
