16  
    
  C     3.679219 -2.785742  1.143004
  C     3.982589  0.931590  1.480796
  C     2.504478 -3.500521  0.609707
  C     2.795667  0.363627  0.874923
  N     4.687676 -2.731810  0.288677
  N     4.978355  1.164154  0.636134
  N     2.639812 -4.003673 -0.587679
  N     2.931158  0.094153 -0.402109
  N     1.913296 -2.987199  2.988012
  N     2.279913  0.602933  3.376326
  S     1.246971 -3.748423  1.690660
  S     1.449324  0.182518  2.012449
  S     4.114050 -3.429654 -1.095869
  S     4.419105  0.692300 -0.880494
  S     3.460846 -2.395913  2.835869
  S     3.835486  1.173808  3.175711
