16  
    
  C    11.630886  1.144358  2.989644
  C    11.816367  5.163373  3.055257
  C    10.358204  0.811171  2.376383
  C    10.666764  4.401931  2.595583
  N    12.618017  1.281819  2.099204
  N    12.798447  5.204027  2.198905
  N    10.419979  0.545974  1.053544
  N    10.809771  4.000492  1.326278
  N    10.097808  0.609845  4.976251
  N    10.267595  4.810649  5.058009
  S     9.173306  0.383442  3.622623
  S     9.478277  4.184816  3.720039
  S    11.998499  0.884700  0.614182
  S    12.341721  4.419508  0.868212
  S    11.597093  1.253402  4.656553
  S    11.735046  5.550218  4.801775
