16  
    
  C    12.873539  1.654865  3.345846
  C    12.396613  5.118762  3.373738
  C    11.698790  1.158238  2.843049
  C    11.223432  4.658276  2.680982
  N    13.844239  1.680775  2.433016
  N    13.420770  5.346592  2.532879
  N    11.654245  0.855534  1.540432
  N    11.330080  4.618206  1.340687
  N    11.300687  1.369402  5.337715
  N    10.522666  4.927076  5.039525
  S    10.374355  1.132007  4.025888
  S     9.853482  4.412211  3.610339
  S    13.163667  1.258298  0.993845
  S    12.916340  5.020888  1.020372
  S    12.775179  1.973294  5.025268
  S    12.136028  5.124339  5.138065
