16  
    
  C    10.318999  0.380339  2.566572
  C    10.483176  4.215920  3.082509
  C     9.115970 -0.095070  1.891205
  C     9.251745  3.709930  2.494407
  N    11.407101  0.334460  1.782891
  N    11.420717  4.248299  2.133763
  N     9.369099 -0.625175  0.694322
  N     9.206981  3.388006  1.219113
  N     8.353858  0.548445  4.219102
  N     8.676789  4.467767  4.924481
  S     7.742624 -0.263179  2.932366
  S     7.955491  3.914321  3.519246
  S    10.943647 -0.395351  0.350970
  S    10.809401  3.662754  0.721617
  S     9.994583  0.952065  4.214277
  S    10.364583  4.641286  4.805302
