16  
    
  C     6.276599 -1.624365  1.827055
  C     6.432528  2.258780  1.977932
  C     5.130795 -2.203724  1.198276
  C     5.299882  1.636537  1.388946
  N     7.370528 -1.522810  1.080304
  N     7.523752  2.340257  1.192049
  N     5.320612 -2.491139 -0.073470
  N     5.498682  1.367946  0.095126
  N     4.520819 -2.191823  3.660682
  N     4.706961  1.848629  3.910911
  S     3.819379 -2.647259  2.216299
  S     3.925577  1.395428  2.475525
  S     6.919567 -1.981867 -0.473787
  S     7.018849  1.813937 -0.272187
  S     6.048993 -1.450237  3.558779
  S     6.240168  2.474990  3.692917
