16  
    
  C    10.195912 -0.219814  2.833892
  C    10.357317  3.818191  3.165269
  C     8.943402 -0.463820  2.136248
  C     9.119862  3.961122  2.457460
  N    11.244311 -0.035894  2.072831
  N    11.391387  3.783993  2.316090
  N     9.078805 -0.364449  0.834701
  N     9.146334  3.877925  1.131114
  N     8.371756 -0.566714  4.649542
  N     8.502981  3.912906  4.945968
  S     7.543484 -0.555169  3.213570
  S     7.721413  3.891154  3.502684
  S    10.648291 -0.009173  0.553318
  S    10.758545  3.657765  0.753160
  S     9.978186 -0.192869  4.575083
  S    10.193833  3.954488  4.927042
