16  
    
  C    12.694839  1.741488  3.553392
  C    12.873060  5.533773  3.745532
  C    11.529157  1.188017  2.997169
  C    11.705514  4.850189  3.089456
  N    13.803915  1.722635  2.848261
  N    13.862112  5.746311  2.899767
  N    11.690826  0.857514  1.725481
  N    11.882644  4.534253  1.838894
  N    10.842815  1.616802  5.366466
  N    11.192552  5.330026  5.616145
  S    10.121756  1.027838  4.009041
  S    10.355093  4.763152  4.317306
  S    13.341465  1.082469  1.394338
  S    13.381442  5.175357  1.431115
  S    12.462145  1.948352  5.298927
  S    12.688372  5.848599  5.425578
