16  
    
  C     7.209907 -1.360841  2.267578
  C     7.703169  2.798028  2.340521
  C     6.255711 -2.110328  1.497721
  C     6.525559  2.366769  1.636987
  N     8.222352 -0.867560  1.519766
  N     8.747583  2.907616  1.560756
  N     6.478533 -2.171858  0.159337
  N     6.679983  2.286763  0.328249
  N     5.427157 -2.101457  3.970226
  N     6.025174  2.291984  4.124720
  S     4.815393 -2.542891  2.466128
  S     5.236397  2.019469  2.709138
  S     7.865622 -1.279277 -0.067358
  S     8.194574  2.718470 -0.030227
  S     6.884780 -1.397206  4.011955
  S     7.517315  2.979855  4.054421
