16  
    
  C    11.076436  0.505931  3.249836
  C    11.180155  4.168376  3.141170
  C     9.867743  0.073771  2.521635
  C     9.926013  3.796808  2.483581
  N    12.072932  0.893249  2.489291
  N    12.186321  4.318275  2.316039
  N    10.016309  0.005130  1.208490
  N     9.997237  3.683734  1.156472
  N     9.313882 -0.054328  5.081063
  N     9.535613  3.851101  5.057035
  S     8.512544 -0.245019  3.649303
  S     8.692050  3.435411  3.688467
  S    11.593580  0.526704  0.925905
  S    11.568267  4.150379  0.761803
  S    10.793781  0.700613  4.948157
  S    11.087796  4.421613  4.831163
