16  
    
  C    12.495567  1.753243  3.413964
  C    12.804141  5.393114  3.440368
  C    11.295632  1.270185  2.712658
  C    11.629983  4.969347  2.728015
  N    13.527567  1.961099  2.592230
  N    13.823151  5.619692  2.568497
  N    11.401271  1.286665  1.360432
  N    11.686489  4.877051  1.407130
  N    10.826996  1.072601  5.210206
  N    11.036222  5.004547  5.230751
  S    10.104624  0.671757  3.805975
  S    10.376916  4.500302  3.783305
  S    12.948579  1.681371  1.026515
  S    13.276634  5.252467  1.009186
  S    12.405174  1.551967  5.118393
  S    12.573980  5.582004  5.160613
