16  
    
  C     5.345859 -2.245703  1.546724
  C     4.994721  1.749779  1.718052
  C     4.212902 -2.849849  0.923050
  C     3.916773  0.942542  1.123616
  N     6.364266 -2.013441  0.684371
  N     6.090426  1.872899  0.946037
  N     4.432367 -3.128274 -0.379548
  N     4.284120  0.276015  0.042360
  N     3.452757 -2.314393  3.330248
  N     3.008213  1.819457  3.382039
  S     2.860689 -3.047450  1.907421
  S     2.542243  0.837637  2.151685
  S     5.944869 -2.576793 -0.797363
  S     5.826694  0.760014 -0.264990
  S     5.058884 -1.751440  3.216616
  S     4.641254  2.332644  3.312412
