16  
    
  C     5.903100 -2.264697  1.824027
  C     6.111292  1.728533  1.911599
  C     4.628735 -2.403362  1.163168
  C     4.768969  1.672964  1.387517
  N     6.967406 -2.143663  0.981990
  N     7.054732  1.493852  1.009053
  N     4.793303 -2.498281 -0.176921
  N     4.612808  1.361537  0.107147
  N     4.100428 -2.313998  3.667223
  N     4.541033  2.090248  3.943019
  S     3.274088 -2.642941  2.244038
  S     3.550933  2.098154  2.587229
  S     6.374885 -2.453606 -0.519719
  S     6.236264  1.102867 -0.434791
  S     5.751401 -2.045908  3.558057
  S     6.185875  1.984828  3.607060
