16  
    
  C     4.605804 -2.180348  1.593578
  C     4.869391  1.485651  1.902068
  C     3.397763 -2.579839  0.882153
  C     3.594227  1.371296  1.221449
  N     5.673386 -2.055999  0.841106
  N     5.855359  1.416303  1.009566
  N     3.518582 -2.648108 -0.440597
  N     3.577302  1.227062 -0.098736
  N     2.822401 -2.279429  3.446558
  N     3.102654  1.162976  3.694177
  S     2.110697 -2.844807  2.029420
  S     2.215659  1.329021  2.241634
  S     5.138460 -2.268324 -0.741365
  S     5.186594  1.246575 -0.509383
  S     4.476006 -1.998841  3.306296
  S     4.740144  1.697799  3.634008
