16  
    
  C     7.680303 -0.867436  1.739675
  C     7.723935  2.924759  2.268556
  C     6.490228 -1.452310  1.226822
  C     6.536916  2.453691  1.595342
  N     8.673733 -0.793009  0.830945
  N     8.798797  3.102319  1.513127
  N     6.524897 -1.771494 -0.107218
  N     6.833599  2.214537  0.318620
  N     6.077934 -1.119119  3.803243
  N     5.910092  2.680583  4.047959
  S     5.182140 -1.474624  2.461732
  S     5.194421  2.107173  2.637516
  S     8.071831 -1.401022 -0.620357
  S     8.366318  2.545688 -0.006517
  S     7.635961 -0.780360  3.494301
  S     7.488747  3.271971  3.927564
