16  
    
  C     5.937345 -2.178931  1.794398
  C     6.070644  1.720455  1.871187
  C     4.660747 -2.435609  1.131322
  C     4.710756  1.662184  1.360222
  N     6.996047 -2.283351  1.026924
  N     7.013866  1.433638  0.956261
  N     4.737144 -2.614643 -0.168405
  N     4.695004  1.349145  0.053766
  N     4.094683 -2.256307  3.700742
  N     4.538055  2.150596  3.917174
  S     3.330124 -2.575807  2.235744
  S     3.587639  2.077599  2.556552
  S     6.413655 -2.440107 -0.541281
  S     6.220475  1.206875 -0.442639
  S     5.796524 -2.080552  3.514066
  S     6.156702  1.937309  3.616858
