16  
    
  C     5.676120 -2.076978  2.059306
  C     5.918161  1.606057  2.012898
  C     4.485061 -2.665825  1.464752
  C     4.722630  1.168707  1.287851
  N     6.734729 -1.840215  1.259218
  N     6.901658  1.965118  1.198172
  N     4.680203 -2.979833  0.172091
  N     4.922253  1.109459 -0.034960
  N     3.928088 -2.364064  3.932418
  N     4.150828  1.032289  3.811575
  S     3.194048 -2.990845  2.545759
  S     3.393386  0.738662  2.370425
  S     6.240871 -2.457755 -0.234442
  S     6.452671  1.620005 -0.332814
  S     5.501906 -1.805685  3.759925
  S     5.715985  1.660213  3.718434
