16  
    
  C     4.628973 -2.060935  1.574922
  C     4.743946  1.530673  1.759984
  C     3.345161 -2.363141  0.988982
  C     3.490952  1.353743  1.071134
  N     5.647306 -1.912546  0.705990
  N     5.801690  1.615670  0.967570
  N     3.409358 -2.628572 -0.328136
  N     3.605830  1.140279 -0.259141
  N     2.903598 -2.253294  3.488066
  N     2.900861  1.400434  3.699560
  S     2.014796 -2.525479  2.072551
  S     2.153484  1.189748  2.227864
  S     5.009384 -2.380378 -0.806595
  S     5.228324  1.362471 -0.565271
  S     4.552221 -2.065535  3.288881
  S     4.544855  1.685699  3.444104
