16  
    
  C     7.234007 -1.357836  2.217435
  C     7.345726  2.147891  2.120330
  C     6.057592 -1.964331  1.643536
  C     6.158652  1.568003  1.558526
  N     8.252460 -1.300248  1.402056
  N     8.325920  2.340197  1.249162
  N     6.124426 -2.205431  0.350780
  N     6.278263  1.323245  0.256436
  N     5.454186 -1.386260  4.080399
  N     5.588528  2.057350  4.019705
  S     4.747372 -2.098502  2.777004
  S     4.840936  1.638791  2.633356
  S     7.722568 -1.892164 -0.072830
  S     7.740086  1.785237 -0.195038
  S     7.020991 -0.902248  3.846530
  S     7.201597  2.497090  3.822925
