16  
    
  C     8.774240 -0.768843  2.357657
  C     8.478480  3.193131  2.592248
  C     7.553887 -1.176944  1.660528
  C     7.300313  2.633517  1.920538
  N     9.888160 -0.742319  1.678260
  N     9.442786  3.526956  1.790368
  N     7.769331 -1.344025  0.384731
  N     7.464573  2.473902  0.627342
  N     6.885477 -0.729981  4.088084
  N     6.842116  2.824461  4.451788
  S     6.092503 -1.132987  2.652099
  S     6.095877  2.308630  3.062166
  S     9.387859 -1.082770  0.108100
  S     8.977311  3.063693  0.215097
  S     8.518689 -0.529034  4.091139
  S     8.388448  3.372661  4.292826
