16  
    
  C     8.422813 -0.929376  2.474899
  C     8.165489  2.920950  2.322437
  C     7.124825 -1.398245  2.006043
  C     7.022070  2.291079  1.695839
  N     9.360368 -0.900997  1.500198
  N     9.279872  3.026035  1.561573
  N     7.173338 -1.905740  0.759034
  N     7.160848  2.018317  0.398460
  N     6.745209 -0.763287  4.528476
  N     6.237805  2.690993  4.130657
  S     5.845262 -1.420623  3.266643
  S     5.603400  2.047769  2.652972
  S     8.692025 -1.614304  0.120024
  S     8.756780  2.474777  0.049640
  S     8.318056 -0.410591  4.149807
  S     7.840077  3.176617  3.993265
