16  
    
  C    12.822698  1.608322  3.514285
  C    12.272366  5.014527  3.407672
  C    11.580457  1.348251  2.869630
  C    11.174742  4.521595  2.621014
  N    13.867650  1.632577  2.734183
  N    13.360154  5.212557  2.738524
  N    11.652107  1.000436  1.608606
  N    11.384004  4.461420  1.343240
  N    11.060710  1.815565  5.405406
  N    10.464361  4.486752  5.060686
  S    10.277267  1.325764  4.021142
  S     9.735883  4.256362  3.618072
  S    13.227009  1.236364  1.200832
  S    13.020910  4.861962  1.142851
  S    12.718276  1.883114  5.195302
  S    11.982776  5.146380  5.127237
