16  
    
  C    11.864332  1.149944  3.406066
  C    11.897900  5.005649  3.395247
  C    10.670252  0.569280  2.722626
  C    10.675815  4.614624  2.740222
  N    12.960375  1.182385  2.613475
  N    12.966775  5.076106  2.554213
  N    10.873506  0.397157  1.407938
  N    10.892375  4.240541  1.493156
  N    10.027788  0.973745  5.192325
  N    10.067926  4.838032  5.182683
  S     9.263525  0.557529  3.763069
  S     9.310934  4.436452  3.765830
  S    12.468806  0.706033  1.097175
  S    12.467120  4.492803  1.112908
  S    11.557640  1.641458  4.992262
  S    11.682754  5.248479  5.064373
