16  
    
  C     9.987157 -0.145905  2.841905
  C    10.018258  3.794260  2.690103
  C     8.800367 -0.573515  2.198695
  C     8.827902  3.175373  2.194755
  N    11.018722 -0.039372  1.997944
  N    10.931587  4.054091  1.757574
  N     8.840836 -0.617381  0.851680
  N     8.950709  2.776755  0.929611
  N     8.205591 -0.361744  4.643649
  N     8.545172  3.565891  4.747414
  S     7.451030 -0.782857  3.218799
  S     7.744446  2.793117  3.481070
  S    10.429207 -0.296484  0.444950
  S    10.374904  3.386751  0.358349
  S     9.876788 -0.177595  4.641782
  S    10.134532  4.071942  4.476584
