16  
    
  C     5.718052 -2.017592  1.936259
  C     6.017342  1.679576  2.056826
  C     4.553443 -2.696642  1.290720
  C     4.720355  1.502813  1.424406
  N     6.765748 -1.894280  1.158447
  N     7.043315  1.669771  1.212970
  N     4.714000 -2.944379  0.024501
  N     4.825646  1.250425  0.114521
  N     3.938106 -2.347931  3.686596
  N     4.296855  2.018973  3.913558
  S     3.243196 -3.006754  2.371370
  S     3.445863  1.601493  2.559559
  S     6.238142 -2.296349 -0.394215
  S     6.402754  1.441830 -0.272898
  S     5.512762 -1.900602  3.676602
  S     5.944726  2.014816  3.786627
