16  
    
  C    12.532521  1.457600  3.327042
  C    12.861687  5.458518  3.642114
  C    11.357077  0.924495  2.744803
  C    11.806942  4.873854  2.798184
  N    13.467624  1.887797  2.475376
  N    13.956867  5.827544  2.900632
  N    11.415204  0.780603  1.405609
  N    12.038620  4.800095  1.482959
  N    10.875489  0.996309  5.275440
  N    10.872796  4.888608  5.225251
  S    10.096368  0.619591  3.819574
  S    10.315368  4.668936  3.655771
  S    12.844042  1.564985  0.966462
  S    13.560276  5.387341  1.262146
  S    12.420496  1.724668  5.113454
  S    12.386433  5.554161  5.298571
