16  
    
  C     6.313923 -1.635671  1.607108
  C     6.350999  2.180294  1.914253
  C     5.204203 -2.311666  0.993717
  C     5.273870  1.444160  1.287963
  N     7.386857 -1.440299  0.806718
  N     7.377200  2.390901  1.118095
  N     5.354895 -2.491769 -0.319718
  N     5.458240  1.138364  0.008884
  N     4.385240 -1.687159  3.383128
  N     4.561141  1.961997  3.752760
  S     3.868413 -2.516740  1.981886
  S     3.897524  1.271180  2.372311
  S     6.883536 -1.875226 -0.735727
  S     6.981878  1.754840 -0.371154
  S     6.019516 -1.287647  3.292324
  S     6.155360  2.537827  3.599617
