16  
    
  C     9.797228 -0.210244  2.508256
  C     9.850910  3.608076  2.551389
  C     8.501931 -0.607264  2.038726
  C     8.599197  3.105356  1.970535
  N    10.675390  0.101989  1.529744
  N    10.774490  3.924628  1.624254
  N     8.464415 -0.662550  0.689452
  N     8.567711  3.133448  0.642811
  N     8.269817 -0.669143  4.546983
  N     8.222621  2.979225  4.492841
  S     7.291717 -0.976369  3.202868
  S     7.353535  2.683231  3.139456
  S     9.908597 -0.246910  0.089352
  S    10.032236  3.693916  0.185664
  S     9.821447 -0.089474  4.263850
  S     9.656884  3.677076  4.194868
