16  
    
  C     5.568784 -2.115974  1.872488
  C     5.260511  1.611563  1.740762
  C     4.369744 -2.632905  1.241620
  C     4.109668  1.001449  1.118508
  N     6.592555 -1.825255  1.068329
  N     6.177472  2.046447  0.862206
  N     4.528028 -2.908564 -0.040535
  N     4.215472  0.940412 -0.205238
  N     3.741674 -2.437044  3.806460
  N     3.586871  0.864477  3.571248
  S     3.036223 -2.798165  2.334930
  S     2.937583  0.243698  2.143118
  S     5.981284 -2.221039 -0.466893
  S     5.584980  1.656487 -0.618660
  S     5.333689 -1.847073  3.580479
  S     5.080635  1.528983  3.472028
