16  
    
  C    11.417993  1.008672  3.104415
  C    11.376222  4.675261  3.303505
  C    10.220623  0.430160  2.567541
  C    10.282888  3.925898  2.759108
  N    12.361393  1.246223  2.166092
  N    12.367867  4.877946  2.465055
  N    10.313546  0.029893  1.276251
  N    10.376089  3.734975  1.444664
  N     9.613320  0.889121  5.008031
  N     9.578875  4.464534  5.111673
  S     8.843245  0.259968  3.647237
  S     8.952989  3.714972  3.742890
  S    11.800919  0.580684  0.712264
  S    11.876422  4.277277  1.044610
  S    11.242072  1.244033  4.858188
  S    11.108794  5.135134  4.987348
