16  
    
  C    12.129548  1.259809  3.336665
  C    12.270904  5.044714  3.444877
  C    10.874587  0.796508  2.692146
  C    11.045885  4.642357  2.859718
  N    13.265939  1.215554  2.601925
  N    13.261493  5.119844  2.541865
  N    11.088322  0.576564  1.400243
  N    11.077338  4.446891  1.520554
  N    10.240149  1.388175  5.143985
  N    10.530372  5.353283  5.305365
  S     9.485557  0.838024  3.764155
  S     9.706030  4.801919  3.951383
  S    12.691287  0.826277  1.058357
  S    12.616178  4.710888  1.074181
  S    11.882143  1.649901  4.974651
  S    12.170500  5.521217  5.103543
