16  
    
  C    12.554078  1.572442  3.389476
  C    12.732005  5.552233  3.441267
  C    11.296614  1.105907  2.699243
  C    11.623269  5.017515  2.692503
  N    13.479917  1.964311  2.526881
  N    13.914278  5.713132  2.788133
  N    11.377628  1.099529  1.353227
  N    11.884088  4.886414  1.403744
  N    10.801384  1.146256  5.248612
  N    11.014301  4.908174  5.215796
  S    10.037860  0.608200  3.821937
  S    10.250872  4.534447  3.777244
  S    12.927985  1.696631  0.996891
  S    13.485240  5.278384  1.188705
  S    12.427268  1.576969  5.090423
  S    12.525645  5.557684  5.136882
