16  
    
  C    11.474238  0.826160  3.014193
  C    11.134480  4.741001  3.539219
  C    10.314621  0.224193  2.360293
  C     9.956192  4.091428  2.931886
  N    12.620006  0.825431  2.257326
  N    12.067252  4.935576  2.610401
  N    10.495819  0.033466  1.039432
  N    10.098231  3.619554  1.699610
  N     9.447575  0.641007  4.713302
  N     9.466361  4.498272  5.412735
  S     8.908254 -0.110285  3.336185
  S     8.648258  3.915255  4.055897
  S    12.095819  0.405154  0.732202
  S    11.637733  4.070416  1.302685
  S    11.001399  1.165176  4.691776
  S    10.993539  5.153026  5.171917
