16  
    
  C     8.449205 -0.978042  2.458195
  C     8.212218  2.627568  2.173023
  C     7.135120 -1.468767  2.001117
  C     7.037076  2.224466  1.451788
  N     9.381821 -0.971507  1.543405
  N     9.322044  2.670071  1.471288
  N     7.148491 -1.890192  0.758466
  N     7.227974  1.892055  0.191895
  N     6.758843 -0.670789  4.473790
  N     6.285992  2.382641  3.887776
  S     5.898323 -1.329557  3.230323
  S     5.613541  2.092524  2.375256
  S     8.659403 -1.538486  0.110545
  S     8.850969  2.248320 -0.106595
  S     8.382010 -0.405148  4.190851
  S     7.875432  2.813064  3.862861
