16  
    
  C    11.981234  1.505153  3.565136
  C    11.912686  5.075019  3.777660
  C    10.903960  0.850468  2.918566
  C    10.714146  4.530255  3.195626
  N    12.879970  2.069502  2.788865
  N    12.838583  5.379619  2.844807
  N    11.082425  0.641609  1.630533
  N    10.652277  4.570652  1.888887
  N    10.501363  0.658856  5.403522
  N    10.500171  4.293257  5.832007
  S     9.710797  0.252589  4.033622
  S     9.605435  3.925141  4.467258
  S    12.430344  1.561002  1.239098
  S    12.213045  5.049363  1.378532
  S    11.900940  1.496995  5.269512
  S    11.968853  4.995155  5.472653
