16  
    
  C    12.104500  1.403792  3.590260
  C    11.848235  4.960120  3.752950
  C    10.964515  0.758550  2.934954
  C    10.682099  4.340150  3.201207
  N    12.985910  1.904042  2.729903
  N    12.778955  5.280548  2.856238
  N    10.976074  0.836130  1.597511
  N    10.657949  4.260418  1.857532
  N    10.434254  0.608119  5.436412
  N    10.323077  4.342815  5.708746
  S     9.675405  0.215157  3.999217
  S     9.522918  3.877087  4.302890
  S    12.438046  1.547551  1.170312
  S    12.139381  4.970096  1.390967
  S    11.930045  1.364758  5.298057
  S    11.843481  5.031623  5.529072
