16  
    
  C     9.135480 -0.518378  2.507910
  C     9.567830  3.462020  2.794246
  C     7.953521 -0.997357  1.793150
  C     8.281876  3.170869  2.144962
  N    10.206818 -0.508522  1.774043
  N    10.577451  3.364778  1.956341
  N     8.088971 -1.100543  0.473684
  N     8.386199  2.828799  0.874675
  N     7.221510 -0.581079  4.253035
  N     7.828201  3.756945  4.634064
  S     6.538332 -1.199073  2.824736
  S     7.040614  3.375022  3.214847
  S     9.723812 -0.852497  0.240116
  S     9.960136  2.890545  0.487045
  S     8.892160 -0.373902  4.240973
  S     9.446077  4.109485  4.405168
