16  
    
  C     4.577475 -2.147880  1.578367
  C     4.841375  1.521822  1.873941
  C     3.374074 -2.564129  0.910425
  C     3.554683  1.314465  1.212505
  N     5.667066 -2.003886  0.784087
  N     5.842572  1.458651  1.000652
  N     3.504307 -2.601303 -0.459683
  N     3.574096  1.270667 -0.101562
  N     2.829453 -2.249886  3.441716
  N     3.104550  1.205818  3.648026
  S     2.091233 -2.776872  2.057178
  S     2.189191  1.298432  2.221167
  S     5.117671 -2.305701 -0.739185
  S     5.198789  1.246540 -0.529624
  S     4.494285 -2.024607  3.313357
  S     4.695187  1.701840  3.620298
