16  
    
  C    12.086944  1.301613  3.488104
  C    11.885843  4.882187  3.761926
  C    10.895783  0.860397  2.896360
  C    10.747302  4.253315  3.156614
  N    13.064370  1.834065  2.733160
  N    12.747239  5.285753  2.881814
  N    10.987661  0.878010  1.583758
  N    10.761374  4.191023  1.822240
  N    10.424422  0.678945  5.376975
  N    10.205542  4.402689  5.703758
  S     9.687831  0.197689  4.003363
  S     9.461998  3.881635  4.279126
  S    12.440008  1.504684  1.189532
  S    12.103294  4.910746  1.375362
  S    11.908109  1.320735  5.206724
  S    11.752236  5.014464  5.509969
