16  
    
  C     7.223402 -1.375914  2.240613
  C     7.451246  2.192030  2.182842
  C     6.115288 -2.073127  1.685120
  C     6.221177  1.765433  1.538768
  N     8.252077 -1.314494  1.365880
  N     8.514035  2.229459  1.385306
  N     6.219540 -2.475983  0.407558
  N     6.350491  1.427632  0.254818
  N     5.472239 -1.541328  4.078559
  N     5.708980  2.128075  4.130539
  S     4.728168 -2.140112  2.672987
  S     4.953559  1.587143  2.694039
  S     7.711081 -2.007945 -0.021007
  S     8.020027  1.726500 -0.079326
  S     7.064194 -1.124712  3.892655
  S     7.272304  2.652121  3.845313
