16  
    
  C     8.969573 -0.376730  2.516081
  C     9.400545  3.585239  2.852439
  C     7.754889 -0.767427  1.917851
  C     8.154248  3.128041  2.146113
  N     9.999061 -0.130234  1.668246
  N    10.456060  3.530389  2.024917
  N     7.845752 -0.935094  0.584002
  N     8.280866  2.803313  0.850201
  N     7.406177 -0.848106  4.518658
  N     7.621236  3.469428  4.702838
  S     6.558127 -1.145539  3.102585
  S     6.802778  3.113062  3.263658
  S     9.436567 -0.535440  0.153127
  S     9.909722  3.190635  0.501578
  S     9.000804 -0.401545  4.229820
  S     9.235989  3.924932  4.566031
