16  
    
  C    11.249073  0.428402  3.029371
  C    11.137554  4.450291  3.351986
  C    10.097139 -0.129635  2.363394
  C     9.850393  4.205759  2.774968
  N    12.252797  0.703114  2.194094
  N    12.152622  4.302144  2.508369
  N    10.253023 -0.463866  1.076651
  N     9.873869  3.936350  1.490560
  N     9.439793  0.386805  4.793856
  N     9.482060  4.042828  5.288645
  S     8.736947 -0.321742  3.424799
  S     8.556424  4.316008  3.952423
  S    11.799019  0.074102  0.740858
  S    11.480355  4.051274  1.036651
  S    10.987446  1.085843  4.641762
  S    11.071930  4.569851  5.112709
