16  
    
  C     9.030737 -0.342667  2.517419
  C     9.247705  3.460819  2.759315
  C     7.793982 -0.851976  1.954486
  C     7.985004  3.162435  2.183369
  N    10.012044 -0.155350  1.669313
  N    10.277490  3.629683  1.944083
  N     7.825847 -0.886132  0.664591
  N     8.016426  3.062997  0.862231
  N     7.376967 -0.920973  4.476835
  N     7.432171  3.369547  4.690756
  S     6.500331 -1.063327  3.041723
  S     6.603283  2.902307  3.286010
  S     9.321044 -0.417640  0.155127
  S     9.633260  3.219532  0.447738
  S     8.957251 -0.341147  4.270659
  S     9.050418  3.716382  4.464665
