16  
    
  C     3.841375 -2.773054  1.399069
  C     4.109697  1.247743  1.497855
  C     2.720056 -3.438041  0.810878
  C     2.864256  0.721738  0.931790
  N     4.925306 -2.680409  0.665001
  N     5.124303  1.309323  0.631202
  N     2.967496 -3.864834 -0.423797
  N     2.921948  0.512882 -0.379377
  N     2.054982 -2.784051  3.208436
  N     2.336224  1.126073  3.437094
  S     1.380098 -3.508032  1.853289
  S     1.533588  0.560994  2.068781
  S     4.467583 -3.321272 -0.816180
  S     4.459008  0.874258 -0.831301
  S     3.701930 -2.442159  3.085984
  S     4.035988  1.410972  3.207077
