16  
    
  C     8.935107 -0.361035  2.578754
  C     8.846413  3.335290  2.622384
  C     7.718059 -0.751505  1.920907
  C     7.644492  2.907058  2.041681
  N     9.946045 -0.091917  1.745142
  N     9.796297  3.734092  1.757114
  N     7.814460 -0.837592  0.581482
  N     7.602631  2.913223  0.707636
  N     7.240663 -0.579084  4.455357
  N     7.228479  3.001597  4.618613
  S     6.424667 -1.043754  3.029155
  S     6.333450  2.728224  3.237949
  S     9.389947 -0.371177  0.228979
  S     9.143907  3.439787  0.275349
  S     8.921936 -0.300199  4.270419
  S     8.822577  3.416844  4.342769
