16  
    
  C     8.388481 -0.882004  2.456616
  C     8.246186  2.453031  2.120913
  C     7.130611 -1.120924  1.817801
  C     7.110294  2.031250  1.334137
  N     9.452030 -0.920225  1.615038
  N     9.406351  2.486654  1.436863
  N     7.267690 -1.464293  0.512188
  N     7.397710  1.864392  0.036840
  N     6.587351 -0.537234  4.306353
  N     6.251069  2.105697  3.795661
  S     5.802900 -1.142192  2.945802
  S     5.666507  1.780246  2.224567
  S     8.880588 -1.333080  0.103662
  S     8.971824  2.228095 -0.136310
  S     8.223938 -0.541744  4.212871
  S     7.886364  2.581403  3.791003
