16  
    
  C     9.123366 -0.547984  2.526365
  C     9.520327  3.590258  2.803680
  C     7.928400 -1.071044  1.903168
  C     8.278309  3.127959  2.143488
  N    10.126839 -0.326319  1.689772
  N    10.528678  3.582443  1.974470
  N     7.983546 -1.088300  0.576799
  N     8.461102  2.666087  0.900265
  N     7.330670 -0.637439  4.390153
  N     7.747464  3.941196  4.603014
  S     6.603103 -1.157606  2.959870
  S     6.999048  3.269507  3.264246
  S     9.511241 -0.648134  0.191519
  S    10.023179  2.995741  0.503738
  S     8.993448 -0.406795  4.290111
  S     9.440963  3.959931  4.536309
