16  
    
  C    10.158523  0.646385  2.714441
  C    10.725959  4.269334  2.789316
  C     8.941970  0.065625  2.122143
  C     9.464248  3.828143  2.215282
  N    11.180200  0.716487  1.879973
  N    11.765141  4.292199  1.965862
  N     9.033771 -0.138028  0.834540
  N     9.535360  3.704211  0.901669
  N     8.381458  0.294392  4.604795
  N     8.971740  4.148391  4.741262
  S     7.723275 -0.448675  3.252037
  S     8.176043  3.652030  3.391409
  S    10.636768  0.177622  0.366412
  S    11.102752  3.981133  0.414466
  S     9.975411  0.806809  4.419292
  S    10.543713  4.626510  4.452831
