16  
    
  C     7.250877 -1.720649  2.292562
  C     7.472315  2.238309  2.179431
  C     6.037835 -2.010483  1.615124
  C     6.301365  1.634441  1.617835
  N     8.315330 -1.586705  1.500436
  N     8.487253  2.386881  1.336874
  N     6.173685 -2.230258  0.301487
  N     6.465469  1.380346  0.322177
  N     5.443364 -1.683381  4.012420
  N     5.774830  2.117056  4.087198
  S     4.698357 -2.288530  2.668731
  S     4.950794  1.739403  2.746622
  S     7.782990 -1.968518 -0.008089
  S     7.924311  1.874237 -0.128494
  S     7.084501 -1.441428  3.936778
  S     7.312184  2.653835  3.896806
