16  
    
  C     7.224426 -1.314053  2.317091
  C     7.833174  2.834561  2.323457
  C     6.148126 -1.885904  1.536824
  C     6.663220  2.275443  1.688920
  N     8.275632 -0.949976  1.595771
  N     8.836532  3.063825  1.504225
  N     6.323252 -1.791965  0.215994
  N     6.809796  2.140804  0.395608
  N     5.231281 -1.845317  3.928375
  N     6.019206  2.467798  4.104141
  S     4.734750 -2.341823  2.485822
  S     5.262932  2.069527  2.727523
  S     7.837951 -1.172580  0.003677
  S     8.292542  2.613533 -0.011067
  S     6.794916 -1.254771  3.995686
  S     7.584577  3.028209  4.021466
