16  
    
  C    12.454171  1.667350  3.288952
  C    12.256962  5.383018  3.572687
  C    11.173773  1.133114  2.730519
  C    11.166221  4.727991  2.903500
  N    13.478420  1.749083  2.435903
  N    13.257121  5.684350  2.744472
  N    11.363544  0.907331  1.442878
  N    11.262514  4.627323  1.597401
  N    10.751500  1.308573  5.169461
  N    10.585917  4.982689  5.476097
  S     9.883914  0.824851  3.824431
  S     9.906629  4.391282  4.081905
  S    12.899665  1.333850  0.983898
  S    12.789672  5.182815  1.250759
  S    12.290769  1.859021  5.042105
  S    12.176358  5.527866  5.325580
