16  
    
  C     3.293520 -3.201637  1.229932
  C     3.616667  0.601099  1.355063
  C     2.070961 -3.344480  0.494236
  C     2.405100  0.284840  0.671071
  N     4.364686 -3.012969  0.500493
  N     4.670693  0.800088  0.568460
  N     2.253579 -3.349522 -0.832878
  N     2.563943  0.087625 -0.633067
  N     1.553436 -3.436160  2.966747
  N     1.791074  0.440491  3.163542
  S     0.660638 -3.510082  1.546466
  S     1.040936  0.088325  1.716503
  S     3.886189 -3.045392 -1.033326
  S     4.130468  0.413100 -0.979375
  S     3.186097 -3.320115  2.905882
  S     3.375471  0.667792  3.075981
