16  
    
  C    12.827305  1.556331  3.540200
  C    12.336230  4.967948  3.480032
  C    11.566440  1.274139  3.004548
  C    11.188307  4.537475  2.659629
  N    13.882640  1.545871  2.720099
  N    13.412835  5.200740  2.692266
  N    11.638231  1.124309  1.692363
  N    11.421216  4.352955  1.392588
  N    10.968343  1.893815  5.410971
  N    10.438196  4.375861  5.143212
  S    10.151377  1.379968  4.056652
  S     9.769880  4.224448  3.576439
  S    13.248630  1.298946  1.247811
  S    12.950277  4.820499  1.143199
  S    12.650266  1.885186  5.317751
  S    11.938140  5.171438  5.168074
