16  
    
  C     8.713021 -0.096079  2.510520
  C     8.486666  3.149202  2.553845
  C     7.579135 -0.700314  1.804022
  C     7.364885  2.652303  1.816695
  N     9.711328  0.179331  1.684332
  N     9.571829  3.298069  1.812052
  N     7.705417 -0.774251  0.480559
  N     7.626523  2.372652  0.549618
  N     7.064585 -0.779861  4.419107
  N     6.712821  2.878469  4.369158
  S     6.246066 -0.964128  2.999859
  S     6.076845  2.393581  2.912451
  S     9.235985 -0.215343  0.134386
  S     9.186102  2.849164  0.241785
  S     8.629170 -0.113402  4.308776
  S     8.337061  3.279977  4.276525
