16  
    
  C     4.542626 -2.507372  1.495464
  C     5.220824  1.496767  1.696328
  C     3.271904 -2.768207  0.850436
  C     3.961681  1.074065  1.150842
  N     5.557310 -2.409866  0.688790
  N     6.241972  1.638469  0.819304
  N     3.339910 -2.766034 -0.466904
  N     3.998233  0.997209 -0.184951
  N     2.729843 -2.758582  3.331728
  N     3.653402  1.353827  3.644793
  S     1.942028 -3.133396  1.944617
  S     2.651290  1.171792  2.362343
  S     4.944018 -2.453850 -0.891188
  S     5.491463  1.451846 -0.626167
  S     4.384726 -2.712507  3.233496
  S     5.225101  1.672063  3.365522
