16  
    
  C     4.302978 -2.365146  1.808472
  C     4.032750  1.188300  1.245932
  C     3.072116 -2.903203  1.214813
  C     2.925662  0.447861  0.682825
  N     5.243693 -2.160612  0.934754
  N     4.977246  1.525450  0.375478
  N     3.112387 -3.121516 -0.067371
  N     3.126859  0.084293 -0.602922
  N     2.640513 -2.827018  3.749847
  N     2.284729  0.913263  3.195002
  S     1.833568 -3.307187  2.362836
  S     1.711007  0.044941  1.951179
  S     4.691298 -2.743421 -0.565899
  S     4.591441  0.708881 -1.041229
  S     4.030876 -1.961393  3.486314
  S     3.740202  1.696437  2.842150
