16  
    
  C    12.776923  1.645378  3.450625
  C    12.259436  5.039196  3.436946
  C    11.558091  1.309065  2.882191
  C    11.143100  4.543959  2.629766
  N    13.856154  1.651480  2.692910
  N    13.377948  5.216929  2.690050
  N    11.667174  0.995499  1.592644
  N    11.387938  4.485002  1.338221
  N    11.113510  1.767306  5.357641
  N    10.461562  4.559455  5.081091
  S    10.300155  1.303603  4.010832
  S     9.726030  4.265947  3.634253
  S    13.235395  1.215995  1.177836
  S    13.045211  4.885546  1.142625
  S    12.750496  1.891084  5.202121
  S    11.989483  5.121490  5.086938
