16  
    
  C    11.360620  0.665567  2.986795
  C    11.067897  4.566380  3.543882
  C    10.343556 -0.068978  2.223833
  C     9.796149  4.150262  2.990796
  N    12.488291  0.902624  2.320703
  N    12.098368  4.607108  2.680402
  N    10.704454 -0.305374  0.944215
  N     9.913253  3.743982  1.739093
  N     9.404325  0.356434  4.608569
  N     9.401484  4.536216  5.555935
  S     8.781188 -0.128338  3.122793
  S     8.544067  4.098217  4.201972
  S    12.328623  0.262976  0.825538
  S    11.488035  4.073934  1.271074
  S    10.976508  0.908440  4.691242
  S    10.918116  5.117221  5.237448
