16  
    
  C     4.740679 -1.950960  1.726626
  C     4.348372  1.372768  1.406642
  C     3.462520 -2.339304  1.120598
  C     3.160763  0.913679  0.688996
  N     5.733053 -1.958421  0.885496
  N     5.348239  1.535239  0.540862
  N     3.547435 -2.585746 -0.165750
  N     3.279702  0.800456 -0.642207
  N     3.030504 -1.851249  3.632451
  N     2.532604  0.789734  3.215725
  S     2.151246 -2.225684  2.267400
  S     1.728810  0.737633  1.736613
  S     5.099309 -2.259686 -0.612741
  S     4.795090  1.262277 -1.034530
  S     4.699184 -1.815623  3.452893
  S     4.133610  1.368224  3.173901
