16  
    
  C     3.341452 -3.122659  1.454230
  C     3.572150  0.542800  1.366494
  C     2.116385 -3.153626  0.704005
  C     2.301525  0.374851  0.740791
  N     4.432417 -3.048000  0.688868
  N     4.628640  0.685787  0.564105
  N     2.320020 -3.089635 -0.611767
  N     2.384047  0.314961 -0.582899
  N     1.337599 -3.512030  3.099354
  N     1.806664  0.219077  3.251854
  S     0.686359 -3.565320  1.604741
  S     1.000317  0.001699  1.831726
  S     3.899720 -2.845055 -0.850359
  S     4.004915  0.604108 -0.946187
  S     2.971827 -3.240000  3.218581
  S     3.374098  0.673148  3.105741
