16  
    
  C     5.587563 -2.042505  1.862045
  C     5.180246  1.593480  1.725093
  C     4.439245 -2.619422  1.248393
  C     4.116674  0.862675  1.098156
  N     6.537838 -1.841571  0.977969
  N     6.122227  2.004314  0.891766
  N     4.539417 -2.859644 -0.027808
  N     4.132521  0.781517 -0.235010
  N     3.876949 -2.406974  3.744527
  N     3.558810  0.886126  3.643080
  S     3.049824 -2.761250  2.319862
  S     2.880940  0.371722  2.205485
  S     6.024857 -2.280428 -0.511141
  S     5.575408  1.600766 -0.669573
  S     5.414351 -1.814026  3.581087
  S     5.139321  1.518553  3.507133
