16  
    
  C     8.447787 -0.969041  2.470724
  C     8.326650  2.272105  2.108172
  C     7.209911 -1.170566  1.795460
  C     7.187887  1.803706  1.314085
  N     9.482875 -0.863487  1.667165
  N     9.387199  2.591887  1.368070
  N     7.332124 -1.356029  0.514273
  N     7.371852  1.806143 -0.012101
  N     6.508808 -0.745024  4.187079
  N     6.221745  2.223306  3.664075
  S     5.765498 -0.977546  2.708837
  S     5.685353  1.660284  2.222869
  S     8.915294 -1.176758  0.141055
  S     8.976431  2.308150 -0.173218
  S     8.200669 -0.637679  4.159262
  S     7.856456  2.520505  3.840739
