16  
    
  C     8.331848 -0.868678  2.427630
  C     8.151651  2.772401  2.303233
  C     7.136157 -1.527136  2.046733
  C     6.989713  2.271489  1.616636
  N     9.318764 -0.926709  1.508506
  N     9.221108  2.899515  1.541614
  N     7.151061 -1.966355  0.772728
  N     7.217199  1.977632  0.335301
  N     6.772843 -0.738450  4.484716
  N     6.239180  2.775566  3.963971
  S     5.894733 -1.393050  3.274148
  S     5.607224  2.053578  2.669798
  S     8.675182 -1.611434  0.162986
  S     8.753043  2.469505  0.052318
  S     8.414153 -0.428947  4.152076
  S     7.848735  3.111766  3.980738
