16  
    
  C    11.356518  1.018776  3.355864
  C    11.499421  4.738667  2.759338
  C    10.070908  0.569992  2.813913
  C    10.262701  4.202297  2.184456
  N    12.294736  1.201993  2.408459
  N    12.522045  4.943765  1.915950
  N    10.071809  0.368187  1.495333
  N    10.321845  4.163385  0.826657
  N     9.618257  0.744734  5.257990
  N     9.875073  4.358574  4.769779
  S     8.705014  0.459941  3.847826
  S     9.044137  4.009350  3.376731
  S    11.520244  0.877738  0.967614
  S    11.903155  4.514031  0.381816
  S    11.271414  1.235424  5.052105
  S    11.392015  4.990993  4.536077
