16  
    
  C     7.164365 -1.274520  2.316966
  C     7.761204  2.838717  2.344228
  C     6.116709 -1.857785  1.486447
  C     6.613629  2.310183  1.661452
  N     8.189232 -0.809785  1.638223
  N     8.823550  3.090022  1.576781
  N     6.381901 -1.945843  0.205416
  N     6.782230  2.298499  0.351085
  N     5.363908 -2.031259  3.944864
  N     6.000693  2.473381  4.134021
  S     4.826891 -2.554558  2.432461
  S     5.255784  2.039079  2.731481
  S     7.880496 -1.276484  0.096246
  S     8.344502  2.675188 -0.020437
  S     6.823456 -1.332636  3.978896
  S     7.548886  2.936036  4.069536
