16  
    
  C    12.706987  1.490988  3.547347
  C    12.902460  5.562817  3.728478
  C    11.596082  0.823974  2.973800
  C    11.742152  4.952390  3.025506
  N    13.692323  1.675895  2.709160
  N    13.917444  5.758531  2.907685
  N    11.658191  0.649171  1.657848
  N    11.949250  4.772886  1.763653
  N    10.800888  1.412803  5.348112
  N    11.056000  5.099120  5.430887
  S    10.136721  0.740764  3.994662
  S    10.405560  4.648389  3.990498
  S    13.154462  1.188498  1.191430
  S    13.468572  5.291045  1.416575
  S    12.328034  1.988185  5.182446
  S    12.539300  5.756974  5.489971
