16  
    
  C     9.160973 -0.421660  2.517443
  C     9.347703  3.137558  2.609815
  C     8.017033 -1.102749  2.075733
  C     8.080910  2.778086  2.053913
  N    10.206503 -0.320784  1.640023
  N    10.392166  3.252050  1.748798
  N     8.126840 -1.382043  0.754713
  N     8.183435  2.416861  0.769756
  N     7.480806 -0.415038  4.456728
  N     7.588951  3.252752  4.575548
  S     6.659474 -1.141674  3.160975
  S     6.720013  2.972055  3.195822
  S     9.583267 -0.910316  0.215065
  S     9.719709  2.798186  0.344562
  S     9.088468  0.015733  4.189249
  S     9.186356  3.530398  4.213709
