16  
    
  C    11.995468  1.589386  3.479828
  C    12.154277  5.028688  3.768729
  C    10.956639  0.903949  2.825980
  C    10.873297  4.506480  3.316435
  N    12.961344  1.908962  2.640631
  N    13.048230  5.474703  2.872760
  N    11.076323  0.672477  1.514764
  N    10.762468  4.622349  1.966866
  N    10.324905  1.019749  5.325974
  N    10.563219  4.571461  5.840942
  S     9.771048  0.328939  3.923931
  S     9.646531  4.233834  4.469511
  S    12.532862  1.442690  1.122898
  S    12.247860  5.215030  1.404425
  S    11.828734  1.699411  5.248745
  S    12.146552  4.981883  5.519142
