16  
    
  C     6.324279 -1.660101  1.607254
  C     6.338749  2.187419  1.915432
  C     5.196573 -2.288759  0.986228
  C     5.253594  1.423613  1.287000
  N     7.377294 -1.422150  0.795836
  N     7.378257  2.402095  1.123079
  N     5.354835 -2.466418 -0.330542
  N     5.434996  1.143984  0.003981
  N     4.390999 -1.690744  3.374388
  N     4.562578  1.946647  3.758162
  S     3.871807 -2.517341  1.982535
  S     3.903759  1.283141  2.362617
  S     6.879194 -1.889757 -0.734306
  S     6.991971  1.749610 -0.378049
  S     6.004071 -1.272418  3.286087
  S     6.159612  2.527838  3.594008
