16  
    
  C     5.411549 -2.124333  1.586810
  C     5.228782  1.603501  1.572063
  C     4.287455 -2.609980  0.828383
  C     4.149214  0.836349  0.925910
  N     6.564645 -2.092063  0.870756
  N     6.336353  1.710509  0.870332
  N     4.532981 -2.792938 -0.488062
  N     4.452678  0.527105 -0.345816
  N     3.526743 -2.447760  3.238713
  N     3.121924  1.764572  3.077918
  S     2.882811 -2.887282  1.794257
  S     2.642747  0.835485  1.856815
  S     6.141978 -2.461376 -0.720331
  S     5.970065  1.051714 -0.610225
  S     5.096101 -2.017465  3.265463
  S     4.707535  2.302518  3.032471
