16  
    
  C     7.912643 -1.027365  1.866571
  C     7.938819  2.951699  2.401136
  C     6.659343 -1.371254  1.245438
  C     6.806146  2.381507  1.701943
  N     8.874332 -0.935443  0.984986
  N     9.037175  3.208923  1.662509
  N     6.711755 -1.684822 -0.027610
  N     7.009844  2.195837  0.415588
  N     6.073507 -0.935552  3.744578
  N     5.967668  2.554428  4.159236
  S     5.325694 -1.539626  2.400960
  S     5.323848  2.186995  2.633847
  S     8.276014 -1.356402 -0.503940
  S     8.596137  2.783224  0.112523
  S     7.698176 -0.536449  3.509110
  S     7.560112  3.151602  4.117204
