16  
    
  C    11.676504  1.125763  2.859886
  C    11.788322  4.896778  3.170040
  C    10.431902  0.571943  2.320151
  C    10.634100  4.305192  2.513388
  N    12.547541  1.476338  1.918865
  N    12.791953  5.154614  2.336603
  N    10.514008  0.298270  0.999481
  N    10.760693  4.223693  1.188085
  N    10.101396  0.860634  4.864250
  N    10.002201  4.688983  4.993577
  S     9.301275  0.255426  3.554649
  S     9.291632  4.084699  3.599729
  S    11.887084  1.030521  0.450645
  S    12.265199  4.713382  0.792784
  S    11.689248  1.254787  4.608972
  S    11.528215  5.356289  4.820349
