16  
    
  C     9.389557 -0.503717  2.724579
  C     9.325092  3.268437  2.521696
  C     8.206531 -1.027426  2.136299
  C     8.089620  3.002441  1.923486
  N    10.445774 -0.476444  1.851988
  N    10.404592  3.302787  1.683276
  N     8.265549 -1.215267  0.785134
  N     8.193710  2.660034  0.636225
  N     7.703614 -0.663043  4.627502
  N     7.487353  3.381210  4.410554
  S     6.833358 -1.012451  3.204327
  S     6.702498  2.925279  2.982564
  S     9.831011 -0.939354  0.382618
  S     9.745021  2.838957  0.241763
  S     9.290768 -0.220236  4.411388
  S     9.137261  3.500398  4.297708
