16  
    
  C    12.951626  1.870117  3.661990
  C    12.991145  5.573181  3.659473
  C    11.670749  1.508068  3.153297
  C    11.731190  5.025047  3.183045
  N    13.971958  1.950339  2.765738
  N    13.928314  5.547965  2.738531
  N    11.684420  1.247030  1.856745
  N    11.678530  4.634311  1.877722
  N    11.281895  1.504518  5.670649
  N    11.236255  5.575158  5.686563
  S    10.385598  1.271315  4.251603
  S    10.407959  5.063497  4.291895
  S    13.262483  1.464922  1.323455
  S    13.194964  4.966327  1.325460
  S    12.901079  1.853817  5.435059
  S    12.890522  5.894105  5.393067
