16  
    
  C    11.956936  1.641498  3.510320
  C    11.995413  5.018316  3.782879
  C    10.993681  0.806048  2.907772
  C    10.734713  4.621697  3.215239
  N    12.883899  2.114451  2.695384
  N    12.915714  5.395134  2.875484
  N    11.091824  0.725908  1.583562
  N    10.728816  4.553456  1.914368
  N    10.413406  0.787934  5.438470
  N    10.559867  4.405556  5.774499
  S     9.665749  0.229689  4.032336
  S     9.667860  4.046142  4.419301
  S    12.502539  1.494910  1.204429
  S    12.147321  5.149458  1.406700
  S    11.891298  1.598299  5.238626
  S    12.110651  4.986511  5.577376
