16  
    
  C     9.959651 -0.001356  2.665143
  C    10.027939  3.777995  2.772630
  C     8.775786 -0.517239  2.025823
  C     9.042060  2.874169  2.288388
  N    10.972342  0.079502  1.848648
  N    10.905934  4.174782  1.880438
  N     8.898567 -0.637440  0.720867
  N     9.246115  2.503427  1.020232
  N     8.389075 -0.399611  4.613722
  N     8.469612  3.387874  4.741185
  S     7.440484 -0.728707  3.238791
  S     7.810296  2.531934  3.493966
  S    10.466770 -0.218096  0.341007
  S    10.499562  3.403749  0.417605
  S     9.956903  0.069772  4.417518
  S     9.641770  4.496526  4.315001
