16  
    
  C    12.060809  1.317657  3.313278
  C    12.262438  5.054370  3.489885
  C    10.898778  0.965177  2.609779
  C    11.000809  4.687564  2.952456
  N    13.134675  1.384967  2.538471
  N    13.344128  5.147366  2.671740
  N    11.087886  0.509324  1.356162
  N    11.054954  4.562028  1.657173
  N    10.295772  1.312832  5.118754
  N    10.543668  5.279386  5.393228
  S     9.566599  0.846211  3.719737
  S     9.661258  4.743999  4.083866
  S    12.720583  0.837527  1.063819
  S    12.671776  4.795766  1.181596
  S    11.895448  1.623201  5.028129
  S    12.168602  5.499760  5.149896
