16  
    
  C     8.866489 -0.899464  2.363433
  C     8.555507  3.211781  2.497301
  C     7.661757 -1.307519  1.684670
  C     7.369051  2.638295  1.931782
  N     9.937694 -0.883701  1.591059
  N     9.496151  3.556104  1.641975
  N     7.740538 -1.352000  0.378886
  N     7.399963  2.506693  0.634377
  N     6.894026 -0.912414  4.151592
  N     6.785841  2.827863  4.382934
  S     6.204330 -1.489950  2.755995
  S     6.089529  2.206234  3.044152
  S     9.368322 -1.167295  0.000228
  S     8.870761  3.038919  0.114995
  S     8.488087 -0.680681  4.085011
  S     8.260029  3.513654  4.158385
