16  
    
  C    10.261903  0.578120  3.008640
  C    10.604561  4.559474  2.883385
  C     9.088050  0.009121  2.353314
  C     9.354121  4.175360  2.231997
  N    11.181605  0.997023  2.158531
  N    11.614473  4.831860  2.075419
  N     9.302863 -0.192879  1.049685
  N     9.444829  4.153928  0.912523
  N     8.714108  0.063850  4.927362
  N     9.105154  3.909024  4.814203
  S     7.961143 -0.500455  3.538681
  S     8.164978  3.938868  3.447397
  S    10.735532  0.542612  0.640721
  S    11.056493  4.462877  0.512594
  S    10.274550  0.611796  4.734640
  S    10.721718  4.324702  4.614672
