16  
    
  C     6.272547 -1.733450  1.953099
  C     6.485098  2.154551  2.047436
  C     5.173033 -2.337883  1.216757
  C     5.298839  1.692134  1.409093
  N     7.308371 -1.480213  1.192873
  N     7.512221  2.421866  1.230811
  N     5.341997 -2.397315 -0.094621
  N     5.413740  1.402064  0.115233
  N     4.502607 -2.161985  3.771380
  N     4.744256  1.837518  3.886206
  S     3.823330 -2.704631  2.317941
  S     3.998308  1.453878  2.488124
  S     6.886800 -1.960610 -0.313328
  S     7.023129  1.814424 -0.272306
  S     6.003786 -1.468416  3.623959
  S     6.293903  2.408296  3.762423
