16  
    
  C    10.511140  0.572773  3.030389
  C    10.569009  4.626841  2.745404
  C     9.269551  0.101409  2.485328
  C     9.353147  4.001873  2.253101
  N    11.473695  0.864715  2.150924
  N    11.625954  4.591057  1.924848
  N     9.373937 -0.081950  1.170747
  N     9.505885  3.652047  0.967669
  N     8.758815  0.540753  4.947595
  N     8.853402  4.540697  4.721558
  S     8.006635 -0.225802  3.676043
  S     8.127634  3.685673  3.489236
  S    10.873538  0.358644  0.689392
  S    11.087110  4.000931  0.519293
  S    10.317641  1.055880  4.683277
  S    10.469741  4.876448  4.495637
