16  
    
  C     9.985308 -0.066257  2.693628
  C     9.821070  3.924601  2.801524
  C     8.852458 -0.635918  2.008379
  C     8.807478  3.065448  2.213252
  N    11.024040  0.243215  1.978645
  N    10.825822  4.354403  2.032456
  N     9.009874 -0.746795  0.722525
  N     9.099912  2.760846  0.958470
  N     8.110079 -0.361012  4.476329
  N     7.907288  3.704201  4.544448
  S     7.439289 -0.955930  3.082314
  S     7.301914  2.971597  3.191116
  S    10.575403 -0.214091  0.411741
  S    10.541980  3.624365  0.566093
  S     9.697634  0.083398  4.381018
  S     9.419676  4.359367  4.416503
