16  
    
  C     3.382351 -3.083099  1.091723
  C     3.691570  0.554547  1.364626
  C     2.162613 -3.392757  0.430391
  C     2.475918  0.172273  0.682209
  N     4.400468 -2.871449  0.208748
  N     4.731671  0.805179  0.564601
  N     2.283520 -3.557253 -0.910664
  N     2.665875 -0.044951 -0.611719
  N     1.583308 -3.386176  2.994805
  N     1.910793  0.381663  3.171061
  S     0.819466 -3.557759  1.555897
  S     1.048910  0.128526  1.726047
  S     3.836397 -3.287247 -1.284194
  S     4.258632  0.457160 -0.948478
  S     3.201076 -3.135538  2.830888
  S     3.496298  0.810024  3.115641
