16  
    
  C    10.427022  0.616198  3.048608
  C    10.735442  4.352549  2.900216
  C     9.241053  0.041903  2.484186
  C     9.471041  3.957548  2.300872
  N    11.309384  0.982296  2.106519
  N    11.667890  4.488736  1.963531
  N     9.364268 -0.227730  1.179035
  N     9.397583  3.928194  0.978603
  N     8.753044  0.171562  4.959116
  N     8.982358  4.302753  4.812074
  S     7.961314 -0.325703  3.572111
  S     8.160150  3.848186  3.428423
  S    10.742455  0.420355  0.643983
  S    10.902745  4.382940  0.432108
  S    10.281110  0.830631  4.768948
  S    10.593809  4.734011  4.609359
