16  
    
  C    11.064175  0.508960  3.227431
  C    11.170744  4.148466  3.138744
  C     9.890302  0.001675  2.544175
  C     9.938513  3.807788  2.447038
  N    12.093441  0.891849  2.481240
  N    12.169263  4.328661  2.272078
  N     9.997305 -0.020050  1.220521
  N     9.989477  3.666335  1.131213
  N     9.325566 -0.027742  5.094013
  N     9.506645  3.885060  5.033693
  S     8.501443 -0.234856  3.649912
  S     8.679276  3.422755  3.662132
  S    11.590560  0.523527  0.907455
  S    11.592179  4.138521  0.773280
  S    10.817941  0.699151  4.918415
  S    11.063515  4.439889  4.794039
