16  
    
  C     3.817153 -2.769902  1.386578
  C     4.102117  1.241484  1.488505
  C     2.702942 -3.449760  0.808406
  C     2.856632  0.690337  0.941667
  N     4.910267 -2.660935  0.640490
  N     5.118635  1.314920  0.620476
  N     2.978101 -3.872914 -0.442728
  N     2.913951  0.497827 -0.376343
  N     2.056856 -2.793169  3.206132
  N     2.343684  1.110509  3.436683
  S     1.368734 -3.510179  1.857010
  S     1.541288  0.551675  2.055584
  S     4.465949 -3.330056 -0.821915
  S     4.457707  0.866542 -0.821804
  S     3.696617 -2.448905  3.076078
  S     4.025946  1.399377  3.208067
