16  
    
  C     7.545314 -1.211046  1.870311
  C     7.734099  2.822946  2.167677
  C     6.294467 -1.670034  1.304800
  C     6.500015  2.230516  1.580541
  N     8.527756 -1.047989  0.999420
  N     8.681413  3.054781  1.298315
  N     6.288593 -1.586123 -0.009031
  N     6.536416  1.971355  0.294729
  N     5.800031 -1.210176  3.826118
  N     6.020134  2.661852  4.039728
  S     5.027131 -1.764268  2.515150
  S     5.160408  2.191207  2.693114
  S     7.873559 -1.222660 -0.521871
  S     8.157665  2.453474 -0.140802
  S     7.432845 -0.915510  3.637306
  S     7.554753  3.276205  3.848982
