16  
    
  C     5.394425 -2.191968  1.540132
  C     5.092272  1.663393  1.633177
  C     4.289358 -2.718537  0.814197
  C     4.062914  0.851981  0.971408
  N     6.439051 -1.980178  0.758288
  N     6.159285  1.851008  0.851996
  N     4.522856 -2.923940 -0.481524
  N     4.421978  0.219259 -0.141527
  N     3.501927 -2.478107  3.281667
  N     3.121799  1.848917  3.187254
  S     2.854816 -2.872683  1.794812
  S     2.592148  0.875771  1.933376
  S     6.105076 -2.463155 -0.756147
  S     5.930946  0.875055 -0.475893
  S     5.089599 -1.877305  3.207732
  S     4.713797  2.405051  3.141341
