16  
    
  C     9.150527 -0.649361  2.551740
  C     9.588237  3.570464  2.754978
  C     7.956079 -1.022091  1.888211
  C     8.296843  3.148025  2.199175
  N    10.204842 -0.400753  1.719099
  N    10.647276  3.502974  1.947881
  N     8.040508 -1.157758  0.545969
  N     8.449876  2.722392  0.945408
  N     7.301043 -0.575295  4.345487
  N     7.803633  3.959656  4.577920
  S     6.577914 -1.176457  2.993159
  S     6.897438  3.303396  3.317568
  S     9.620624 -0.689225  0.182635
  S    10.057755  2.950876  0.477513
  S     8.911665 -0.416987  4.218907
  S     9.454911  3.987544  4.436876
