16  
    
  C     6.077771 -1.595190  2.401444
  C     6.627617  2.211344  2.170997
  C     4.997537 -2.291388  1.754087
  C     5.409537  1.775047  1.595502
  N     7.076018 -1.141329  1.618334
  N     7.639194  2.278532  1.300538
  N     5.342083 -2.639584  0.491945
  N     5.467900  1.608382  0.290972
  N     4.498652 -2.366988  4.235447
  N     4.953117  1.749460  4.140632
  S     3.748956 -2.815653  2.840900
  S     4.107441  1.421168  2.755979
  S     6.747014 -1.697699  0.079832
  S     6.962247  1.971652 -0.152004
  S     5.891207 -1.493196  4.113532
  S     6.503766  2.240218  3.935576
