16  
    
  C     9.765261 -0.131100  2.533558
  C     9.707971  3.677215  2.578046
  C     8.507940 -0.700977  1.989266
  C     8.531548  3.115870  1.893977
  N    10.659439  0.186706  1.638777
  N    10.615393  4.042697  1.712888
  N     8.455818 -0.586230  0.694020
  N     8.618517  2.972588  0.563749
  N     8.302331 -0.597131  4.610080
  N     8.321722  3.017300  4.537721
  S     7.364867 -0.942772  3.257480
  S     7.373046  2.664661  3.142505
  S     9.900016  0.080614  0.175016
  S    10.142923  3.638324  0.135836
  S     9.804275 -0.054847  4.273103
  S     9.688006  3.977842  4.300823
