16  
    
  C    10.221812  0.491312  2.961054
  C    10.794277  4.248157  2.953960
  C     9.031253 -0.010054  2.306380
  C     9.572769  4.031010  2.179770
  N    11.161906  0.927081  2.107491
  N    11.838515  4.485587  2.175700
  N     9.132323  0.057435  0.978232
  N     9.646255  4.381128  0.881213
  N     8.636702 -0.160266  4.842603
  N     8.972658  3.695311  4.677789
  S     7.841686 -0.633060  3.436424
  S     8.201735  3.780127  3.211813
  S    10.586673  0.713691  0.568480
  S    11.257785  4.751961  0.602882
  S    10.178986  0.441475  4.654678
  S    10.518394  4.271230  4.659699
