16  
    
  C     8.724100 -0.952957  2.342477
  C     8.402884  3.296199  2.228948
  C     7.553755 -1.529236  1.729732
  C     7.238850  2.567792  1.723766
  N     9.734633 -0.673529  1.492376
  N     9.355807  3.581478  1.321122
  N     7.725795 -1.729230  0.404435
  N     7.351456  2.296754  0.408281
  N     7.049178 -1.498333  4.268713
  N     6.751984  2.819206  4.278456
  S     6.208396 -1.834166  2.873377
  S     5.968964  2.215183  2.903250
  S     9.243315 -1.217128  0.003520
  S     8.820590  2.884349 -0.064127
  S     8.549031 -0.843725  4.033125
  S     8.253862  3.428817  3.911350
