16  
    
  C     4.716779 -1.974039  1.696408
  C     4.370209  1.383739  1.401068
  C     3.444111 -2.247309  1.110748
  C     3.156403  1.003751  0.717333
  N     5.737216 -2.019485  0.818847
  N     5.365595  1.593886  0.536670
  N     3.505479 -2.527950 -0.210816
  N     3.288097  0.780194 -0.569723
  N     3.038089 -1.834964  3.626297
  N     2.572019  0.724129  3.221360
  S     2.136234 -2.192578  2.285853
  S     1.784997  0.722868  1.753023
  S     5.064055 -2.262712 -0.635532
  S     4.830381  1.295695 -1.016980
  S     4.693240 -1.805583  3.421189
  S     4.172703  1.418480  3.184438
