16  
    
  C    10.464987  0.572641  3.050560
  C    10.569761  4.506293  2.791300
  C     9.271222  0.056733  2.480379
  C     9.345067  4.035029  2.236461
  N    11.417943  0.853745  2.161846
  N    11.633245  4.599640  2.000046
  N     9.361421 -0.106919  1.156277
  N     9.471872  3.746867  0.961540
  N     8.754578  0.496005  4.954067
  N     8.877894  4.552766  4.729185
  S     8.017862 -0.245987  3.675679
  S     8.119728  3.694833  3.511940
  S    10.851105  0.386186  0.685304
  S    11.054726  4.070093  0.510667
  S    10.299254  1.008456  4.688816
  S    10.511858  4.852537  4.449323
