16  
    
  C    12.492739  1.594847  3.376434
  C    12.761532  5.515047  3.423870
  C    11.298072  1.209900  2.705724
  C    11.576787  5.027023  2.708183
  N    13.456764  1.955904  2.533640
  N    13.912162  5.699028  2.691851
  N    11.374335  1.133793  1.344874
  N    11.851258  4.906741  1.404268
  N    10.812283  1.157472  5.246669
  N    10.975637  4.916032  5.264399
  S    10.051630  0.605826  3.797664
  S    10.288738  4.521125  3.783277
  S    12.948467  1.700872  1.006330
  S    13.444309  5.259567  1.157186
  S    12.442117  1.566564  5.127775
  S    12.539904  5.563814  5.128291
