16  
    
  C    12.822883  1.555194  3.543099
  C    12.345357  4.971452  3.475700
  C    11.565640  1.264827  3.005650
  C    11.196928  4.539293  2.665971
  N    13.878521  1.542557  2.725547
  N    13.408506  5.196793  2.689881
  N    11.639618  1.134254  1.698510
  N    11.417691  4.346868  1.400031
  N    10.968117  1.895122  5.406777
  N    10.437672  4.376840  5.147497
  S    10.145278  1.382024  4.058279
  S     9.769872  4.222436  3.577828
  S    13.247727  1.301414  1.248260
  S    12.950833  4.820051  1.143017
  S    12.647686  1.885846  5.327700
  S    11.934521  5.169539  5.166860
