16  
    
  C     6.132872 -1.599864  2.471417
  C     6.601776  2.128439  2.235714
  C     4.981770 -2.182168  1.810555
  C     5.366175  1.673602  1.594361
  N     7.064739 -1.165123  1.644360
  N     7.530653  2.426154  1.333723
  N     5.096346 -2.312846  0.511954
  N     5.462018  1.561219  0.243979
  N     4.455119 -2.300097  4.280946
  N     5.037440  1.632918  4.145104
  S     3.752945 -2.714422  2.825514
  S     4.097951  1.381189  2.795116
  S     6.627571 -1.713933  0.122821
  S     6.993833  2.016645 -0.117194
  S     5.919840 -1.497636  4.217680
  S     6.566265  2.259520  3.965393
