16  
    
  C     3.776821 -2.763113  1.346486
  C     4.069380  1.173963  1.473717
  C     2.674766 -3.489094  0.754927
  C     2.859165  0.607819  0.949456
  N     4.835689 -2.581120  0.532628
  N     5.068836  1.343548  0.603676
  N     2.970367 -3.900913 -0.494817
  N     2.887517  0.425229 -0.364514
  N     2.056152 -2.833214  3.197939
  N     2.384244  1.038997  3.422708
  S     1.313263 -3.522013  1.878935
  S     1.571921  0.517357  2.016446
  S     4.469254 -3.366381 -0.851413
  S     4.452364  0.832427 -0.804533
  S     3.665421 -2.472408  3.038085
  S     3.976212  1.357061  3.216054
