16  
    
  C     7.305517 -1.677413  2.240157
  C     7.432548  2.259079  2.184265
  C     6.065082 -1.914505  1.546407
  C     6.210930  1.773437  1.614630
  N     8.379566 -1.627126  1.447095
  N     8.437336  2.463873  1.327261
  N     6.191455 -2.137535  0.236080
  N     6.377185  1.507205  0.306462
  N     5.428296 -1.970294  4.124817
  N     5.743418  2.208515  4.102633
  S     4.764565 -2.288621  2.666388
  S     4.918692  1.708121  2.743963
  S     7.819120 -1.962452 -0.110277
  S     7.851207  1.957301 -0.159534
  S     7.050556 -1.531534  4.011174
  S     7.390165  2.609951  3.872467
