16  
    
  C    11.348769  0.959720  3.180884
  C    11.457147  4.748498  3.149195
  C    10.143076  0.425683  2.590306
  C    10.268225  4.155932  2.524229
  N    12.285048  1.212300  2.299875
  N    12.528864  4.900059  2.397365
  N    10.231311  0.127609  1.304988
  N    10.517828  3.835835  1.266318
  N     9.639873  0.882100  5.134892
  N     9.672687  4.376534  5.046274
  S     8.921565  0.316961  3.769436
  S     9.004163  3.737986  3.688182
  S    11.715796  0.635215  0.822702
  S    12.049437  4.331416  0.822038
  S    11.241535  1.235275  4.904326
  S    11.178466  5.034575  4.872731
