16  
    
  C     5.930760 -2.202656  1.774393
  C     6.085343  1.618087  1.891421
  C     4.680856 -2.486708  1.125816
  C     4.776080  1.683713  1.341923
  N     7.039578 -2.307939  0.998573
  N     7.013499  1.427336  0.979530
  N     4.797397 -2.672544 -0.206224
  N     4.653595  1.381336  0.053101
  N     4.188827 -2.204732  3.625070
  N     4.533113  2.185921  3.853652
  S     3.372607 -2.527855  2.249181
  S     3.545778  2.057182  2.542937
  S     6.391229 -2.450447 -0.527758
  S     6.242989  1.276820 -0.481599
  S     5.786746 -2.096477  3.527142
  S     6.148000  1.919259  3.599515
