16  
    
  C     6.114572 -1.613879  2.313924
  C     6.597474  2.046186  2.187416
  C     5.175767 -2.495335  1.687218
  C     5.386310  1.659611  1.543375
  N     7.080279 -1.114925  1.497954
  N     7.575712  2.286011  1.352292
  N     5.371294 -2.586290  0.339084
  N     5.389782  1.612492  0.217585
  N     4.387384 -2.210903  4.155356
  N     4.868469  1.883970  4.090647
  S     3.824101 -2.838289  2.676477
  S     4.071517  1.463279  2.676143
  S     6.760921 -1.785220  0.040925
  S     6.983115  1.984391 -0.201323
  S     5.920508 -1.541358  4.062004
  S     6.532216  2.275785  3.910911
