16  
    
  C    11.085407  0.724901  2.842093
  C    11.179222  4.194387  3.295913
  C     9.876717  0.044404  2.337694
  C     9.870649  3.974106  2.698218
  N    12.041821  0.916156  1.943599
  N    12.187359  4.218908  2.427159
  N    10.061358 -0.535246  1.151602
  N     9.893942  4.011396  1.384988
  N     9.403754  0.595055  4.872127
  N     9.400332  4.284271  5.189939
  S     8.682360 -0.240022  3.614711
  S     8.545318  3.965958  3.788948
  S    11.556739  0.067513  0.579200
  S    11.502627  4.140163  0.954305
  S    10.997879  1.047016  4.594779
  S    11.040249  4.446962  4.997651
