16  
    
  C     4.713030 -1.980031  1.692762
  C     4.371406  1.384305  1.397822
  C     3.440738 -2.236011  1.111348
  C     3.154252  1.012577  0.723513
  N     5.739384 -2.024318  0.812318
  N     5.370690  1.603266  0.538207
  N     3.497504 -2.518195 -0.214468
  N     3.287737  0.779405 -0.563791
  N     3.037728 -1.832991  3.624099
  N     2.580244  0.720052  3.221717
  S     2.134832 -2.189515  2.287475
  S     1.793229  0.720431  1.755705
  S     5.060518 -2.264778 -0.640403
  S     4.834150  1.299327 -1.011971
  S     4.692210 -1.804008  3.417779
  S     4.176374  1.424262  3.183824
