16  
    
  C    11.343811  0.639520  2.966499
  C    11.050250  4.454201  3.626165
  C    10.306711  0.048820  2.193194
  C     9.826163  3.988745  3.028119
  N    12.507891  0.876823  2.349327
  N    12.067815  4.501439  2.777989
  N    10.806883 -0.397163  1.031052
  N     9.833093  3.888867  1.717912
  N     9.309280  0.344081  4.602172
  N     9.376465  4.654846  5.479218
  S     8.811421 -0.214811  3.149627
  S     8.490242  4.157765  4.157673
  S    12.318734  0.181125  0.839313
  S    11.396840  4.104714  1.266097
  S    10.899957  0.756121  4.611193
  S    11.002914  5.038923  5.206092
