16  
    
  C     9.744199 -0.147427  2.839044
  C     9.598664  3.871848  2.716025
  C     8.627643 -0.681957  2.107249
  C     8.381127  3.678638  2.011557
  N    10.902659 -0.060282  2.127632
  N    10.682168  3.965415  1.963233
  N     8.838922 -0.824081  0.771456
  N     8.498834  3.528926  0.686559
  N     7.912545 -0.327927  4.572657
  N     7.839252  3.522558  4.579826
  S     7.185546 -0.892357  3.141033
  S     7.094519  3.176897  3.118993
  S    10.454284 -0.377531  0.534558
  S    10.173008  3.644174  0.438280
  S     9.509166  0.049096  4.539674
  S     9.462349  3.828647  4.447141
