16  
    
  C    10.066569 -0.015192  2.666883
  C     9.872724  3.945975  2.739644
  C     8.863421 -0.495556  2.047811
  C     8.985774  2.982087  2.225272
  N    11.005747  0.261829  1.805446
  N    10.871123  4.256008  1.917773
  N     8.912309 -0.679278  0.767982
  N     9.251128  2.587328  0.979764
  N     8.342016 -0.439078  4.589527
  N     8.309975  3.460412  4.732838
  S     7.556709 -0.764234  3.146819
  S     7.810986  2.467376  3.459048
  S    10.434377 -0.228475  0.301935
  S    10.643574  3.377613  0.565089
  S     9.843323  0.157838  4.371249
  S     9.503103  4.570407  4.291471
