16  
    
  C     5.656558 -2.058276  1.744085
  C     5.213595  1.404265  1.709814
  C     4.437424 -2.508993  1.148461
  C     4.082473  0.788361  1.140737
  N     6.614074 -1.806371  0.886945
  N     6.054172  1.952841  0.840453
  N     4.513779 -2.771170 -0.144966
  N     4.161524  0.626565 -0.187016
  N     4.025145 -2.386893  3.764383
  N     3.592218  1.048173  3.658162
  S     3.166638 -2.710226  2.333480
  S     2.751074  0.566476  2.298984
  S     6.064553 -2.409171 -0.560401
  S     5.547884  1.421545 -0.629227
  S     5.572846 -1.808225  3.457043
  S     5.156796  1.487775  3.415370
