16  
    
  C     7.465431 -1.205652  1.929575
  C     7.694756  2.827459  2.144687
  C     6.183238 -1.463088  1.325628
  C     6.501599  2.254365  1.600013
  N     8.495458 -1.007126  1.107234
  N     8.669911  2.941908  1.292604
  N     6.278560 -1.617934  0.018698
  N     6.656449  1.960406  0.323260
  N     5.688616 -1.373875  3.899659
  N     5.975766  2.740489  4.106641
  S     4.943421 -1.872223  2.508538
  S     5.181120  2.137738  2.761070
  S     7.828874 -1.260017 -0.405812
  S     8.077699  2.456060 -0.186141
  S     7.330313 -1.015722  3.669602
  S     7.588943  3.223334  3.780114
