16  
    
  C    12.696865  1.497398  3.601430
  C    12.889643  5.505701  3.741711
  C    11.522467  0.832890  2.963972
  C    11.778050  4.941072  3.051645
  N    13.711087  1.660491  2.731184
  N    13.923749  5.800521  2.931845
  N    11.655689  0.625620  1.640493
  N    11.926627  4.704728  1.740436
  N    10.809323  1.437193  5.349659
  N    11.092319  5.111395  5.478273
  S    10.145749  0.806420  3.991247
  S    10.381289  4.675545  4.041519
  S    13.208694  1.190724  1.228576
  S    13.446404  5.272135  1.428005
  S    12.345814  2.012519  5.219290
  S    12.576704  5.781028  5.473006
