16  
    
  C    10.516741  0.739968  3.026109
  C    10.577874  4.628146  2.791793
  C     9.330042  0.100569  2.476952
  C     9.454613  3.950276  2.217131
  N    11.549511  0.816404  2.165503
  N    11.595082  4.692778  1.935866
  N     9.327172 -0.113789  1.139238
  N     9.553028  3.470154  0.988058
  N     8.787333  0.575774  4.953955
  N     8.832112  4.466635  4.717789
  S     8.035743 -0.137565  3.619174
  S     8.168584  3.689390  3.386860
  S    10.909358  0.319781  0.688923
  S    11.093582  3.875697  0.521863
  S    10.362331  1.133423  4.708629
  S    10.420043  4.949475  4.551147
