16  
    
  C     3.372445 -3.079944  1.096881
  C     3.688584  0.562446  1.365420
  C     2.161587 -3.387958  0.430997
  C     2.481543  0.172893  0.682702
  N     4.400436 -2.878429  0.218712
  N     4.728822  0.799927  0.560490
  N     2.283711 -3.557165 -0.912990
  N     2.659378 -0.047342 -0.612665
  N     1.576715 -3.390791  2.998719
  N     1.900861  0.383836  3.173022
  S     0.815828 -3.554048  1.557050
  S     1.045026  0.128945  1.726003
  S     3.838143 -3.278715 -1.278684
  S     4.257847  0.457955 -0.950601
  S     3.200749 -3.145181  2.830207
  S     3.492689  0.803873  3.112529
