16  
    
  C    10.994176  0.491212  3.238949
  C    11.055609  4.281025  3.363997
  C     9.836896  0.049794  2.504112
  C     9.833596  3.735901  2.794651
  N    11.949417  0.969651  2.440894
  N    12.060377  4.588836  2.515824
  N    10.048587 -0.056460  1.205441
  N     9.888544  3.773004  1.472669
  N     9.134708  0.154951  4.949864
  N     9.341140  4.003365  5.306437
  S     8.412241 -0.170447  3.477704
  S     8.578427  3.501650  3.937252
  S    11.464534  0.722380  0.862953
  S    11.408410  4.214867  1.002728
  S    10.719560  0.617465  4.920661
  S    10.903244  4.528281  5.104848
