16  
    
  C     8.700966 -0.417098  2.425815
  C     8.625718  3.000861  2.586530
  C     7.513031 -0.880305  1.749859
  C     7.380934  2.738281  1.963676
  N     9.818779 -0.355818  1.687142
  N     9.680111  3.167200  1.805829
  N     7.696485 -1.018966  0.422562
  N     7.516375  2.662624  0.651845
  N     6.839524 -0.566314  4.255849
  N     6.795534  2.955546  4.423602
  S     6.148119 -0.967531  2.870964
  S     5.997638  2.485714  3.026204
  S     9.321234 -0.724410  0.139592
  S     9.091989  2.925523  0.214101
  S     8.414320 -0.134751  4.155316
  S     8.431764  3.226717  4.290753
