16  
    
  C    11.537327  1.402096  2.857052
  C    11.446513  5.050808  3.160818
  C    10.356016  0.728125  2.388872
  C    10.343561  4.534116  2.383429
  N    12.466968  1.721249  1.945846
  N    12.559323  5.323427  2.455422
  N    10.474693  0.419291  1.078710
  N    10.551059  4.395495  1.097572
  N    10.216891  0.611097  4.982454
  N     9.673899  4.340313  4.827793
  S     9.367073  0.007788  3.683730
  S     9.013631  3.985228  3.340602
  S    11.950981  0.915009  0.533701
  S    12.082133  4.975989  0.849446
  S    11.494899  1.609368  4.649525
  S    11.211776  5.012092  4.843031
