16  
    
  C    12.632431  1.533697  3.470511
  C    12.901609  5.568121  3.700723
  C    11.461695  0.946603  2.858551
  C    11.713217  5.067556  2.931104
  N    13.604716  1.762526  2.621802
  N    14.000859  5.783133  3.008616
  N    11.548200  0.619546  1.587038
  N    11.980099  4.904044  1.646746
  N    10.807295  1.340325  5.315042
  N    10.873652  5.106497  5.450359
  S    10.169976  0.555077  3.970521
  S    10.369176  4.547678  3.917149
  S    13.079338  1.198909  1.148066
  S    13.560691  5.330483  1.385238
  S    12.380141  1.918279  5.148712
  S    12.488924  5.692019  5.397599
