16  
    
  C    12.588774  1.596197  3.788255
  C    12.412739  4.989117  3.438085
  C    11.364421  1.262593  3.128165
  C    11.208050  4.633224  2.812668
  N    13.601066  1.732361  2.918801
  N    13.496512  5.160852  2.556670
  N    11.451652  1.079846  1.797297
  N    11.288712  4.400462  1.518660
  N    10.884772  1.142300  5.679910
  N    10.495407  4.993768  5.242470
  S    10.045420  1.217644  4.218219
  S     9.808789  4.371595  3.837455
  S    13.061394  1.313795  1.468278
  S    12.849340  4.783853  1.081028
  S    12.457945  1.786273  5.544147
  S    12.149775  5.162467  5.165964
