16  
    
  C     5.808068 -2.085781  1.676307
  C     5.251953  1.412976  1.708698
  C     4.521034 -2.515887  1.110833
  C     3.986146  0.928503  1.142344
  N     6.768486 -2.008659  0.746403
  N     6.189594  1.594998  0.775636
  N     4.520103 -2.751632 -0.209403
  N     4.101842  0.609291 -0.147946
  N     4.234014 -2.321072  3.660185
  N     3.586960  1.203520  3.659095
  S     3.258381 -2.639497  2.348000
  S     2.790875  0.628692  2.316637
  S     6.046334 -2.390682 -0.728229
  S     5.587471  1.073903 -0.659277
  S     5.783982 -1.823698  3.392937
  S     5.179617  1.550163  3.491205
