16  
    
  C     9.744961 -0.614112  2.730379
  C     9.651128  3.233784  2.626106
  C     8.498068 -1.037922  2.113089
  C     8.337621  3.125208  1.943679
  N    10.772190 -0.547544  1.868283
  N    10.679614  3.433567  1.775302
  N     8.494251 -1.071062  0.776103
  N     8.458082  3.076793  0.620581
  N     7.924227 -0.539732  4.576298
  N     7.756223  2.915104  4.419571
  S     7.109579 -0.949519  3.190078
  S     6.995955  3.011496  2.972275
  S    10.094506 -0.709530  0.350708
  S    10.028624  3.344220  0.216574
  S     9.590013 -0.376924  4.429337
  S     9.439534  3.236995  4.366921
