16  
    
  C     3.223625 -2.820772  1.606864
  C     3.640713  0.618737  1.440050
  C     2.097978 -3.197066  0.781521
  C     2.366273  0.358816  0.812005
  N     4.298298 -2.451345  0.925687
  N     4.570244  0.952530  0.555373
  N     2.379229 -3.219185 -0.541491
  N     2.343950  0.372103 -0.520934
  N     1.394702 -3.536352  3.266707
  N     1.924712  0.128519  3.277231
  S     0.709780 -3.702391  1.790158
  S     1.048303 -0.026360  1.901954
  S     3.961375 -2.780849 -0.664079
  S     3.933346  0.830634 -0.933931
  S     2.933762 -3.043181  3.294587
  S     3.523756  0.673935  3.185499
