16  
    
  C     5.472371 -2.213075  1.949160
  C     5.245175  1.566038  1.706757
  C     4.282300 -2.643065  1.216104
  C     4.149758  0.983058  0.940765
  N     6.493872 -1.863225  1.146697
  N     6.210201  2.044286  0.937715
  N     4.418677 -2.753490 -0.130310
  N     4.354719  1.072280 -0.385372
  N     3.651603 -2.570080  3.756456
  N     3.485875  0.879892  3.458869
  S     2.930763 -2.973848  2.281333
  S     2.988528  0.248222  1.994457
  S     5.968348 -2.222064 -0.412314
  S     5.784732  1.829611 -0.616826
  S     5.278078 -1.982572  3.631542
  S     5.006270  1.567307  3.470787
