16  
    
  C     7.125846 -1.620038  1.926907
  C     7.051315  2.068727  2.005833
  C     5.969383 -2.098238  1.192256
  C     5.795611  1.757119  1.302978
  N     8.218488 -1.429145  1.188611
  N     8.046206  2.343405  1.193792
  N     6.180555 -2.205277 -0.133416
  N     5.885849  1.613837 -0.012795
  N     5.252038 -1.790862  3.714559
  N     5.220149  1.694383  3.834617
  S     4.544695 -2.147991  2.260338
  S     4.473118  1.489481  2.351785
  S     7.768776 -1.855892 -0.400694
  S     7.506234  1.983400 -0.434733
  S     6.874811 -1.291002  3.630465
  S     6.880060  2.140451  3.745317
