16  
    
  C    10.043672 -0.074507  2.989614
  C    10.331295  3.524190  3.152149
  C     8.852458 -0.418227  2.219383
  C     9.064503  3.725542  2.439514
  N    11.135758  0.166296  2.205001
  N    11.331395  3.538366  2.294280
  N     9.001535 -0.377914  0.883253
  N     9.129844  3.905852  1.117475
  N     8.098576 -0.519720  4.618024
  N     8.496340  3.561799  4.910932
  S     7.473409 -0.774252  3.092425
  S     7.726837  3.994791  3.514012
  S    10.609246 -0.027355  0.600352
  S    10.765830  3.772745  0.745743
  S     9.751163 -0.345885  4.680068
  S    10.134587  3.448917  4.901523
