16  
    
  C     7.093891 -1.236768  2.273810
  C     7.108927  2.247642  2.083812
  C     5.867048 -1.696158  1.604366
  C     5.873748  1.775998  1.469046
  N     8.131050 -1.168041  1.470664
  N     8.201169  2.271167  1.319706
  N     6.001903 -1.976252  0.322925
  N     5.990894  1.582416  0.173216
  N     5.389152 -1.710801  4.106829
  N     5.373265  1.949740  3.955275
  S     4.521071 -2.010900  2.698849
  S     4.537315  1.647962  2.542116
  S     7.547057 -1.623424 -0.056452
  S     7.588632  1.919008 -0.296949
  S     6.989501 -1.282385  3.986300
  S     6.889106  2.594135  3.786921
