16  
    
  C     6.239999 -1.693115  1.616835
  C     6.424456  1.935650  1.868413
  C     5.046682 -2.273972  0.959712
  C     5.138074  1.742149  1.199959
  N     7.208958 -1.515581  0.751989
  N     7.477118  1.966579  1.040328
  N     5.204541 -2.750959 -0.250751
  N     5.325289  1.699645 -0.119871
  N     4.407143 -1.794722  3.411866
  N     4.538184  2.016442  3.652176
  S     3.673044 -2.438389  2.079620
  S     3.741960  1.604983  2.233032
  S     6.683059 -2.107510 -0.743900
  S     6.877208  1.874670 -0.481498
  S     5.990294 -1.328765  3.293191
  S     6.199299  2.066883  3.609951
