16  
    
  C     5.912904 -2.156253  1.799615
  C     5.601302  1.141479  1.762781
  C     4.641528 -2.486377  1.206160
  C     4.380456  0.751477  1.148335
  N     6.875736 -1.988873  0.883392
  N     6.629963  1.265085  0.907059
  N     4.619395 -2.478824 -0.147841
  N     4.442882  0.491921 -0.151891
  N     4.317991 -2.358954  3.727507
  N     3.754490  1.232268  3.598895
  S     3.396408 -2.581953  2.419753
  S     2.994400  0.726933  2.247896
  S     6.194543 -2.327526 -0.580299
  S     6.034467  0.785745 -0.595555
  S     5.893235 -2.106903  3.508481
  S     5.391721  1.535443  3.447521
