16  
    
  C     3.854606 -2.774890  1.406823
  C     4.112955  1.249068  1.502242
  C     2.729388 -3.432006  0.811438
  C     2.868079  0.738448  0.926880
  N     4.933009 -2.689900  0.675685
  N     5.126320  1.306826  0.636816
  N     2.961239 -3.860489 -0.414548
  N     2.925762  0.520124 -0.380665
  N     2.054000 -2.779639  3.209524
  N     2.333630  1.133643  3.436968
  S     1.385317 -3.506986  1.851892
  S     1.530205  0.565874  2.075385
  S     4.468760 -3.317046 -0.813485
  S     4.459928  0.878095 -0.836420
  S     3.704108 -2.438714  3.091027
  S     4.040352  1.416910  3.206977
