16  
    
  C     7.245140 -1.406629  2.252704
  C     7.691612  2.798185  2.340660
  C     6.234175 -2.111051  1.479122
  C     6.522393  2.341243  1.625221
  N     8.223134 -0.869337  1.514317
  N     8.738118  2.911921  1.559733
  N     6.469993 -2.191934  0.171856
  N     6.625728  2.289160  0.320824
  N     5.443762 -2.096697  3.970798
  N     6.041291  2.284746  4.125882
  S     4.840648 -2.540452  2.457487
  S     5.223932  2.018220  2.712051
  S     7.846508 -1.289928 -0.062502
  S     8.197140  2.714524 -0.049239
  S     6.892062 -1.402700  4.000714
  S     7.509107  2.971489  4.058335
