16  
    
  C     8.207328 -0.815366  2.481906
  C     8.213228  2.996367  2.346878
  C     7.027147 -1.412483  1.908219
  C     7.027930  2.378273  1.723033
  N     9.304011 -0.783728  1.654672
  N     9.222320  3.277654  1.513843
  N     7.175496 -1.631332  0.580241
  N     7.178355  2.118355  0.407630
  N     6.393888 -0.815017  4.381866
  N     6.430501  2.732421  4.166871
  S     5.674112 -1.451771  3.021432
  S     5.670460  2.091753  2.814163
  S     8.761284 -1.326263  0.169081
  S     8.743848  2.702437  0.050579
  S     7.956401 -0.427211  4.135601
  S     7.949289  3.291184  4.058676
