16  
    
  C     8.993447 -0.357741  2.560573
  C     9.238027  3.487719  2.835851
  C     7.783298 -0.816314  1.919536
  C     8.000902  3.142819  2.144067
  N     9.984024 -0.141489  1.672452
  N    10.271752  3.596643  2.006293
  N     7.813742 -0.898782  0.564806
  N     8.150081  3.018189  0.828450
  N     7.440546 -0.908407  4.420299
  N     7.511148  3.408052  4.682777
  S     6.479194 -1.100098  3.061813
  S     6.746857  2.982323  3.296952
  S     9.351063 -0.457373  0.183814
  S     9.742120  3.197346  0.486791
  S     9.016678 -0.349804  4.281953
  S     9.095369  3.786767  4.484148
