16  
    
  C     3.224715 -2.788237  1.605665
  C     3.637068  0.665302  1.457399
  C     2.109163 -3.199438  0.783291
  C     2.381116  0.389156  0.815901
  N     4.300459 -2.411412  0.944127
  N     4.567625  0.995210  0.572008
  N     2.370195 -3.300455 -0.500588
  N     2.358898  0.357148 -0.509315
  N     1.393098 -3.525218  3.297555
  N     1.952740  0.139785  3.287603
  S     0.718879 -3.725322  1.796371
  S     1.072954 -0.025303  1.914330
  S     3.954598 -2.744328 -0.680915
  S     3.927485  0.845524 -0.938847
  S     2.926489 -3.018031  3.322150
  S     3.521095  0.661473  3.169680
