16  
    
  C     6.112549 -1.944885  1.666627
  C     6.219170  1.933713  1.860408
  C     4.856808 -2.337701  1.049137
  C     4.953370  1.827946  1.149683
  N     7.190107 -2.092520  0.902555
  N     7.252010  1.790165  1.040531
  N     4.992888 -2.664635 -0.233412
  N     5.056383  1.643180 -0.153971
  N     4.286011 -2.011846  3.608765
  N     4.404691  1.725187  3.692655
  S     3.580973 -2.514409  2.154197
  S     3.588843  1.993330  2.237383
  S     6.559637 -2.422085 -0.604886
  S     6.682553  1.672152 -0.513046
  S     5.931156 -1.637242  3.391837
  S     6.078844  1.853110  3.575553
