16  
    
  C    11.339189  0.638507  2.994892
  C    11.064787  4.411027  3.594678
  C    10.289468  0.061824  2.192115
  C     9.771365  4.010812  3.044830
  N    12.522466  0.864715  2.331131
  N    12.095820  4.474323  2.746680
  N    10.775816 -0.414381  1.016481
  N     9.841552  3.898036  1.735208
  N     9.307192  0.360887  4.595669
  N     9.371501  4.687099  5.452721
  S     8.829420 -0.254009  3.128000
  S     8.489345  4.169570  4.148013
  S    12.289184  0.157737  0.862256
  S    11.383599  4.117567  1.262384
  S    10.897007  0.743604  4.630590
  S    11.005141  5.005150  5.213567
