16  
    
  C     5.417212 -2.104916  1.893717
  C     5.302499  1.593492  1.681952
  C     4.263061 -2.618657  1.250297
  C     4.237106  0.968447  0.943414
  N     6.515245 -1.976209  1.109475
  N     6.304771  2.117530  0.985904
  N     4.421389 -2.726489 -0.087135
  N     4.415442  0.970667 -0.362742
  N     3.677715 -2.631150  3.682316
  N     3.460437  0.890676  3.366577
  S     2.948082 -3.017124  2.254637
  S     2.885441  0.361078  1.898261
  S     5.972028 -2.229187 -0.430114
  S     5.841580  1.833188 -0.638572
  S     5.199613 -2.097669  3.619964
  S     4.968194  1.574384  3.385971
