16  
    
  C     5.566234 -2.118916  1.871282
  C     5.262196  1.601048  1.728378
  C     4.378732 -2.647163  1.230357
  C     4.108526  1.016082  1.123754
  N     6.589373 -1.822957  1.084333
  N     6.183144  2.055388  0.864917
  N     4.513867 -2.903077 -0.044048
  N     4.221662  0.960946 -0.198397
  N     3.732724 -2.440190  3.798986
  N     3.584858  0.860910  3.554667
  S     3.031853 -2.804407  2.341027
  S     2.947331  0.232630  2.137542
  S     5.978964 -2.217809 -0.461091
  S     5.591552  1.663831 -0.613233
  S     5.323630 -1.853054  3.583094
  S     5.074627  1.531755  3.467862
