16  
    
  C     7.182785 -1.427330  2.209144
  C     7.167756  2.233950  2.067670
  C     5.958871 -1.882201  1.598786
  C     5.944313  1.706809  1.493733
  N     8.180041 -1.117062  1.397534
  N     8.221130  2.355014  1.262098
  N     6.096592 -2.107178  0.295684
  N     5.991133  1.544847  0.174728
  N     5.376553 -1.283582  4.100835
  N     5.514903  1.973447  3.973017
  S     4.649907 -1.989118  2.793076
  S     4.666627  1.611249  2.617569
  S     7.637667 -1.692514 -0.123172
  S     7.600565  1.818350 -0.275483
  S     6.975816 -1.139625  3.962508
  S     7.030601  2.504084  3.751887
