16  
    
  C    11.027870  0.526049  3.277152
  C    11.164837  4.196670  3.123216
  C     9.843247  0.157770  2.528496
  C     9.919716  3.766623  2.549480
  N    12.051594  0.875486  2.483253
  N    12.224731  4.327718  2.341206
  N    10.053147  0.046153  1.208267
  N    10.014094  3.725304  1.215396
  N     9.294972 -0.073801  5.058653
  N     9.563367  3.814082  5.086794
  S     8.535079 -0.260569  3.629038
  S     8.707877  3.453887  3.720542
  S    11.594458  0.531697  0.940739
  S    11.534328  4.155827  0.750979
  S    10.768624  0.697152  4.996594
  S    11.114703  4.392683  4.890860
