16  
    
  C    11.581083  1.410637  2.851914
  C    11.457055  5.068903  3.162574
  C    10.385470  0.727681  2.359168
  C    10.386474  4.484017  2.396927
  N    12.521208  1.600023  1.929924
  N    12.508870  5.340760  2.420732
  N    10.473785  0.443631  1.084950
  N    10.598847  4.444514  1.075231
  N    10.200097  0.620167  4.998889
  N     9.709970  4.403483  4.834506
  S     9.382993  0.004255  3.658746
  S     9.060235  4.012784  3.370077
  S    11.945779  0.929255  0.462470
  S    12.126678  4.963635  0.847969
  S    11.503702  1.612177  4.618585
  S    11.260362  4.984815  4.873484
