16  
    
  C     8.343216 -0.879027  2.456262
  C     8.101322  2.676578  2.318443
  C     7.125126 -1.555800  2.044518
  C     6.968578  2.232620  1.591609
  N     9.312128 -0.901769  1.531594
  N     9.182949  2.860471  1.567660
  N     7.124528 -2.008509  0.766689
  N     7.235815  1.980990  0.308634
  N     6.840518 -0.710120  4.464516
  N     6.245837  2.817502  3.932479
  S     5.922215 -1.386755  3.247302
  S     5.608105  2.053649  2.639092
  S     8.640961 -1.606492  0.212175
  S     8.771625  2.445152  0.002632
  S     8.435575 -0.439622  4.135163
  S     7.870754  3.079267  3.983128
