16  
    
  C     9.941130 -0.200710  2.990242
  C    10.167211  3.500224  2.922218
  C     8.811535 -0.564513  2.238448
  C     8.880936  3.709138  2.361448
  N    11.024839  0.151015  2.251128
  N    11.200785  3.521784  2.103408
  N     8.991922 -0.636448  0.909596
  N     8.871491  3.874609  1.030866
  N     8.053029 -0.608845  4.686673
  N     8.536476  3.465728  4.978478
  S     7.435846 -0.998352  3.204497
  S     7.605492  3.714323  3.591907
  S    10.538531 -0.128926  0.700016
  S    10.541152  3.665779  0.574182
  S     9.625479 -0.199125  4.666275
  S    10.209771  3.292465  4.628875
