16  
    
  C     8.377816 -0.854731  2.456269
  C     8.197673  2.513628  2.120528
  C     7.112356 -1.307919  1.940198
  C     7.029668  2.171908  1.330564
  N     9.459150 -0.930971  1.640463
  N     9.347810  2.642858  1.451025
  N     7.177156 -1.532671  0.612551
  N     7.349888  1.962934  0.058354
  N     6.675996 -0.583868  4.310320
  N     6.369798  2.095010  3.769655
  S     5.783701 -1.269460  3.061916
  S     5.598412  1.940469  2.331636
  S     8.777995 -1.430250  0.200997
  S     9.001783  2.142186 -0.136660
  S     8.356880 -0.472045  4.104721
  S     7.879272  2.665042  3.789624
