16  
    
  C     7.231879 -1.398464  2.285292
  C     7.748169  2.799926  2.284361
  C     6.085093 -1.817124  1.489175
  C     6.587101  2.278349  1.610733
  N     8.240693 -0.902580  1.536752
  N     8.763745  2.958921  1.471155
  N     6.316208 -1.884889  0.150783
  N     6.718067  2.116921  0.301210
  N     5.339586 -1.815100  3.922828
  N     6.020266  2.508640  4.193042
  S     4.689219 -2.135893  2.417174
  S     5.292262  2.059221  2.755245
  S     7.798019 -1.168481 -0.013880
  S     8.261818  2.568476 -0.093598
  S     6.945443 -1.201780  3.965069
  S     7.585695  3.124873  4.007334
