16  
    
  C    12.058878  1.337290  3.315198
  C    12.259628  5.052837  3.499928
  C    10.882918  0.959190  2.606373
  C    10.997113  4.711846  2.973551
  N    13.135317  1.407199  2.532877
  N    13.338899  5.145517  2.682070
  N    11.089750  0.517186  1.358828
  N    11.050274  4.566358  1.664764
  N    10.294911  1.303646  5.123638
  N    10.548563  5.265612  5.402165
  S     9.570767  0.843678  3.707463
  S     9.658600  4.736747  4.096130
  S    12.721610  0.837104  1.059375
  S    12.680113  4.806375  1.189922
  S    11.902970  1.623197  5.036501
  S    12.168011  5.498183  5.163353
