16  
    
  C    11.352573  1.283026  3.177698
  C    11.409062  4.852096  2.894049
  C    10.123089  0.625575  2.665406
  C    10.261286  4.221765  2.265531
  N    12.336437  1.392481  2.325142
  N    12.339392  5.247986  2.038517
  N    10.196134  0.520703  1.339153
  N    10.458684  4.035736  0.960775
  N     9.855077  0.748545  5.182103
  N     9.591620  4.616522  4.793209
  S     8.972707  0.095915  3.905611
  S     8.995750  3.914754  3.397584
  S    11.704368  0.998959  0.817604
  S    11.944808  4.660894  0.549942
  S    11.355728  1.388810  4.889777
  S    11.204288  5.051944  4.668624
