16  
    
  C    11.788459  1.125109  3.364061
  C    11.885642  5.003188  3.256669
  C    10.627937  0.642845  2.730737
  C    10.669923  4.522212  2.662685
  N    12.818324  1.239723  2.568091
  N    12.926944  5.045777  2.440147
  N    10.741936  0.242557  1.471831
  N    10.843509  4.146908  1.414512
  N     9.944028  0.998613  5.151034
  N    10.183889  4.973427  5.211946
  S     9.203077  0.588828  3.734696
  S     9.428677  4.409058  3.833817
  S    12.308585  0.637096  1.082812
  S    12.464546  4.485754  0.998219
  S    11.503231  1.478138  5.034408
  S    11.790273  5.466369  4.992606
