16  
    
  C     9.021017 -0.523781  2.484385
  C     9.516425  3.480353  2.677892
  C     7.899503 -0.923344  1.665689
  C     8.243499  3.165493  2.098512
  N    10.170698 -0.427769  1.769649
  N    10.582566  3.413902  1.869577
  N     8.216839 -1.204127  0.376569
  N     8.284294  2.850567  0.775224
  N     7.076411 -0.552554  4.061380
  N     7.828144  3.777869  4.601046
  S     6.427972 -1.044150  2.619327
  S     6.996613  3.380466  3.248803
  S     9.835350 -0.896137  0.209355
  S     9.961907  2.880085  0.466109
  S     8.689188 -0.177615  4.113321
  S     9.463888  3.856380  4.409158
