16  
    
  C     7.321395 -1.017445  2.055195
  C     7.714830  2.797746  2.126380
  C     6.155902 -1.512281  1.381275
  C     6.468613  2.276956  1.569667
  N     8.361194 -0.966494  1.218263
  N     8.712550  2.934626  1.267856
  N     6.220346 -1.621826  0.045536
  N     6.491536  1.954407  0.286865
  N     5.688565 -1.544281  3.841352
  N     6.010117  2.786664  4.103362
  S     4.840528 -1.919506  2.433650
  S     5.255197  2.084273  2.789716
  S     7.825462 -1.317893 -0.296523
  S     8.114168  2.452967 -0.196135
  S     7.301365 -1.091847  3.752478
  S     7.567310  3.204856  3.875421
