16  
    
  C     7.153970 -1.590036  1.852433
  C     6.990609  2.129646  1.937700
  C     5.976201 -2.111811  1.195824
  C     5.784581  1.718061  1.277892
  N     8.241150 -1.542994  1.065271
  N     8.022396  2.286645  1.118800
  N     6.167826 -2.309429 -0.126126
  N     5.886701  1.600890 -0.039052
  N     5.323936 -1.805047  3.662980
  N     5.289439  1.623401  3.837602
  S     4.568847 -2.183800  2.213346
  S     4.458985  1.451401  2.366956
  S     7.747136 -1.879932 -0.469672
  S     7.408126  2.010840 -0.407575
  S     6.872770 -1.260163  3.567112
  S     6.889591  2.107824  3.712859
