16  
    
  C     9.864369 -0.178784  2.916671
  C    10.181866  3.519113  2.813917
  C     8.738315 -0.627133  2.204643
  C     8.873711  3.435525  2.245611
  N    10.977488  0.102333  2.190457
  N    11.093845  3.637630  1.860186
  N     8.904928 -0.717158  0.860766
  N     8.712065  3.378297  0.929119
  N     8.172723 -0.765836  4.709974
  N     8.591905  3.282898  4.849186
  S     7.387354 -0.849605  3.265108
  S     7.621507  3.337618  3.461864
  S    10.535780 -0.286002  0.622850
  S    10.340832  3.582582  0.390513
  S     9.721575 -0.177177  4.652400
  S    10.243030  3.720134  4.596757
