16  
    
  C     5.781899 -2.045089  1.676938
  C     5.238455  1.428494  1.716126
  C     4.514776 -2.510514  1.121338
  C     4.006925  0.918026  1.139025
  N     6.781573 -2.009385  0.768565
  N     6.169677  1.617569  0.778387
  N     4.510194 -2.766197 -0.214596
  N     4.114255  0.594514 -0.145684
  N     4.222854 -2.323900  3.643360
  N     3.595074  1.200383  3.660472
  S     3.246539 -2.648524  2.360722
  S     2.780413  0.629169  2.311172
  S     6.049178 -2.392358 -0.722567
  S     5.573805  1.108923 -0.655315
  S     5.764605 -1.826828  3.395359
  S     5.176188  1.539369  3.483785
