16  
    
  C     7.224966 -1.400665  2.262450
  C     7.789293  2.771171  2.292426
  C     6.090431 -1.860595  1.496157
  C     6.597647  2.285294  1.613658
  N     8.234516 -0.917784  1.570048
  N     8.784231  3.002659  1.471545
  N     6.308903 -1.865021  0.188225
  N     6.687771  2.103197  0.307273
  N     5.340183 -1.805672  3.943631
  N     6.026543  2.497405  4.226648
  S     4.705242 -2.169014  2.407136
  S     5.281101  2.060242  2.735529
  S     7.796870 -1.163883  0.005957
  S     8.289217  2.578749 -0.079033
  S     6.911599 -1.209421  3.967449
  S     7.584677  3.112446  4.021480
