16  
    
  C     9.945943 -0.171629  2.956247
  C    10.284285  3.443680  3.060067
  C     8.824107 -0.623118  2.150938
  C     9.008101  3.759287  2.445204
  N    11.026568  0.099892  2.287325
  N    11.303394  3.494537  2.192081
  N     9.026014 -0.517870  0.859129
  N     8.977737  3.824198  1.124403
  N     8.092464 -0.632760  4.645367
  N     8.529642  3.557858  4.941399
  S     7.365609 -0.900834  3.161783
  S     7.690342  3.909644  3.550657
  S    10.627501 -0.006559  0.675303
  S    10.632522  3.793089  0.697849
  S     9.702190 -0.195532  4.706884
  S    10.129452  3.250292  4.756683
