16  
    
  C    10.248200  0.393686  2.600382
  C    10.574904  4.307195  2.883943
  C     9.056423 -0.174978  1.964651
  C     9.326677  3.770026  2.321690
  N    11.302180  0.607441  1.778422
  N    11.586576  4.272242  2.020215
  N     9.326699 -0.581439  0.699378
  N     9.394997  3.489635  1.000630
  N     8.334297  0.561352  4.369947
  N     8.934915  4.161343  4.895166
  S     7.611314 -0.191822  3.045152
  S     8.039962  3.847040  3.544819
  S    10.832066  0.020473  0.304461
  S    10.970718  3.756447  0.576424
  S     9.957218  0.915586  4.237942
  S    10.525918  4.629506  4.582856
