16  
    
  C    11.242297  0.424741  3.029127
  C    11.127955  4.491095  3.429723
  C    10.114748 -0.204768  2.350781
  C     9.839395  4.220137  2.830757
  N    12.322393  0.582937  2.270807
  N    12.135696  4.384441  2.594385
  N    10.396464 -0.428623  1.064983
  N     9.878079  3.955970  1.516801
  N     9.434807  0.373343  4.772807
  N     9.463104  4.125580  5.314218
  S     8.742771 -0.330384  3.422345
  S     8.535813  4.348558  3.981037
  S    11.909842  0.117075  0.750284
  S    11.439822  4.023269  1.083942
  S    10.948317  1.034411  4.625146
  S    11.088531  4.601266  5.092305
