16  
    
  C     7.125560 -1.367508  2.251165
  C     7.160331  2.194625  2.061123
  C     5.922677 -1.795032  1.597670
  C     5.924438  1.763769  1.450779
  N     8.119526 -1.107748  1.374763
  N     8.164562  2.298298  1.209895
  N     6.061340 -2.087354  0.282987
  N     5.961838  1.551793  0.145506
  N     5.347857 -1.408012  4.127715
  N     5.464159  1.935927  3.970125
  S     4.619391 -1.974957  2.773660
  S     4.655515  1.621809  2.574487
  S     7.633085 -1.668649 -0.073605
  S     7.571181  1.859025 -0.240837
  S     7.008572 -1.203780  3.940177
  S     6.996709  2.557042  3.788097
