16  
    
  C    11.987121  1.478966  3.559483
  C    11.906134  4.976797  3.785002
  C    10.959170  0.727003  2.905862
  C    10.673587  4.472369  3.153188
  N    12.924845  1.915106  2.722787
  N    12.822340  5.350436  2.880486
  N    11.015020  0.758545  1.587970
  N    10.664539  4.372530  1.849692
  N    10.453548  0.581645  5.450928
  N    10.405110  4.303213  5.738654
  S     9.699492  0.244556  3.984399
  S     9.529506  3.866085  4.396808
  S    12.426119  1.573224  1.195825
  S    12.157640  4.984735  1.379821
  S    11.954095  1.417802  5.384005
  S    11.882922  5.025244  5.491559
