16  
    
  C    10.018040 -0.234701  2.878279
  C    10.094124  3.795731  2.704374
  C     8.718968 -0.510813  2.157504
  C     8.842478  3.200836  2.232242
  N    11.023485 -0.016303  2.071609
  N    11.047026  3.953214  1.805931
  N     8.888180 -0.713483  0.876645
  N     8.806565  2.966684  0.900199
  N     8.198855 -0.521328  4.714193
  N     8.595920  3.527496  4.826261
  S     7.362238 -0.801193  3.253421
  S     7.653212  2.945666  3.547100
  S    10.472475 -0.286008  0.511518
  S    10.404459  3.451730  0.378459
  S     9.848550 -0.181943  4.621969
  S    10.164170  3.921383  4.373775
