16  
    
  C    10.281301  0.648386  2.988354
  C    10.698547  4.518147  2.878212
  C     9.192086 -0.021219  2.384972
  C     9.463496  4.108535  2.288545
  N    11.231488  1.039721  2.132238
  N    11.640373  4.731095  1.960931
  N     9.305381 -0.204894  1.069096
  N     9.415396  4.076035  0.952973
  N     8.720643  0.065353  4.963472
  N     9.070299  4.000743  4.828876
  S     7.969719 -0.428772  3.559001
  S     8.155024  3.932766  3.442965
  S    10.736254  0.482282  0.661138
  S    10.986600  4.453787  0.501556
  S    10.261818  0.648489  4.731097
  S    10.664504  4.435491  4.615474
