16  
    
  C    11.104930  0.485437  3.133267
  C    11.119102  4.276310  2.987264
  C     9.872470  0.013246  2.484090
  C     9.953739  3.720576  2.355736
  N    12.057496  0.802900  2.286917
  N    12.137650  4.507133  2.161268
  N     9.950455 -0.256128  1.187530
  N    10.070193  3.508266  1.044169
  N     9.314162  0.343861  4.996910
  N     9.185036  4.149140  4.750826
  S     8.597889 -0.186562  3.586359
  S     8.580378  3.395921  3.398616
  S    11.449658  0.395666  0.757880
  S    11.618322  3.987125  0.638521
  S    10.931372  0.674765  4.920883
  S    10.818418  4.515616  4.733627
