16  
    
  C    10.668789  0.737908  2.948010
  C    10.645261  4.398664  2.795719
  C     9.445141  0.240306  2.332810
  C     9.588014  3.580453  2.220322
  N    11.692252  0.816721  2.108904
  N    11.717399  4.565839  2.012380
  N     9.633570 -0.257179  1.093807
  N     9.890007  3.179814  0.991904
  N     8.974545  0.734717  4.820999
  N     8.750116  4.469513  4.555357
  S     8.144771  0.264198  3.477503
  S     8.295021  3.383444  3.363571
  S    11.195151  0.160167  0.684377
  S    11.433573  3.807784  0.651057
  S    10.546910  1.231271  4.594788
  S    10.275950  5.088323  4.384157
