16  
    
  C    10.294140  0.666795  2.994747
  C    10.717043  4.500276  2.878674
  C     9.209214 -0.033110  2.398130
  C     9.470658  4.106615  2.290285
  N    11.250260  1.048402  2.125488
  N    11.654922  4.713931  1.943560
  N     9.294396 -0.208150  1.070104
  N     9.418846  4.058682  0.963519
  N     8.722634  0.065812  4.966393
  N     9.062922  4.017365  4.833191
  S     7.966321 -0.418803  3.562049
  S     8.153231  3.929418  3.441339
  S    10.737824  0.473700  0.662624
  S    10.971686  4.453145  0.499164
  S    10.259185  0.656178  4.729493
  S    10.653616  4.456520  4.615648
