16  
    
  C    10.172642  0.576512  2.660010
  C    10.746565  4.259792  2.866866
  C     8.998591 -0.015683  2.017151
  C     9.442093  3.936599  2.289377
  N    11.186146  0.701357  1.815520
  N    11.668313  4.252505  1.919471
  N     9.150529 -0.293473  0.729391
  N     9.397454  3.640735  0.990533
  N     8.324093  0.514877  4.418464
  N     8.973627  4.175306  4.751624
  S     7.747538 -0.343492  3.134734
  S     8.158202  3.672792  3.381301
  S    10.698110  0.068390  0.376284
  S    10.989375  3.824985  0.484900
  S     9.960862  0.843356  4.364727
  S    10.560951  4.675014  4.574080
