16  
    
  C     6.029633 -2.255026  1.730140
  C     6.092184  1.658755  1.842129
  C     4.755160 -2.453949  1.101760
  C     4.798122  1.782690  1.218762
  N     7.079944 -2.262127  0.948456
  N     7.096498  1.434429  0.992441
  N     4.876511 -2.813013 -0.151351
  N     4.755589  1.655960 -0.107211
  N     4.264334 -2.115945  3.592114
  N     4.450366  2.080918  3.778581
  S     3.468759 -2.466806  2.234795
  S     3.517713  1.939913  2.391015
  S     6.476352 -2.494047 -0.572990
  S     6.403872  1.493634 -0.545802
  S     5.893489 -2.010516  3.483326
  S     6.082254  1.889699  3.557994
