16  
    
  C    10.892881  0.637957  2.956838
  C    10.786986  4.460308  2.793424
  C     9.662698  0.152065  2.402992
  C     9.676532  3.752418  2.215332
  N    11.906261  0.582285  2.083914
  N    11.882447  4.589399  2.029553
  N     9.747449 -0.096100  1.106881
  N     9.974945  3.271419  1.017492
  N     9.043644  0.655394  4.833330
  N     8.755702  4.352304  4.464180
  S     8.277884  0.221643  3.436242
  S     8.407897  3.286379  3.231340
  S    11.277557  0.093617  0.626660
  S    11.490658  3.730502  0.652469
  S    10.611260  1.198504  4.593643
  S    10.292884  5.012281  4.417642
