16  
    
  C     8.400648 -1.016864  2.502264
  C     8.160150  2.620192  2.269459
  C     7.147278 -1.484507  2.082276
  C     7.006307  2.100383  1.553358
  N     9.313353 -0.854341  1.514882
  N     9.240849  2.803062  1.520644
  N     7.138010 -2.017582  0.847193
  N     7.155275  1.980752  0.221324
  N     6.835955 -0.697064  4.438359
  N     6.207301  2.825926  3.976350
  S     5.940876 -1.371894  3.236094
  S     5.563841  2.055517  2.549419
  S     8.608512 -1.599270  0.223284
  S     8.818007  2.393898 -0.035250
  S     8.444556 -0.446456  4.100771
  S     7.903266  2.999205  3.970413
