16  
    
  C    10.094152 -0.190429  2.849927
  C    10.371844  3.857273  3.121681
  C     8.890091 -0.380120  2.151061
  C     9.094039  3.923503  2.479426
  N    11.194889  0.025283  2.177904
  N    11.435937  3.629170  2.353086
  N     9.033247 -0.351356  0.845130
  N     9.216684  3.967157  1.169623
  N     8.268290 -0.526024  4.679945
  N     8.539720  3.756226  4.953481
  S     7.507835 -0.620020  3.205383
  S     7.662295  3.899836  3.527040
  S    10.681912  0.020983  0.568152
  S    10.819830  3.667798  0.808087
  S     9.898274 -0.290441  4.525517
  S    10.155747  3.782146  4.806118
