16  
    
  C     7.807428 -0.718317  1.976057
  C     8.198108  2.902096  2.484224
  C     6.723329 -1.456320  1.383278
  C     6.954550  2.616221  1.808974
  N     8.864962 -0.531905  1.180024
  N     9.180767  3.157269  1.654041
  N     6.885185 -1.690608  0.088263
  N     7.057415  2.529688  0.500619
  N     6.022991 -1.086345  3.854104
  N     6.405965  2.663291  4.329050
  S     5.365033 -1.693390  2.483270
  S     5.631118  2.347678  2.920940
  S     8.430998 -1.156850 -0.316560
  S     8.603029  2.846303  0.100165
  S     7.627664 -0.601555  3.789283
  S     8.044346  2.981822  4.230911
