16  
    
  C     9.131307 -0.619937  2.526452
  C     9.606505  3.504281  2.754923
  C     7.908465 -0.976197  1.842095
  C     8.369477  3.136554  2.206826
  N    10.234716 -0.484190  1.742042
  N    10.673047  3.442558  1.928126
  N     8.130201 -1.143986  0.538413
  N     8.398334  2.816848  0.909997
  N     7.246363 -0.549655  4.302994
  N     7.792661  3.858939  4.629659
  S     6.529936 -1.209873  2.918699
  S     6.959278  3.354202  3.286904
  S     9.695338 -0.768801  0.194401
  S    10.001595  2.907642  0.511196
  S     8.912360 -0.398487  4.223360
  S     9.427840  4.040364  4.355839
