16  
    
  C     5.929397 -2.183830  1.646007
  C     5.321300  1.289413  1.692676
  C     4.627298 -2.622969  1.136809
  C     4.062998  0.901678  1.160055
  N     6.879588 -2.068350  0.738317
  N     6.368136  1.254285  0.855778
  N     4.527595 -2.685276 -0.189235
  N     4.166144  0.729317 -0.151188
  N     4.326692 -2.310976  3.646773
  N     3.679207  1.202627  3.655812
  S     3.390756 -2.550222  2.356262
  S     2.832031  0.633175  2.333556
  S     6.044100 -2.303985 -0.750199
  S     5.716975  0.834520 -0.577807
  S     5.868567 -1.894268  3.355761
  S     5.226836  1.667300  3.375052
