16  
    
  C    11.634069  1.225501  2.871043
  C    11.790920  5.103737  3.122019
  C    10.361549  0.750261  2.380340
  C    10.670625  4.467489  2.503038
  N    12.628520  1.438517  2.020628
  N    12.827347  5.194083  2.277787
  N    10.446471  0.572070  1.094427
  N    10.829644  4.005181  1.281577
  N    10.111960  0.653902  4.925559
  N    10.211362  4.758920  5.088364
  S     9.170359  0.336746  3.607864
  S     9.427804  4.160673  3.720186
  S    11.981679  0.858061  0.578425
  S    12.327517  4.469997  0.825973
  S    11.642047  1.208086  4.629373
  S    11.675748  5.511090  4.771794
