16  
    
  C     9.062310 -0.488746  2.435734
  C     9.602918  3.330083  2.753737
  C     7.883409 -0.929813  1.714709
  C     8.318297  2.945143  2.201470
  N    10.177146 -0.362802  1.641101
  N    10.608652  3.340294  1.856665
  N     8.177660 -1.263047  0.418784
  N     8.342265  2.706213  0.877032
  N     6.971939 -0.210277  3.916474
  N     7.787896  3.412438  4.653862
  S     6.410212 -1.092596  2.661552
  S     6.955231  3.263170  3.259737
  S     9.716387 -0.844146  0.106365
  S     9.880829  2.945285  0.418010
  S     8.613015 -0.004736  4.074124
  S     9.378660  3.722897  4.400812
