16  
    
  C    12.582542  1.610721  3.786837
  C    12.419610  4.986314  3.443681
  C    11.340789  1.235523  3.132977
  C    11.213433  4.642548  2.824860
  N    13.604405  1.734209  2.925640
  N    13.487699  5.155460  2.546297
  N    11.453312  1.072119  1.805440
  N    11.272488  4.408861  1.522198
  N    10.891722  1.137768  5.671836
  N    10.492370  4.997924  5.254619
  S    10.057088  1.208798  4.216456
  S     9.811734  4.379553  3.835555
  S    13.046444  1.316073  1.471312
  S    12.848877  4.784215  1.074503
  S    12.449778  1.780370  5.539458
  S    12.157527  5.172774  5.169413
