16  
    
  C     7.275917 -1.626228  2.259098
  C     7.514755  2.205150  2.202546
  C     6.044073 -2.050901  1.574053
  C     6.291037  1.642272  1.648184
  N     8.347089 -1.635283  1.465033
  N     8.473416  2.464569  1.316954
  N     6.186932 -2.100561  0.272527
  N     6.344307  1.395011  0.326457
  N     5.461891 -1.817901  4.074441
  N     5.778743  2.141510  4.119678
  S     4.698826 -2.305329  2.647376
  S     4.887891  1.738220  2.743389
  S     7.801739 -1.996299 -0.053595
  S     7.931087  1.925950 -0.132156
  S     7.078977 -1.474164  4.007380
  S     7.354755  2.638412  3.855630
