16  
    
  C     7.182703 -1.287030  2.276986
  C     7.743416  2.785569  2.330894
  C     6.235212 -2.086098  1.510058
  C     6.541044  2.420339  1.659348
  N     8.198004 -0.862386  1.533335
  N     8.810648  2.943037  1.533320
  N     6.485803 -2.109358  0.202145
  N     6.718611  2.268118  0.343446
  N     5.359562 -2.123644  3.956117
  N     5.967521  2.314755  4.151967
  S     4.780323 -2.550318  2.476842
  S     5.247030  2.016536  2.704253
  S     7.904699 -1.261881 -0.058979
  S     8.220693  2.720545  0.014423
  S     6.884626 -1.377112  4.017820
  S     7.539788  2.985669  4.037259
