16  
    
  C    11.307173  0.919831  3.336767
  C    11.568466  4.694958  2.776905
  C    10.025177  0.549668  2.779859
  C    10.333145  4.293082  2.142904
  N    12.256742  1.204574  2.413491
  N    12.517224  4.824318  1.852401
  N    10.062591  0.299260  1.480182
  N    10.342992  4.151975  0.841187
  N     9.577230  0.905925  5.321624
  N     9.886146  4.394206  4.755885
  S     8.709437  0.513031  3.917934
  S     9.068772  3.998106  3.380329
  S    11.553968  0.863992  0.953274
  S    11.915828  4.532690  0.367823
  S    11.209231  1.156734  5.073801
  S    11.433947  4.933953  4.523021
