16  
    
  C     6.166770 -1.993169  1.663204
  C     6.295957  1.829822  1.859359
  C     4.883716 -2.409090  1.048816
  C     5.025904  1.766483  1.153056
  N     7.178952 -1.786387  0.850238
  N     7.357777  1.923384  1.047055
  N     5.023359 -2.647973 -0.220038
  N     5.184274  1.693600 -0.167061
  N     4.364965 -1.827176  3.463837
  N     4.446505  1.838512  3.673512
  S     3.561129 -2.511732  2.163416
  S     3.631023  1.904564  2.230457
  S     6.654899 -2.324735 -0.667578
  S     6.784705  1.772154 -0.477093
  S     5.962191 -1.521440  3.365417
  S     6.106437  1.879030  3.578452
