16  
    
  C     8.079601 -0.669996  2.470603
  C     8.315912  2.984922  2.329218
  C     6.980357 -1.364246  1.859104
  C     7.043113  2.478554  1.777573
  N     9.164480 -0.510947  1.660482
  N     9.326926  3.135895  1.448990
  N     7.170339 -1.628119  0.552907
  N     7.086981  2.193417  0.468521
  N     6.296683 -1.068280  4.282169
  N     6.521638  2.948640  4.191788
  S     5.537553 -1.508217  2.801916
  S     5.726479  2.262053  2.889774
  S     8.678256 -1.101622  0.162617
  S     8.648402  2.693200 -0.011094
  S     7.828497 -0.478034  4.163640
  S     8.083536  3.299972  4.032283
