16  
    
  C    11.361761  0.942707  3.221400
  C    11.438393  4.770067  3.119098
  C    10.126944  0.468235  2.592151
  C    10.278069  4.139800  2.495298
  N    12.290035  1.183085  2.337535
  N    12.545360  4.897131  2.342280
  N    10.209789  0.133390  1.330072
  N    10.528045  3.875636  1.240490
  N     9.652548  0.862138  5.159496
  N     9.702762  4.365550  5.028967
  S     8.897299  0.311276  3.785777
  S     9.012647  3.755515  3.661414
  S    11.706650  0.656293  0.853419
  S    12.076859  4.342183  0.803117
  S    11.248842  1.239097  4.873630
  S    11.199714  5.018126  4.861544
