16  
    
  C    10.160938  0.639672  2.711237
  C    10.731139  4.278740  2.783963
  C     8.943006  0.073179  2.119610
  C     9.462682  3.829515  2.224449
  N    11.185833  0.722408  1.875374
  N    11.772875  4.284588  1.963192
  N     9.034145 -0.142934  0.830632
  N     9.537745  3.706834  0.908683
  N     8.377470  0.307758  4.598696
  N     8.967394  4.151364  4.741946
  S     7.725539 -0.447715  3.246117
  S     8.173458  3.650062  3.392611
  S    10.638659  0.170030  0.368045
  S    11.093336  3.973836  0.416370
  S     9.973261  0.807195  4.416095
  S    10.543628  4.628161  4.454713
