16  
    
  C     3.296614 -3.066626  1.142648
  C     3.634883  0.666546  1.349574
  C     2.037500 -3.369658  0.437906
  C     2.436957  0.178039  0.691172
  N     4.410914 -2.997855  0.437064
  N     4.719451  0.766053  0.585508
  N     2.222574 -3.503710 -0.867388
  N     2.627135  0.011052 -0.606772
  N     1.573761 -3.427718  3.009025
  N     1.750371  0.420015  3.201494
  S     0.721591 -3.519032  1.537143
  S     1.055509  0.122444  1.726958
  S     3.884648 -3.124655 -1.145601
  S     4.188130  0.435985 -0.998850
  S     3.208498 -3.271404  2.850466
  S     3.422786  0.709700  3.057042
