16  
    
  C    10.905865  0.596606  2.984821
  C    10.858358  4.332707  2.846360
  C     9.691684  0.134315  2.358617
  C     9.789959  3.596013  2.169393
  N    11.973150  0.468097  2.194533
  N    11.860936  4.652920  2.054693
  N     9.829708 -0.092046  1.043938
  N    10.156785  3.188183  0.939655
  N     9.273596  0.444908  4.901409
  N     8.990356  4.127384  4.591491
  S     8.450199  0.010239  3.534091
  S     8.304085  3.496309  3.190828
  S    11.436615  0.148961  0.688696
  S    11.658015  3.869968  0.649577
  S    10.850120  0.984594  4.655149
  S    10.502826  4.789426  4.438428
