16  
    
  C     9.149494 -0.553259  2.509917
  C     9.513831  3.584515  2.798687
  C     7.930991 -1.099273  1.884648
  C     8.299327  3.149908  2.140988
  N    10.143497 -0.349895  1.698308
  N    10.532953  3.560367  1.981067
  N     7.992457 -1.097977  0.567829
  N     8.478795  2.666021  0.910618
  N     7.318603 -0.622274  4.384189
  N     7.764831  3.959200  4.590054
  S     6.604438 -1.156589  2.970380
  S     6.970099  3.274692  3.280701
  S     9.533504 -0.656236  0.199923
  S    10.032823  2.984679  0.486715
  S     8.972430 -0.410288  4.275309
  S     9.456707  3.965997  4.522043
