16  
    
  C     9.544980 -0.542141  2.724283
  C     9.397203  3.338227  2.568884
  C     8.213463 -0.840760  2.124442
  C     8.110012  3.021325  1.936354
  N    10.554519 -0.471957  1.897425
  N    10.450211  3.260424  1.775795
  N     8.300815 -1.149639  0.863358
  N     8.207955  2.793156  0.649905
  N     7.710954 -0.693453  4.614158
  N     7.487058  3.317098  4.374913
  S     6.872790 -1.022610  3.206244
  S     6.746724  2.947058  2.984866
  S     9.911975 -0.966308  0.433602
  S     9.814414  2.900925  0.225280
  S     9.364347 -0.297346  4.468551
  S     9.093784  3.476139  4.185271
