16  
    
  C     6.183811 -1.541064  1.493421
  C     6.398442  2.159952  1.888414
  C     4.996004 -2.059506  0.828628
  C     5.192777  1.672559  1.204962
  N     7.272489 -1.434909  0.761072
  N     7.432329  2.189263  1.063206
  N     5.282253 -2.490767 -0.382452
  N     5.341279  1.404483 -0.099560
  N     4.501371 -1.919360  3.381757
  N     4.635162  1.766352  3.718133
  S     3.792177 -2.473530  2.038735
  S     3.847096  1.449037  2.265948
  S     6.823765 -2.050056 -0.703309
  S     6.936673  1.753358 -0.466008
  S     5.961979 -1.157297  3.209976
  S     6.202865  2.326540  3.606201
