16  
    
  C     7.693846 -0.899239  1.701490
  C     7.705752  2.907048  2.296531
  C     6.459801 -1.396226  1.182476
  C     6.580214  2.423994  1.599186
  N     8.682867 -0.752091  0.826838
  N     8.788645  3.122105  1.547563
  N     6.577548 -1.770437 -0.087673
  N     6.852591  2.245297  0.282268
  N     6.110066 -1.113144  3.831527
  N     5.914802  2.701739  4.075459
  S     5.193791 -1.454038  2.448135
  S     5.221029  2.100022  2.610464
  S     8.122926 -1.428001 -0.632808
  S     8.398057  2.565994  0.034768
  S     7.662776 -0.745913  3.513481
  S     7.495311  3.269777  3.949702
