16  
    
  C    11.609678  1.393393  2.876713
  C    11.509053  5.006815  3.117043
  C    10.468058  0.631472  2.372665
  C    10.378170  4.473058  2.393305
  N    12.545995  1.484509  1.928353
  N    12.554789  5.386658  2.349909
  N    10.430979  0.418843  1.034751
  N    10.609823  4.437659  1.100801
  N    10.192387  0.658406  4.938064
  N     9.719355  4.467353  4.898961
  S     9.399019  0.032570  3.624744
  S     9.088093  4.021505  3.405122
  S    11.917887  0.977634  0.466300
  S    12.183835  4.959519  0.836205
  S    11.523390  1.602084  4.583818
  S    11.284084  4.978210  4.893820
