16  
    
  C     7.292775 -1.104526  2.113156
  C     7.765708  2.796485  2.201489
  C     6.130675 -1.542137  1.398719
  C     6.513749  2.335433  1.644314
  N     8.303081 -0.825079  1.327643
  N     8.761282  2.959454  1.347194
  N     6.274207 -1.764082  0.106430
  N     6.586952  2.132776  0.346211
  N     5.461516 -1.791259  3.964880
  N     5.982311  2.710180  4.137786
  S     4.765303 -1.968188  2.505679
  S     5.251913  2.001251  2.764948
  S     7.850929 -1.300971 -0.215505
  S     8.130130  2.456741 -0.127190
  S     7.037339 -1.219098  3.836252
  S     7.625644  3.183491  3.872179
