16  
    
  C    11.902395  1.314450  3.339758
  C    11.881368  4.722398  3.572605
  C    10.759549  0.716193  2.649720
  C    10.683756  4.386998  2.826591
  N    12.996119  1.272072  2.572120
  N    12.944497  4.998160  2.743987
  N    10.933778  0.454663  1.353375
  N    10.872650  4.247363  1.524241
  N    10.027185  1.249905  5.034738
  N     9.917796  4.823199  5.240268
  S     9.452876  0.428070  3.677569
  S     9.220650  4.356117  3.796185
  S    12.530554  0.841906  1.027801
  S    12.488030  4.658475  1.206844
  S    11.686101  1.597520  5.113352
  S    11.548456  5.084754  5.190920
