16  
    
  C     9.771062 -0.020241  2.835531
  C     9.889123  3.521710  2.651721
  C     8.557993 -0.570468  2.208276
  C     8.581761  3.165977  2.108908
  N    10.704773  0.481817  1.991386
  N    10.885302  3.807101  1.787682
  N     8.628839 -0.530528  0.845649
  N     8.600060  3.261612  0.806896
  N     8.207277 -0.779749  4.730004
  N     8.157038  3.158679  4.616652
  S     7.287505 -0.993571  3.344398
  S     7.233016  2.868853  3.224042
  S    10.115549  0.151154  0.453496
  S    10.110080  3.680076  0.303149
  S     9.630514  0.128494  4.534356
  S     9.730666  3.655607  4.409765
