16  
    
  C    10.310549 -0.020770  2.827592
  C    10.331503  3.884074  3.122095
  C     9.067436 -0.399126  2.201202
  C     8.997951  3.739344  2.514045
  N    11.365505  0.003057  1.960381
  N    11.367409  3.947003  2.259885
  N     9.122367 -0.447587  0.852022
  N     9.084966  3.513212  1.213999
  N     8.475574 -0.306441  4.717302
  N     8.592434  4.263484  4.959053
  S     7.722993 -0.560307  3.271619
  S     7.645970  3.971357  3.670986
  S    10.676507 -0.236531  0.482622
  S    10.693940  3.741493  0.763017
  S    10.087078 -0.021175  4.575552
  S    10.217323  4.211475  4.757292
