16  
    
  C     8.780218 -0.982158  2.393119
  C     8.512982  3.255471  2.542505
  C     7.559374 -1.203712  1.665951
  C     7.327366  2.623917  1.947310
  N     9.903902 -0.839675  1.623546
  N     9.515670  3.501746  1.671228
  N     7.761165 -1.361427  0.330584
  N     7.438813  2.506491  0.633023
  N     6.850888 -0.770149  4.117940
  N     6.799474  2.846442  4.426557
  S     6.221798 -1.371331  2.703906
  S     6.059881  2.194558  3.063537
  S     9.374883 -1.118432  0.074381
  S     8.922438  3.070590  0.138862
  S     8.530331 -0.630132  4.071800
  S     8.320417  3.478587  4.237005
