16  
    
  C    11.623029  1.154219  2.950132
  C    11.794772  5.147554  3.065384
  C    10.369963  0.817308  2.389524
  C    10.670504  4.421049  2.580577
  N    12.621245  1.328271  2.084016
  N    12.794512  5.196684  2.220016
  N    10.428484  0.551292  1.059247
  N    10.821728  4.003878  1.313395
  N    10.100868  0.616505  4.960004
  N    10.259296  4.797189  5.065795
  S     9.171928  0.371505  3.623701
  S     9.470389  4.179737  3.714343
  S    11.994393  0.875362  0.604838
  S    12.336725  4.429390  0.858966
  S    11.606524  1.240217  4.644550
  S    11.722219  5.542470  4.797769
