16  
    
  C    10.413437  0.668511  3.000763
  C    10.773078  4.345280  2.859209
  C     9.257653 -0.019162  2.479366
  C     9.469800  4.060095  2.329398
  N    11.322717  1.053389  2.102790
  N    11.734820  4.558517  1.955166
  N     9.298185 -0.219157  1.190146
  N     9.438005  3.937613  1.009499
  N     8.749271  0.107955  4.956617
  N     8.996084  4.191385  4.838222
  S     7.942279 -0.353869  3.569907
  S     8.155816  3.883362  3.422318
  S    10.749115  0.426382  0.643409
  S    10.881078  4.426345  0.433305
  S    10.260322  0.759197  4.747670
  S    10.600513  4.649476  4.622632
