16  
    
  C     3.549950 -3.093971  1.048545
  C     3.861508  0.834268  1.430770
  C     2.365612 -3.660077  0.509332
  C     2.682368  0.276862  0.825594
  N     4.596026 -2.929103  0.197058
  N     4.917754  0.950580  0.627327
  N     2.435605 -3.715615 -0.836052
  N     2.783241  0.185202 -0.510231
  N     1.753036 -2.929283  2.956687
  N     2.153393  0.478094  3.362731
  S     1.091633 -3.847981  1.764376
  S     1.393109 -0.022957  1.917487
  S     4.018389 -3.395353 -1.286430
  S     4.392222  0.542040 -0.881716
  S     3.337895 -2.472117  2.676497
  S     3.733991  1.080033  3.188585
