16  
    
  C     4.729938 -1.963871  1.893590
  C     4.160621  1.149372  1.292543
  C     3.547846 -2.479164  1.231872
  C     2.910714  0.793332  0.574222
  N     5.817141 -1.947775  1.122005
  N     5.259728  1.172900  0.523623
  N     3.714975 -2.780385 -0.055691
  N     3.068948  0.785308 -0.768548
  N     2.864283 -2.184838  3.689504
  N     2.329223  1.194331  3.026842
  S     2.165328 -2.625334  2.254956
  S     1.534830  0.602558  1.664871
  S     5.289675 -2.337815 -0.467004
  S     4.684418  1.074875 -1.044895
  S     4.465880 -1.750021  3.588353
  S     3.989234  1.263517  3.035916
