16  
    
  C    10.115577  0.599616  2.895337
  C    10.706304  4.366325  2.888982
  C     9.024125 -0.062988  2.256681
  C     9.523095  4.091694  2.097125
  N    11.050587  0.981564  2.055375
  N    11.774701  4.660324  2.171252
  N     9.080711 -0.031416  0.928805
  N     9.690613  4.169530  0.787014
  N     8.506179  0.138214  4.780598
  N     8.941887  3.870338  4.634915
  S     7.833656 -0.590239  3.429518
  S     8.160706  3.678694  3.163468
  S    10.510544  0.632546  0.536361
  S    11.359798  4.520640  0.586458
  S    10.135353  0.356604  4.657622
  S    10.540430  4.264972  4.598492
