16  
    
  C    12.040108  1.326766  3.460199
  C    12.230224  5.260160  3.421786
  C    10.961903  0.860087  2.702168
  C    11.072428  4.701806  2.809763
  N    13.129040  1.675616  2.784829
  N    13.379930  5.306788  2.714866
  N    11.195501  0.635240  1.380747
  N    11.360508  4.362848  1.545672
  N    10.132476  1.178334  5.123965
  N    10.314076  5.319515  5.156610
  S     9.624931  0.520638  3.706821
  S     9.638749  4.623651  3.827758
  S    12.742794  1.219819  1.193466
  S    12.909737  4.736147  1.204691
  S    11.670269  1.752006  5.112762
  S    11.937787  5.649482  5.080514
