16  
    
  C    11.280246  0.945605  3.349835
  C    11.587094  4.610184  2.779614
  C     9.989299  0.651110  2.756743
  C    10.356681  4.177932  2.205430
  N    12.225144  1.155187  2.455340
  N    12.591370  4.844621  1.930127
  N    10.006488  0.381391  1.459793
  N    10.409534  4.176219  0.892559
  N     9.598308  1.060434  5.269615
  N     9.915928  4.537400  4.685146
  S     8.667811  0.448130  3.923418
  S     9.113588  3.963112  3.362405
  S    11.582323  0.721248  1.008921
  S    11.989212  4.531114  0.472126
  S    11.259436  1.099160  5.043598
  S    11.541164  4.812437  4.542503
