16  
    
  C     9.045580 -0.467711  2.407030
  C     9.616708  3.355313  2.718135
  C     7.922597 -1.044858  1.697749
  C     8.316546  3.083381  2.184952
  N    10.161292 -0.396565  1.737889
  N    10.635940  3.364652  1.850189
  N     8.151257 -1.226825  0.413318
  N     8.339608  2.674107  0.940805
  N     6.963804 -0.233963  3.967198
  N     7.764226  3.553457  4.646684
  S     6.421461 -1.073093  2.619044
  S     6.915282  3.323180  3.219211
  S     9.762268 -0.832640  0.163662
  S     9.893006  2.965068  0.380289
  S     8.623586 -0.088552  4.034411
  S     9.448233  3.745638  4.431821
