16  
    
  C    10.321068  0.366904  2.530539
  C    10.450036  4.227953  3.060336
  C     9.144541 -0.222403  1.908577
  C     9.141789  3.816288  2.554263
  N    11.452747  0.195325  1.859313
  N    11.494989  4.116863  2.217384
  N     9.360963 -0.643616  0.680682
  N     9.241668  3.428943  1.300059
  N     8.389071  0.579043  4.280455
  N     8.658214  4.332216  5.031238
  S     7.803895 -0.371811  3.076173
  S     7.753596  3.947662  3.681269
  S    11.006487 -0.532068  0.444700
  S    10.761276  3.601427  0.768077
  S    10.024706  0.839831  4.154548
  S    10.250889  4.689523  4.731583
