16  
    
  C     9.015988 -0.589708  2.424561
  C     9.506009  3.502005  2.723038
  C     7.874164 -0.953970  1.622253
  C     8.261757  3.113455  2.072563
  N    10.126294 -0.394834  1.769300
  N    10.512354  3.388701  1.888922
  N     8.212530 -1.224672  0.368966
  N     8.319126  2.786453  0.786586
  N     7.041839 -0.445872  4.013153
  N     7.830913  3.747344  4.580751
  S     6.449459 -1.039962  2.609403
  S     6.980221  3.364320  3.213075
  S     9.808330 -0.867710  0.239312
  S     9.932611  2.905942  0.423125
  S     8.671743 -0.143725  4.084198
  S     9.503421  3.817513  4.475056
