16  
    
  C     9.717443  0.013882  2.883777
  C     9.760862  3.529327  2.704458
  C     8.599170 -0.635648  2.239881
  C     8.493968  3.407413  2.077366
  N    10.705251  0.317982  1.994894
  N    10.746966  3.699064  1.829824
  N     8.668055 -0.644400  0.890398
  N     8.499620  3.409591  0.724295
  N     8.034514 -0.572201  4.747202
  N     8.097531  3.136136  4.652679
  S     7.347120 -0.958230  3.310684
  S     7.347366  2.914079  3.183887
  S    10.079071  0.061785  0.488320
  S    10.079406  3.631596  0.357528
  S     9.554978  0.133435  4.612426
  S     9.748942  3.517110  4.518512
