16  
    
  C    12.000255  1.243226  3.353695
  C    11.879711  4.721918  3.524397
  C    10.815052  0.781226  2.648463
  C    10.655258  4.333851  2.860664
  N    13.016214  1.409665  2.518489
  N    12.966816  4.967795  2.858271
  N    10.975259  0.447351  1.376626
  N    10.842410  4.250913  1.538498
  N    10.065450  1.222849  5.028172
  N     9.888601  4.766627  5.278879
  S     9.456475  0.445410  3.699923
  S     9.202066  4.295696  3.815883
  S    12.541083  0.888274  1.012369
  S    12.467090  4.689255  1.265913
  S    11.672434  1.557186  5.059052
  S    11.549793  5.074580  5.206463
