16  
    
  C     7.182615 -1.293810  2.274436
  C     7.793356  2.793454  2.329779
  C     6.170520 -2.020059  1.511202
  C     6.572039  2.423399  1.660058
  N     8.189908 -0.832774  1.550935
  N     8.849545  2.993561  1.537120
  N     6.475278 -2.065484  0.245169
  N     6.678642  2.256770  0.357688
  N     5.334457 -2.120953  3.956746
  N     5.954070  2.354369  4.180608
  S     4.777178 -2.557996  2.466686
  S     5.240845  2.014402  2.701876
  S     7.919252 -1.258265 -0.027998
  S     8.270064  2.715450  0.026118
  S     6.877080 -1.361761  4.006400
  S     7.547189  2.974603  4.025620
