16  
    
  C    10.301203  0.258325  2.536555
  C    10.392881  4.255416  3.053621
  C     9.143481 -0.246922  1.910345
  C     9.131158  3.811187  2.554893
  N    11.436640  0.185953  1.865719
  N    11.437784  4.075112  2.253965
  N     9.375269 -0.692054  0.683539
  N     9.169875  3.430642  1.269588
  N     8.409643  0.548077  4.289572
  N     8.659246  4.278196  5.074855
  S     7.825367 -0.382717  3.091584
  S     7.732847  3.956938  3.702318
  S    10.993176 -0.540415  0.475343
  S    10.780180  3.595213  0.797735
  S    10.049614  0.831838  4.172459
  S    10.253692  4.707535  4.712818
