16  
    
  C     6.286667 -1.745016  2.251292
  C     6.569689  2.156785  2.198751
  C     5.104194 -2.212009  1.545395
  C     5.432059  1.539635  1.596224
  N     7.255862 -1.342702  1.471636
  N     7.515783  2.513727  1.355362
  N     5.202370 -2.124534  0.238409
  N     5.392998  1.526977  0.259487
  N     4.532311 -2.086261  4.057390
  N     4.932803  1.751843  4.116604
  S     3.750242 -2.503895  2.663217
  S     4.173690  1.132759  2.710747
  S     6.707957 -1.603946 -0.081739
  S     6.940369  2.125126 -0.216893
  S     6.183241 -1.734461  3.987969
  S     6.520826  2.280979  3.926816
