16  
    
  C     7.297839 -1.632279  2.266714
  C     7.473869  2.202806  2.199004
  C     6.097644 -1.969333  1.568083
  C     6.240156  1.727424  1.621619
  N     8.371278 -1.639642  1.453811
  N     8.451782  2.489429  1.350615
  N     6.177117 -2.110891  0.202005
  N     6.345461  1.452601  0.345064
  N     5.412346 -1.924943  4.114020
  N     5.734719  2.173447  4.122098
  S     4.733405 -2.298084  2.667824
  S     4.898160  1.722239  2.739743
  S     7.813208 -1.985114 -0.098076
  S     7.890835  1.945574 -0.159359
  S     7.066587 -1.507506  4.020741
  S     7.393747  2.625781  3.849358
