16  
    
  C    11.266461  0.466660  3.001671
  C    11.084314  4.428456  3.404518
  C    10.200284 -0.214196  2.360553
  C     9.781924  4.250718  2.839746
  N    12.411752  0.535224  2.334338
  N    12.132504  4.455348  2.565086
  N    10.428453 -0.418520  1.064682
  N     9.845038  3.977627  1.566597
  N     9.362158  0.371220  4.771752
  N     9.443264  4.264369  5.375904
  S     8.767455 -0.333611  3.410226
  S     8.526909  4.343194  4.005433
  S    12.021958  0.144094  0.749002
  S    11.443898  4.010034  1.131415
  S    10.902103  0.954271  4.597064
  S    11.086403  4.643946  5.151067
