16  
    
  C    10.982407  0.509686  3.000028
  C    10.774943  4.507350  2.807114
  C     9.687416  0.216836  2.375133
  C     9.754379  3.666814  2.171372
  N    12.021968  0.539983  2.131947
  N    11.853839  4.564664  2.070650
  N     9.720289 -0.088086  1.057732
  N    10.036385  3.201355  0.938040
  N     9.172911  0.520934  4.863321
  N     8.857896  4.229058  4.538080
  S     8.336218  0.142183  3.467772
  S     8.372298  3.386994  3.192005
  S    11.341161  0.087398  0.636170
  S    11.586782  3.782108  0.624129
  S    10.680627  1.146638  4.611424
  S    10.350365  4.939562  4.437451
