16  
    
  C     4.691879 -2.569141  1.559672
  C     5.258007  1.638054  1.816783
  C     3.494190 -2.968441  0.874156
  C     3.937600  1.382264  1.333965
  N     5.697390 -2.139742  0.718958
  N     6.205715  1.613835  0.902340
  N     3.546664 -2.910366 -0.479976
  N     3.870127  1.180180  0.025386
  N     2.874861 -3.005429  3.348711
  N     3.633170  1.606071  3.876129
  S     2.129502 -3.426335  1.906152
  S     2.666592  1.327135  2.530686
  S     5.038236 -2.284632 -0.805216
  S     5.461417  1.280046 -0.554254
  S     4.389592 -2.395377  3.257927
  S     5.254162  1.772166  3.536044
