16  
    
  C    12.548168  1.548352  3.340956
  C    12.754531  5.560281  3.456081
  C    11.324604  1.010805  2.694233
  C    11.654477  5.012453  2.701479
  N    13.513107  1.967948  2.528604
  N    13.862214  5.715953  2.842594
  N    11.401266  1.080172  1.400294
  N    11.911411  4.859802  1.404666
  N    10.804886  1.125373  5.235806
  N    11.030816  4.899478  5.180469
  S    10.037891  0.620903  3.845644
  S    10.236160  4.552612  3.761672
  S    12.901185  1.687191  0.988317
  S    13.519978  5.300552  1.215349
  S    12.405684  1.586823  5.065410
  S    12.512953  5.556443  5.153586
