16  
    
  C     4.684340 -2.062565  1.889318
  C     4.166234  1.077990  1.272033
  C     3.489374 -2.485348  1.193132
  C     2.930642  0.853098  0.579208
  N     5.765544 -1.991422  1.146632
  N     5.202985  1.161490  0.445070
  N     3.725909 -2.777914 -0.061515
  N     3.013294  0.739905 -0.736444
  N     2.869385 -2.325453  3.692163
  N     2.253031  1.115878  3.023261
  S     2.111541 -2.745677  2.263366
  S     1.569006  0.568121  1.640733
  S     5.289885 -2.387805 -0.373920
  S     4.671432  0.979723 -1.103471
  S     4.399893 -1.705968  3.590810
  S     3.895355  1.305608  3.011031
