16  
    
  C    10.882338  0.650335  2.958582
  C    10.788693  4.462678  2.796606
  C     9.657605  0.148078  2.405693
  C     9.673193  3.749992  2.219027
  N    11.898077  0.584182  2.082982
  N    11.878443  4.593166  2.036282
  N     9.746374 -0.101569  1.101912
  N     9.972435  3.275138  1.016619
  N     9.038563  0.663505  4.832408
  N     8.750919  4.357619  4.458227
  S     8.275841  0.225421  3.434368
  S     8.407417  3.282958  3.236555
  S    11.274224  0.095796  0.627703
  S    11.485746  3.726985  0.650938
  S    10.609160  1.200235  4.593455
  S    10.292110  5.015520  4.415205
