16  
    
  C    12.703855  1.558834  3.411923
  C    12.656262  5.348455  3.223222
  C    11.437256  1.181193  2.773713
  C    11.439984  4.803178  2.736801
  N    13.650245  1.952487  2.537102
  N    13.546730  5.625386  2.299573
  N    11.535840  1.191314  1.445845
  N    11.450479  4.633257  1.380224
  N    10.970460  1.151206  5.326860
  N    11.134864  4.965326  5.310311
  S    10.160298  0.896673  3.899027
  S    10.289412  4.440284  3.930748
  S    13.000657  1.725762  1.014445
  S    12.946974  5.209671  0.850514
  S    12.566560  1.645166  5.071463
  S    12.694257  5.527455  4.996112
