16  
    
  C    12.552812  1.542257  3.736084
  C    12.360111  5.105703  3.376118
  C    11.349849  0.934851  3.052263
  C    11.081831  4.785877  2.839168
  N    13.511124  1.790862  2.864458
  N    13.398010  5.155786  2.618658
  N    11.403044  0.905738  1.724877
  N    11.192842  4.561164  1.516991
  N    10.819844  1.440177  5.595370
  N    10.661668  4.941212  5.407799
  S    10.043655  0.857399  4.249257
  S     9.786342  4.559356  3.997932
  S    12.919975  1.409781  1.290381
  S    12.809557  4.840900  1.097699
  S    12.449622  1.721520  5.447568
  S    12.272786  5.405745  5.070683
