16  
    
  C     5.444464 -2.127341  1.920862
  C     5.310020  1.633500  1.672133
  C     4.281618 -2.604038  1.198802
  C     4.253631  0.898653  0.941830
  N     6.473751 -1.975385  1.099657
  N     6.320357  2.144200  0.965437
  N     4.428822 -2.702284 -0.096832
  N     4.455689  0.977263 -0.370161
  N     3.646379 -2.663443  3.670070
  N     3.445833  0.902158  3.368329
  S     2.953279 -3.028634  2.237800
  S     2.855435  0.430356  1.831711
  S     5.979147 -2.251503 -0.448284
  S     5.854616  1.793488 -0.634220
  S     5.189610 -2.133298  3.615346
  S     4.955562  1.583711  3.357929
