16  
    
  C    12.870048  1.581427  3.315081
  C    12.464013  5.071240  3.327559
  C    11.562843  1.087767  2.788246
  C    11.271409  4.716725  2.646860
  N    13.824702  1.696084  2.434127
  N    13.503446  5.401381  2.539580
  N    11.597114  0.876377  1.482734
  N    11.350610  4.625312  1.356808
  N    11.319268  1.332241  5.327942
  N    10.541584  4.919611  5.151676
  S    10.376941  1.040684  3.985313
  S     9.893841  4.445158  3.678893
  S    13.127644  1.333007  0.958437
  S    12.866547  5.081030  0.958131
  S    12.837297  2.011635  5.061835
  S    12.221613  5.216492  5.046059
