16  
    
  C     9.894254 -0.208757  2.993887
  C    10.193721  3.514110  2.991527
  C     8.808708 -0.658334  2.160038
  C     8.924894  3.756182  2.401781
  N    10.988000  0.102578  2.302467
  N    11.228591  3.482982  2.170795
  N     9.011349 -0.537295  0.836900
  N     8.999386  3.836826  1.071724
  N     8.079778 -0.635230  4.650969
  N     8.564621  3.554113  4.906129
  S     7.357611 -0.933276  3.172916
  S     7.678863  3.860393  3.577516
  S    10.638791 -0.023299  0.666241
  S    10.609273  3.767991  0.682225
  S     9.713679 -0.170571  4.722642
  S    10.165402  3.221587  4.756299
