16  
    
  C     9.998403 -0.035955  2.720964
  C     9.809492  4.196282  2.731086
  C     8.814253 -0.532982  2.006424
  C     8.898685  3.161317  2.210893
  N    10.998042  0.257472  1.864920
  N    10.842327  4.356475  1.901097
  N     9.003284 -0.790230  0.693750
  N     9.193166  2.681431  1.000088
  N     8.222180 -0.313327  4.507990
  N     8.001166  3.655452  4.538252
  S     7.522698 -0.949005  3.093105
  S     7.683022  2.628068  3.257960
  S    10.516501 -0.174454  0.305876
  S    10.628354  3.383019  0.610789
  S     9.828944  0.167343  4.431206
  S     9.451794  4.489121  4.502742
