16  
    
  C     8.077338 -0.671095  2.463521
  C     8.317545  2.976733  2.334941
  C     6.983783 -1.373117  1.863225
  C     7.053458  2.481621  1.775063
  N     9.163119 -0.526086  1.665598
  N     9.324502  3.143223  1.445598
  N     7.169155 -1.630215  0.565845
  N     7.088656  2.186258  0.458602
  N     6.304767 -1.056897  4.271512
  N     6.512765  2.954899  4.188432
  S     5.541988 -1.505698  2.796751
  S     5.731507  2.250520  2.884217
  S     8.676386 -1.110899  0.171077
  S     8.646551  2.698795 -0.008093
  S     7.847379 -0.472213  4.172899
  S     8.069570  3.297439  4.038942
