16  
    
  C     8.773953 -0.993577  2.371769
  C     8.380855  3.259957  2.408503
  C     7.571575 -1.313703  1.657630
  C     7.280530  2.566362  1.789009
  N     9.819165 -0.823344  1.581033
  N     9.347513  3.495096  1.552048
  N     7.718108 -1.563455  0.361987
  N     7.366369  2.375096  0.488105
  N     6.996048 -1.253887  4.201430
  N     6.818325  2.824753  4.336854
  S     6.237066 -1.664166  2.715331
  S     6.064897  2.213570  2.939008
  S     9.297269 -1.212123  0.053411
  S     8.855143  3.020340  0.023997
  S     8.596426 -0.711808  4.095275
  S     8.307749  3.585597  4.155359
