16  
    
  C    11.372964  0.762294  3.055448
  C    11.110827  4.755481  3.441077
  C    10.214005  0.346717  2.324926
  C    10.044305  3.946966  2.911025
  N    12.443043  0.950972  2.267147
  N    12.172833  4.918745  2.626815
  N    10.454554  0.128799  1.007459
  N    10.240498  3.554025  1.672957
  N     9.493026  0.742438  4.794505
  N     9.450745  4.532618  5.362233
  S     8.893425 -0.049690  3.464009
  S     8.724308  3.876130  4.039308
  S    12.064090  0.441987  0.697642
  S    11.726376  4.161212  1.183834
  S    11.130227  1.271898  4.715305
  S    10.982699  5.133635  5.121008
