16  
    
  C     9.146845 -0.510315  2.500276
  C     9.608118  3.539438  2.720770
  C     7.964993 -0.827142  1.729025
  C     8.266891  3.232883  2.133625
  N    10.236011 -0.462594  1.751210
  N    10.647748  3.266415  1.905547
  N     8.179443 -1.128767  0.470612
  N     8.381681  2.864346  0.874714
  N     7.125052 -0.680692  4.190953
  N     7.831690  3.689596  4.621396
  S     6.531831 -1.109702  2.713011
  S     6.910821  3.395258  3.257026
  S     9.772541 -0.945388  0.224237
  S     9.967328  2.878045  0.431399
  S     8.734104 -0.297735  4.179127
  S     9.470795  4.063825  4.394755
