16  
    
  C    12.447927  1.641647  3.303761
  C    12.284183  5.407026  3.601195
  C    11.158558  1.145983  2.714423
  C    11.172915  4.742734  2.943366
  N    13.473064  1.758538  2.425107
  N    13.258379  5.676460  2.742397
  N    11.367989  0.898370  1.425181
  N    11.250590  4.626037  1.600153
  N    10.725179  1.332294  5.164034
  N    10.590100  4.978596  5.462424
  S     9.878257  0.826750  3.806707
  S     9.912341  4.371786  4.076675
  S    12.897270  1.336740  0.975249
  S    12.794333  5.190185  1.252771
  S    12.276788  1.860599  5.038905
  S    12.159756  5.529587  5.329470
