16  
    
  C    12.711125  1.585160  3.340792
  C    12.685488  5.385611  3.253531
  C    11.459450  1.151335  2.778197
  C    11.416048  4.849033  2.713256
  N    13.684732  1.973614  2.543710
  N    13.548883  5.629526  2.304242
  N    11.530763  1.199836  1.477242
  N    11.433932  4.624553  1.417302
  N    10.986932  1.224870  5.302192
  N    11.121522  4.934677  5.329295
  S    10.167068  0.888875  3.911186
  S    10.269065  4.426052  3.907986
  S    13.002088  1.694834  0.999171
  S    12.909363  5.180762  0.820973
  S    12.599869  1.637615  5.090031
  S    12.677563  5.521852  4.999806
