16  
    
  C    10.383686  0.650827  3.016138
  C    10.611825  4.346239  2.823179
  C     9.255148 -0.026766  2.452306
  C     9.372359  3.930577  2.244404
  N    11.408042  0.865287  2.169401
  N    11.619624  4.540333  1.970141
  N     9.273941 -0.230996  1.110974
  N     9.397803  3.894650  0.920564
  N     8.745697  0.339435  4.991427
  N     8.959553  4.477945  4.762628
  S     8.019363 -0.274745  3.604387
  S     8.151457  3.765655  3.473934
  S    10.791813  0.431910  0.682134
  S    10.979442  4.238812  0.518922
  S    10.304087  0.930507  4.768595
  S    10.574251  4.825646  4.529263
