16  
    
  C     4.241747 -2.409370  1.792829
  C     3.981586  1.258985  1.242070
  C     3.078063 -2.980940  1.215746
  C     2.899973  0.463951  0.706804
  N     5.283510 -2.199551  0.958486
  N     4.994238  1.494819  0.399146
  N     3.137991 -3.039710 -0.131080
  N     3.047997  0.191209 -0.578700
  N     2.632108 -2.817917  3.719881
  N     2.324547  0.974804  3.262493
  S     1.868673 -3.381784  2.341402
  S     1.687152  0.048901  1.955478
  S     4.691263 -2.754958 -0.534273
  S     4.610662  0.703008 -0.993398
  S     4.052339 -1.972019  3.450776
  S     3.775053  1.720524  2.931237
