16  
    
  C     9.168045 -0.499763  2.558561
  C     9.569701  3.577176  2.807847
  C     7.876360 -0.857856  1.917200
  C     8.380622  3.063429  2.239396
  N    10.066889 -0.229233  1.671594
  N    10.578719  3.666653  1.956233
  N     7.933358 -1.080207  0.629437
  N     8.372903  2.747292  0.946299
  N     7.371356 -0.715593  4.394144
  N     7.709675  3.776342  4.631988
  S     6.566324 -1.172105  2.995795
  S     6.982056  3.248930  3.238164
  S     9.455494 -0.608887  0.151061
  S     9.978491  3.034269  0.539414
  S     9.023505 -0.403515  4.302578
  S     9.332193  3.938566  4.519631
