16  
    
  C    11.403804  0.623527  3.080986
  C    11.070349  4.803958  3.532236
  C    10.328170  0.116652  2.281945
  C     9.873815  4.132739  2.994745
  N    12.499109  0.887464  2.339327
  N    12.136819  4.741422  2.703313
  N    10.659887 -0.189387  1.010023
  N     9.999995  3.711116  1.762713
  N     9.412056  0.438980  4.618116
  N     9.415411  4.477016  5.511779
  S     8.908566 -0.101660  3.135968
  S     8.579100  4.024306  4.170423
  S    12.175870  0.316652  0.797679
  S    11.538486  4.030101  1.240763
  S    11.001327  1.035916  4.684098
  S    10.922196  5.130409  5.218374
