16  
    
  C    12.444117  1.662755  3.355413
  C    12.812868  5.509051  3.682244
  C    11.341654  0.967942  2.738565
  C    11.718834  4.971236  2.848361
  N    13.482114  1.856284  2.561877
  N    13.883917  5.740164  3.016033
  N    11.524864  0.726143  1.467164
  N    12.029548  4.960675  1.542733
  N    10.863228  1.231499  5.326894
  N    10.900169  5.115450  5.251385
  S    10.194480  0.490495  3.989982
  S    10.336040  4.543588  3.837658
  S    13.038994  1.218823  1.083945
  S    13.645366  5.408565  1.438510
  S    12.407589  1.803264  5.107442
  S    12.464562  5.641731  5.330529
