16  
    
  C     7.260294 -1.430968  2.240656
  C     7.448008  2.195055  2.188088
  C     6.108941 -2.088656  1.669443
  C     6.219541  1.775915  1.556693
  N     8.255672 -1.302373  1.372067
  N     8.534233  2.261896  1.410297
  N     6.223396 -2.483654  0.400328
  N     6.346772  1.453020  0.267277
  N     5.460311 -1.521845  4.077369
  N     5.714083  2.132980  4.121363
  S     4.721127 -2.147584  2.671267
  S     4.957516  1.584095  2.694188
  S     7.707306 -2.007940 -0.028428
  S     8.029702  1.712157 -0.082291
  S     7.061576 -1.150370  3.911924
  S     7.281467  2.655772  3.840974
