16  
    
  C     6.142067 -1.733485  1.591122
  C     6.392119  1.863756  1.887670
  C     5.002488 -2.389472  1.046370
  C     5.157666  1.793361  1.164796
  N     7.207423 -1.609998  0.792309
  N     7.442799  1.941015  1.086998
  N     5.160179 -2.765986 -0.241761
  N     5.234951  1.687359 -0.161926
  N     4.389448 -1.736422  3.429540
  N     4.523229  2.017921  3.627073
  S     3.687290 -2.439075  2.097496
  S     3.730615  1.675369  2.217088
  S     6.671768 -2.125075 -0.716936
  S     6.858063  1.885778 -0.487593
  S     5.977394 -1.403178  3.295383
  S     6.177225  2.002712  3.627544
