16  
    
  C     4.609738 -2.292449  1.548334
  C     5.147569  1.428642  1.910223
  C     3.561952 -2.970724  0.863032
  C     3.812419  1.308583  1.399688
  N     5.575109 -1.740955  0.742703
  N     6.097247  1.479952  0.977227
  N     3.780153 -3.096570 -0.467488
  N     3.750721  1.250929  0.076236
  N     2.911284 -3.002430  3.327487
  N     3.555963  1.564385  3.953743
  S     2.292528 -3.518644  1.889330
  S     2.559065  1.460264  2.594057
  S     5.235160 -2.390133 -0.723594
  S     5.357043  1.271260 -0.517197
  S     4.381713 -2.261081  3.277419
  S     5.226429  1.671033  3.672906
