16  
    
  C     4.539694 -2.107995  1.549162
  C     5.151437  1.398401  1.932903
  C     3.545514 -2.892350  0.882068
  C     3.834747  1.265252  1.394004
  N     5.633628 -1.779155  0.819116
  N     6.094041  1.384980  0.967809
  N     3.819647 -3.100694 -0.423609
  N     3.710692  1.172135  0.077246
  N     2.897205 -2.903336  3.364144
  N     3.441503  1.724396  3.881209
  S     2.255118 -3.482975  1.898477
  S     2.546987  1.447004  2.567592
  S     5.306274 -2.384125 -0.741764
  S     5.229552  1.325556 -0.465862
  S     4.398429 -2.167858  3.264014
  S     5.079080  1.521172  3.668423
