16  
    
  C     5.449642 -2.134590  1.919079
  C     5.308140  1.634924  1.673606
  C     4.283888 -2.601914  1.189763
  C     4.259068  0.895369  0.939552
  N     6.470448 -1.971669  1.101536
  N     6.318073  2.145854  0.960079
  N     4.428080 -2.699849 -0.100061
  N     4.460822  0.978020 -0.372565
  N     3.640424 -2.667645  3.670914
  N     3.442299  0.903038  3.366751
  S     2.952979 -3.029918  2.234503
  S     2.852741  0.439313  1.824786
  S     5.979809 -2.255045 -0.450222
  S     5.856537  1.787563 -0.633711
  S     5.190452 -2.136504  3.616006
  S     4.954430  1.585639  3.355594
