16  
    
  C    10.916019  0.644969  3.043308
  C    10.949423  4.407903  3.411258
  C     9.707604  0.232703  2.385894
  C     9.817279  3.816885  2.772717
  N    11.884519  0.959871  2.204140
  N    11.975797  4.621286  2.616394
  N     9.865356 -0.019776  1.108149
  N     9.923505  3.655640  1.458678
  N     9.243818  0.182869  4.953348
  N     9.198616  4.062945  5.245551
  S     8.452631 -0.179407  3.516554
  S     8.456712  3.512945  3.857683
  S    11.412144  0.518253  0.660490
  S    11.440671  4.227536  1.078083
  S    10.801527  0.718224  4.833629
  S    10.717589  4.688582  5.096357
