16  
    
  C    10.990170  0.484499  3.240416
  C    11.061124  4.274568  3.359612
  C     9.838827  0.061144  2.491792
  C     9.840187  3.747764  2.788846
  N    11.942110  0.960969  2.448284
  N    12.057639  4.594232  2.526141
  N    10.066162 -0.053448  1.200150
  N     9.894828  3.775075  1.460349
  N     9.128894  0.158989  4.955479
  N     9.353239  3.997682  5.308442
  S     8.409575 -0.179138  3.485078
  S     8.579020  3.500481  3.946214
  S    11.473159  0.728511  0.870603
  S    11.409636  4.211390  0.993908
  S    10.719606  0.615501  4.931076
  S    10.918161  4.513078  5.096684
