16  
    
  C     3.455942 -3.095149  1.031916
  C     3.718732  0.539172  1.396260
  C     2.171291 -3.455292  0.435059
  C     2.483507  0.154743  0.689199
  N     4.422268 -2.835611  0.162186
  N     4.747377  0.837816  0.628207
  N     2.233647 -3.570106 -0.876862
  N     2.717388  0.003533 -0.614212
  N     1.654437 -3.326776  2.950088
  N     1.956977  0.354369  3.171349
  S     0.844247 -3.607750  1.529944
  S     1.111704  0.122099  1.740625
  S     3.830351 -3.353346 -1.322782
  S     4.257303  0.444266 -0.935437
  S     3.233753 -3.028648  2.832726
  S     3.534558  0.865590  3.115232
