16  
    
  C     7.225416 -1.219749  2.187659
  C     7.747671  2.852073  2.225068
  C     6.112925 -1.777542  1.460059
  C     6.542769  2.313670  1.623827
  N     8.266913 -0.899982  1.462884
  N     8.792548  2.903651  1.419036
  N     6.327594 -1.844597  0.167832
  N     6.660054  2.109282  0.322622
  N     5.402919 -1.816999  3.930857
  N     6.050914  2.593158  4.108681
  S     4.670618 -2.048773  2.462094
  S     5.280019  2.029826  2.785604
  S     7.833587 -1.203401 -0.129422
  S     8.201446  2.541930 -0.082299
  S     6.977859 -1.216796  3.940215
  S     7.577569  3.143854  3.939816
