16  
    
  C    12.707906  1.755861  3.584209
  C    12.872868  5.529169  3.743655
  C    11.530568  1.216458  2.996290
  C    11.688985  4.867014  3.099659
  N    13.825547  1.734421  2.840185
  N    13.872130  5.752229  2.905416
  N    11.688469  0.875680  1.722283
  N    11.863069  4.525681  1.842103
  N    10.849028  1.630238  5.372322
  N    11.182867  5.346752  5.614143
  S    10.126380  1.043954  4.015417
  S    10.369129  4.766903  4.327213
  S    13.343758  1.077882  1.395814
  S    13.364204  5.155001  1.427206
  S    12.462426  1.940762  5.306954
  S    12.700229  5.861252  5.434948
