16  
    
  C    11.360641  0.940102  3.226237
  C    11.436551  4.773899  3.114444
  C    10.124527  0.475419  2.598397
  C    10.284706  4.137904  2.491912
  N    12.294454  1.176797  2.342280
  N    12.545252  4.896357  2.331454
  N    10.204657  0.135322  1.333440
  N    10.528567  3.882309  1.231665
  N     9.655894  0.857364  5.163073
  N     9.708213  4.363534  5.025520
  S     8.890439  0.309990  3.788782
  S     9.014032  3.759110  3.655068
  S    11.705674  0.660578  0.859491
  S    12.081112  4.344260  0.801242
  S    11.250762  1.240427  4.869042
  S    11.204999  5.015023  4.858745
