16  
    
  C    12.680736  1.487038  3.601340
  C    12.889609  5.491407  3.747445
  C    11.500592  0.857855  2.946030
  C    11.783935  4.935307  3.072247
  N    13.719887  1.663289  2.746836
  N    13.921342  5.813192  2.948674
  N    11.660109  0.619430  1.643395
  N    11.922466  4.681315  1.729921
  N    10.811187  1.449312  5.355801
  N    11.087235  5.113799  5.506233
  S    10.148547  0.827967  3.986624
  S    10.371237  4.684597  4.062931
  S    13.223519  1.187932  1.245736
  S    13.442165  5.265184  1.426372
  S    12.358424  2.020362  5.234624
  S    12.596572  5.790171  5.458124
