16  
    
  C     7.099536 -1.287932  2.220720
  C     7.152171  2.185344  2.098201
  C     5.892130 -1.792450  1.597650
  C     5.922366  1.805037  1.440028
  N     8.101176 -1.137349  1.394568
  N     8.135170  2.263443  1.187461
  N     6.036781 -2.060296  0.320343
  N     5.995435  1.548607  0.123150
  N     5.363735 -1.477228  4.141467
  N     5.425363  1.921963  3.983465
  S     4.592017 -1.977772  2.742005
  S     4.631725  1.625124  2.556876
  S     7.624851 -1.651891 -0.055997
  S     7.555137  1.880823 -0.238731
  S     7.024093 -1.230143  3.944727
  S     6.983855  2.581253  3.796974
