16  
    
  C     5.727956 -2.074515  2.103110
  C     5.925908  1.487325  1.955216
  C     4.599731 -2.721741  1.480969
  C     4.756361  1.011703  1.268917
  N     6.698133 -1.877605  1.225231
  N     6.975320  1.855810  1.225288
  N     4.669034 -2.853843  0.158888
  N     4.829156  1.105551 -0.038952
  N     3.912055 -2.229329  3.883699
  N     4.153530  0.939206  3.782078
  S     3.236635 -2.919722  2.577131
  S     3.416902  0.564516  2.321502
  S     6.231602 -2.487689 -0.213643
  S     6.439894  1.589062 -0.397365
  S     5.487745 -1.881755  3.800246
  S     5.644183  1.601476  3.669202
