16  
    
  C    12.150561  1.689703  3.354135
  C    12.262301  5.330291  3.590519
  C    11.086846  0.996895  2.600049
  C    11.172736  4.721006  2.923604
  N    13.221796  1.825730  2.568817
  N    13.362052  5.631433  2.880490
  N    11.327781  0.789080  1.285683
  N    11.485558  4.461208  1.610319
  N    10.302877  1.255469  5.050774
  N    10.475895  4.848861  5.430954
  S     9.673912  0.768994  3.559383
  S     9.773528  4.385163  3.987411
  S    12.882170  1.342860  1.065924
  S    12.974878  5.090449  1.359641
  S    11.858860  1.825915  5.002487
  S    11.972136  5.649417  5.248959
