16  
    
  C    11.379796  0.983632  3.046778
  C    11.371720  4.631285  3.409539
  C    10.175548  0.416349  2.462090
  C    10.217780  3.926204  2.815997
  N    12.393209  1.142383  2.242634
  N    12.315084  4.917009  2.558931
  N    10.378635  0.036650  1.228131
  N    10.369705  3.620347  1.517470
  N     9.620161  0.836457  4.919435
  N     9.512931  4.500852  5.180832
  S     8.888320  0.207176  3.592588
  S     8.860305  3.748129  3.866854
  S    11.837933  0.571974  0.770526
  S    11.822284  4.249669  1.042692
  S    11.213981  1.247418  4.707564
  S    11.049919  5.149217  5.030476
