16  
    
  C    11.291469  1.083643  3.280313
  C    11.477928  4.768610  2.823643
  C    10.082540  0.570359  2.757429
  C    10.291821  4.307673  2.230580
  N    12.262679  1.253950  2.426613
  N    12.431098  5.023599  1.959317
  N    10.045157  0.508830  1.438556
  N    10.365366  4.063500  0.900441
  N     9.732733  0.646540  5.232952
  N     9.842492  4.383395  4.748401
  S     8.828705  0.395140  3.867761
  S     8.969775  3.971907  3.359402
  S    11.577254  0.872853  0.931083
  S    11.881282  4.543798  0.477263
  S    11.245133  1.288723  5.037368
  S    11.379197  5.027319  4.482180
