16  
    
  C     7.274563 -1.504041  2.112764
  C     7.569023  2.554723  2.168773
  C     6.122404 -2.043748  1.432496
  C     6.341271  2.141626  1.580078
  N     8.334288 -1.269787  1.374813
  N     8.502577  2.912089  1.289424
  N     6.214547 -1.967999  0.110323
  N     6.458251  2.015086  0.254761
  N     5.613458 -2.118553  4.021959
  N     5.911415  2.246962  4.150602
  S     4.927839 -2.603159  2.557479
  S     5.069382  1.951807  2.701488
  S     7.792966 -1.502894 -0.187568
  S     7.898213  2.488866 -0.223283
  S     7.125426 -1.575020  3.860554
  S     7.520450  2.664720  3.912634
