16  
    
  C    12.727472  1.446232  3.706808
  C    12.344154  5.019108  3.446251
  C    11.500342  1.313796  3.004692
  C    11.187483  4.445378  2.720475
  N    13.791167  1.558745  2.933262
  N    13.440904  5.212555  2.708961
  N    11.559676  1.198053  1.695272
  N    11.429037  4.312057  1.440129
  N    10.903864  1.851966  5.471756
  N    10.421535  4.542323  5.124831
  S    10.143423  1.375075  4.064106
  S     9.760107  4.199634  3.702317
  S    13.174991  1.351497  1.341871
  S    12.959153  4.791212  1.126866
  S    12.595696  1.875344  5.430103
  S    11.964618  5.115592  5.149956
