16  
    
  C     7.264831 -1.704468  2.262438
  C     7.482540  2.256863  2.230784
  C     6.029303 -2.072420  1.581701
  C     6.296643  1.734551  1.604353
  N     8.322141 -1.563141  1.496894
  N     8.508269  2.355631  1.389676
  N     6.184410 -2.337913  0.295771
  N     6.426061  1.344018  0.329934
  N     5.386263 -1.578698  4.038434
  N     5.727318  2.115228  4.118977
  S     4.707719 -2.256204  2.705683
  S     4.985592  1.702730  2.712084
  S     7.769019 -1.939735 -0.011126
  S     7.953478  1.825430 -0.147774
  S     7.068843 -1.415391  3.930099
  S     7.316848  2.665446  3.901326
