16  
    
  C     4.053497 -2.835504  1.574327
  C     4.223841  1.277032  1.587397
  C     2.830260 -3.157246  0.920287
  C     2.914828  1.152964  1.018916
  N     5.179401 -2.893829  0.844855
  N     5.216346  1.295880  0.699864
  N     3.009584 -3.478834 -0.389988
  N     2.919960  0.928020 -0.285730
  N     2.235919 -2.619479  3.364519
  N     2.544953  1.325447  3.486542
  S     1.525452 -3.348794  2.040989
  S     1.562286  1.115516  2.103360
  S     4.659864 -3.257283 -0.658879
  S     4.468871  1.066354 -0.785724
  S     3.874468 -2.309367  3.202425
  S     4.132437  1.675244  3.264599
