16  
    
  C    12.702908  1.751435  3.571701
  C    12.873979  5.531425  3.745339
  C    11.530822  1.206963  2.997943
  C    11.694401  4.860611  3.093462
  N    13.818795  1.730574  2.843032
  N    13.868743  5.750256  2.903722
  N    11.688449  0.870093  1.723859
  N    11.869518  4.528093  1.841272
  N    10.846965  1.625701  5.369640
  N    11.187242  5.341509  5.614261
  S    10.124570  1.038639  4.013426
  S    10.364238  4.765768  4.324469
  S    13.343462  1.079204  1.395559
  S    13.369847  5.161959  1.428664
  S    12.462239  1.943129  5.304280
  S    12.695798  5.856767  5.431914
