16  
    
  C     4.920536 -2.488343  1.622582
  C     4.877911  1.654664  1.968801
  C     3.684187 -2.912249  0.993698
  C     3.745242  1.055980  1.329571
  N     5.920291 -2.404884  0.772414
  N     5.933759  1.898086  1.208420
  N     3.849898 -3.328595 -0.225971
  N     3.945997  0.841597  0.018456
  N     3.175155 -2.374293  3.461043
  N     3.109622  1.189614  3.895772
  S     2.332639 -2.837206  2.059776
  S     2.435577  0.716900  2.447347
  S     5.418104 -2.969462 -0.672493
  S     5.486239  1.323757 -0.295348
  S     4.800123 -2.041343  3.304698
  S     4.758773  1.571789  3.751930
