16  
    
  C    11.766087  1.180810  3.323535
  C    11.940063  4.996378  3.291257
  C    10.558137  0.565699  2.761310
  C    10.735914  4.507433  2.682900
  N    12.845403  1.289546  2.499505
  N    12.934221  5.034980  2.428140
  N    10.722907  0.330293  1.468604
  N    10.883383  4.082815  1.395428
  N     9.859217  1.083195  5.160210
  N    10.207899  5.057310  5.174693
  S     9.157372  0.573303  3.751659
  S     9.459557  4.384129  3.860911
  S    12.267282  0.621589  1.074615
  S    12.401332  4.492872  0.933700
  S    11.500852  1.378503  4.989943
  S    11.799022  5.508563  4.955926
