16  
    
  C     8.462682 -0.964444  2.387422
  C     8.261429  2.696141  2.006284
  C     7.278541 -1.272428  1.696990
  C     7.055887  2.324474  1.334874
  N     9.556739 -0.879929  1.603945
  N     9.370657  2.776019  1.241777
  N     7.420149 -1.331242  0.356976
  N     7.218718  2.125050  0.009949
  N     6.645567 -1.159913  4.129134
  N     6.421563  2.317776  3.798900
  S     5.929547 -1.607187  2.649294
  S     5.677925  1.929344  2.373784
  S     9.014257 -1.143542  0.071683
  S     8.796476  2.454657 -0.269918
  S     8.263255 -0.929785  4.073390
  S     7.969023  2.813495  3.732486
