16  
    
  C     6.046912 -2.203567  1.787484
  C     6.142633  1.749041  1.824589
  C     4.785033 -2.425609  1.113281
  C     4.813208  1.777961  1.212920
  N     7.101569 -2.228404  0.958568
  N     7.104740  1.486777  0.950799
  N     4.857079 -2.777831 -0.196758
  N     4.877524  1.697115 -0.121726
  N     4.263883 -2.115471  3.658748
  N     4.409309  2.001647  3.777091
  S     3.462965 -2.486304  2.208731
  S     3.493692  1.947200  2.358613
  S     6.507326 -2.509771 -0.586518
  S     6.426993  1.505674 -0.532001
  S     5.922671 -1.956078  3.448486
  S     6.086298  1.877622  3.553352
