16  
    
  C    12.805054  1.681159  3.352276
  C    12.504557  5.234939  3.257332
  C    11.515117  1.211173  2.737333
  C    11.267503  4.802419  2.637981
  N    13.740188  1.859448  2.463473
  N    13.471066  5.519873  2.419794
  N    11.542098  1.051263  1.426160
  N    11.328348  4.686077  1.336043
  N    11.123420  1.522198  5.299460
  N    10.967704  4.769919  5.282941
  S    10.349699  0.863026  4.000525
  S    10.088497  4.450613  3.851876
  S    13.060945  1.497883  0.952449
  S    12.888583  5.127735  0.895757
  S    12.750708  1.713295  5.040905
  S    12.485950  5.484571  4.965579
