16  
    
  C     9.011627 -0.544253  2.485011
  C     9.503912  3.484960  2.675815
  C     7.888875 -0.922432  1.661552
  C     8.250508  3.151963  2.094085
  N    10.160444 -0.418902  1.767535
  N    10.568868  3.410574  1.871866
  N     8.223086 -1.211316  0.367316
  N     8.283409  2.838968  0.769420
  N     7.071410 -0.533454  4.046766
  N     7.832094  3.775424  4.593968
  S     6.432229 -1.042172  2.617152
  S     6.996735  3.377616  3.240919
  S     9.830593 -0.890743  0.214699
  S     9.957431  2.885015  0.462049
  S     8.686914 -0.169768  4.107243
  S     9.472205  3.848237  4.426911
