16  
    
  C     9.976927 -0.117490  2.765683
  C     9.784068  3.870165  2.809070
  C     8.785504 -0.574891  2.058183
  C     8.778897  3.053722  2.184205
  N    11.037844  0.192958  1.945814
  N    10.796989  4.251153  2.032245
  N     9.062143 -0.782333  0.755667
  N     9.053690  2.886843  0.872280
  N     8.058967 -0.384554  4.480777
  N     7.879937  3.671013  4.567911
  S     7.388102 -0.954843  3.031028
  S     7.229602  3.094245  3.154518
  S    10.570633 -0.237728  0.389771
  S    10.451729  3.678120  0.557190
  S     9.660750  0.080614  4.459609
  S     9.394202  4.313798  4.416941
