16  
    
  C     4.217732 -2.685939  1.569331
  C     4.194455  1.349149  1.608029
  C     3.004300 -3.190792  1.044912
  C     2.894481  1.276514  1.037038
  N     5.183402 -2.534282  0.610883
  N     5.219419  1.369441  0.739723
  N     3.081130 -3.632912 -0.237127
  N     2.914129  0.992142 -0.273627
  N     2.381241 -2.579083  3.470644
  N     2.555690  1.587583  3.557500
  S     1.615266 -3.105537  2.096958
  S     1.642334  1.537286  2.202332
  S     4.594567 -3.323456 -0.731956
  S     4.562030  0.994028 -0.687569
  S     4.002508 -2.302758  3.312800
  S     4.195227  1.524483  3.357742
