16  
    
  C    11.066554  0.608344  2.874799
  C    11.068006  4.269749  3.279334
  C     9.834265  0.026206  2.391030
  C     9.826229  3.836604  2.659821
  N    11.972688  0.842195  1.910453
  N    12.073708  4.546174  2.459693
  N     9.859703 -0.346806  1.111688
  N     9.949045  3.768900  1.331203
  N     9.414678  0.492449  4.909819
  N     9.218418  4.191438  5.161006
  S     8.585507 -0.150558  3.602205
  S     8.482465  3.744578  3.728008
  S    11.282622  0.299211  0.467140
  S    11.536497  4.181182  0.932148
  S    10.920358  1.068370  4.523900
  S    10.831033  4.467351  5.055950
