16  
    
  C     4.785719 -2.029355  1.852195
  C     4.180105  1.075713  1.328345
  C     3.595158 -2.479241  1.241399
  C     2.980785  0.855409  0.621682
  N     5.796296 -1.810479  0.954888
  N     5.224399  1.339299  0.569206
  N     3.701090 -2.692404 -0.089090
  N     3.120152  0.808356 -0.694539
  N     2.914813 -2.009403  3.666230
  N     2.381859  1.169556  3.100609
  S     2.185205 -2.475659  2.243142
  S     1.615100  0.666309  1.681753
  S     5.231935 -2.327282 -0.505050
  S     4.723567  1.145932 -0.964644
  S     4.552994 -1.796924  3.587668
  S     4.046311  1.247225  2.983258
