16  
    
  C     7.098961 -1.419271  2.271280
  C     7.078507  2.208624  2.080312
  C     5.865135 -1.747283  1.625041
  C     5.885564  1.807898  1.418733
  N     8.117993 -1.210337  1.430407
  N     8.127399  2.388575  1.263208
  N     5.940027 -1.823537  0.300940
  N     6.072968  1.604858  0.118402
  N     5.301560 -1.837641  4.168943
  N     5.276085  1.997374  3.943151
  S     4.551479 -2.023802  2.683675
  S     4.520601  1.674582  2.511576
  S     7.547951 -1.571910 -0.079968
  S     7.637013  1.913120 -0.177568
  S     6.856639 -1.334414  4.027867
  S     6.816828  2.571971  3.773373
