16  
    
  C     4.669769 -2.541131  1.598982
  C     5.087580  1.244916  1.806352
  C     3.393971 -2.716963  0.937059
  C     3.787679  1.059954  1.183253
  N     5.761217 -2.659251  0.821419
  N     6.071599  1.570177  0.960651
  N     3.498587 -2.937144 -0.416444
  N     3.849986  1.147302 -0.139376
  N     2.830879 -2.480059  3.429764
  N     3.378903  0.878176  3.750020
  S     2.061686 -2.863641  1.983574
  S     2.531866  0.745422  2.330098
  S     5.135091 -2.877833 -0.716119
  S     5.447458  1.624184 -0.571763
  S     4.549949 -2.284619  3.328057
  S     4.912663  1.437565  3.529389
