16  
    
  C     8.637677 -1.121288  2.358593
  C     8.349592  2.807077  2.088073
  C     7.431959 -1.601627  1.761798
  C     7.155135  2.331576  1.508053
  N     9.612042 -0.720117  1.511554
  N     9.367737  3.040518  1.259771
  N     7.522080 -1.677164  0.420315
  N     7.210842  2.264907  0.176644
  N     6.784390 -1.272509  4.194974
  N     6.562354  2.619095  3.983411
  S     6.070085 -1.892612  2.843982
  S     5.795898  2.128638  2.637760
  S     9.022532 -1.094850  0.003183
  S     8.729479  2.697776 -0.287339
  S     8.449445 -0.929050  4.039980
  S     8.105049  3.148628  3.739989
