16  
    
  C     8.100861 -0.741842  2.419608
  C     8.230849  3.006684  2.322144
  C     6.937521 -1.273978  1.750738
  C     7.042961  2.470496  1.787388
  N     9.118392 -0.418160  1.637276
  N     9.239403  3.085539  1.475210
  N     7.159960 -1.604815  0.499297
  N     7.141426  2.271363  0.476701
  N     6.190800 -1.151658  4.299179
  N     6.553236  2.875831  4.273884
  S     5.539988 -1.530496  2.853567
  S     5.719710  2.362961  2.924745
  S     8.694549 -1.032019  0.128940
  S     8.647709  2.627414 -0.030630
  S     7.727270 -0.497561  4.128155
  S     8.202151  3.320926  3.992723
