16  
    
  C     7.909129 -0.831817  2.262285
  C     8.305920  2.818557  2.387387
  C     6.729503 -1.368709  1.522078
  C     7.007915  2.530642  1.839960
  N     8.871534 -0.408085  1.472822
  N     9.264814  2.917491  1.468935
  N     6.989744 -1.533406  0.248259
  N     6.984692  2.512210  0.492754
  N     6.070133 -1.138873  4.041880
  N     6.738387  3.083897  4.443275
  S     5.430180 -1.812734  2.586778
  S     5.798519  2.610805  3.116044
  S     8.461221 -0.829510 -0.069036
  S     8.552218  2.725258 -0.007844
  S     7.634298 -0.549129  3.983754
  S     8.386774  3.033183  4.113594
