16  
    
  C    10.149194  0.447372  2.785281
  C    10.664784  4.214897  2.769047
  C     8.898436 -0.020204  2.128002
  C     9.446320  3.749720  2.088160
  N    11.119870  0.738624  1.939004
  N    11.688640  4.482724  1.968253
  N     9.020293 -0.177229  0.814256
  N     9.630211  3.668496  0.766367
  N     8.549834  0.014515  4.733608
  N     9.012862  4.007051  4.687472
  S     7.706502 -0.426265  3.348676
  S     8.168485  3.703931  3.284864
  S    10.539417  0.396104  0.445107
  S    11.211782  4.149214  0.460613
  S    10.001786  0.788614  4.511065
  S    10.597259  4.571708  4.505671
