16  
    
  C    12.645864  1.594283  3.641216
  C    12.841246  5.487954  3.712376
  C    11.484341  1.074921  2.914175
  C    11.717588  4.827890  3.138664
  N    13.722974  1.681107  2.844183
  N    13.875570  5.778289  2.918202
  N    11.739991  0.693366  1.646359
  N    11.951221  4.617468  1.837700
  N    10.824932  1.547160  5.396021
  N    11.084871  5.191703  5.645599
  S    10.126157  0.935983  3.972974
  S    10.337683  4.736413  4.208738
  S    13.281442  1.127287  1.347565
  S    13.446777  5.240190  1.420199
  S    12.446971  2.003965  5.264972
  S    12.681715  5.821810  5.388455
