16  
    
  C     5.461550 -2.180643  1.592636
  C     5.259800  1.539218  1.556031
  C     4.306089 -2.559860  0.863506
  C     4.141036  1.008953  0.829063
  N     6.580250 -2.138652  0.880972
  N     6.425375  1.660965  0.884216
  N     4.543388 -2.787381 -0.403918
  N     4.419377  0.618036 -0.393534
  N     3.475883 -2.452145  3.290776
  N     3.147754  1.742919  3.089364
  S     2.903020 -2.906832  1.797386
  S     2.676201  0.758107  1.798647
  S     6.134816 -2.424794 -0.665253
  S     6.011729  1.130694 -0.701631
  S     5.120086 -2.071993  3.280956
  S     4.692478  2.234433  3.075535
