16  
    
  C    12.017908  1.212401  3.297326
  C    11.797361  4.777168  3.617437
  C    10.842851  0.738338  2.687924
  C    10.676736  4.320251  2.839919
  N    13.074513  1.515016  2.495309
  N    12.939526  4.917309  2.878217
  N    11.020839  0.480484  1.393984
  N    10.873857  4.260004  1.522643
  N    10.069492  1.170497  5.083155
  N     9.901291  4.705507  5.288613
  S     9.456968  0.476163  3.715913
  S     9.210946  4.245495  3.843608
  S    12.543204  0.925693  1.018113
  S    12.431885  4.694261  1.299925
  S    11.673368  1.520964  4.988026
  S    11.544010  5.073636  5.243822
