16  
    
  C     7.195262 -1.360395  2.288289
  C     7.828240  2.752892  2.304551
  C     6.135655 -1.921060  1.518186
  C     6.607171  2.289762  1.657503
  N     8.241114 -0.946096  1.596981
  N     8.836459  3.060775  1.455614
  N     6.304420 -1.819920  0.221947
  N     6.680974  2.097376  0.324196
  N     5.326732 -1.801792  3.956115
  N     6.035035  2.483672  4.219437
  S     4.722969 -2.227392  2.421425
  S     5.264277  2.061609  2.718144
  S     7.806142 -1.162651  0.012410
  S     8.313397  2.593353 -0.045545
  S     6.853660 -1.230768  3.964042
  S     7.581964  3.084966  4.032470
