16  
    
  C     8.404695 -0.872319  2.449618
  C     8.232356  2.508404  2.098763
  C     7.136376 -1.243300  1.900831
  C     7.059519  2.156126  1.339473
  N     9.442798 -0.918591  1.641548
  N     9.381349  2.609315  1.440254
  N     7.196564 -1.506469  0.606559
  N     7.329790  1.941396  0.049626
  N     6.634557 -0.569001  4.297199
  N     6.339230  2.084255  3.775284
  S     5.767380 -1.249702  3.050680
  S     5.602100  1.904482  2.316900
  S     8.806727 -1.415106  0.178679
  S     9.007626  2.159663 -0.118892
  S     8.340888 -0.485823  4.119278
  S     7.877433  2.640811  3.769753
