16  
    
  C     8.968437 -0.317690  2.572991
  C     8.537648  3.434358  2.547491
  C     7.731334 -0.636244  1.906872
  C     7.399181  2.911230  1.962267
  N     9.953767 -0.045716  1.700930
  N     9.489833  3.754131  1.676101
  N     7.809210 -0.766334  0.536509
  N     7.420456  2.826570  0.632730
  N     7.157978 -0.603923  4.474375
  N     7.058912  2.721974  4.504580
  S     6.393072 -0.947485  2.980144
  S     6.258654  2.428280  3.091340
  S     9.372164 -0.363343  0.162424
  S     8.870580  3.422851  0.154441
  S     8.807028 -0.213676  4.379286
  S     8.606482  3.264848  4.310882
