16  
    
  C     5.420052 -2.187372  1.517206
  C     5.126994  1.596416  1.573891
  C     4.265295 -2.633656  0.759456
  C     4.149250  0.779555  0.970563
  N     6.549839 -2.009634  0.868728
  N     6.241738  1.753034  0.855681
  N     4.514428 -2.812558 -0.520079
  N     4.424520  0.448852 -0.279797
  N     3.519992 -2.459589  3.262506
  N     3.138762  1.817956  3.140494
  S     2.868275 -2.878557  1.787583
  S     2.637529  0.855246  1.848816
  S     6.137102 -2.482180 -0.739569
  S     5.970134  1.000292 -0.555076
  S     5.099486 -1.963210  3.276701
  S     4.724693  2.351292  3.046461
