16  
    
  C     4.575815 -2.651617  1.587901
  C     5.081928  1.372519  1.733868
  C     3.311690 -2.797035  0.933772
  C     3.797406  1.116110  1.059847
  N     5.644194 -2.605298  0.774245
  N     6.094325  1.506495  0.892221
  N     3.435305 -2.822486 -0.415205
  N     3.849211  1.341587 -0.266887
  N     2.804066 -2.676622  3.397940
  N     3.455897  1.000705  3.665497
  S     1.973302 -2.821005  1.971848
  S     2.543448  0.719387  2.257370
  S     5.068658 -2.819586 -0.772361
  S     5.448632  1.537105 -0.631429
  S     4.415900 -2.378661  3.282222
  S     5.058625  1.410629  3.470177
