16  
    
  C     4.676464 -2.541298  1.598626
  C     5.088778  1.248744  1.815944
  C     3.395348 -2.708801  0.937266
  C     3.794173  1.059057  1.188122
  N     5.765458 -2.658145  0.825024
  N     6.074174  1.575739  0.962629
  N     3.503204 -2.945926 -0.409802
  N     3.852219  1.138799 -0.135129
  N     2.832412 -2.472188  3.430345
  N     3.376544  0.876329  3.758347
  S     2.067346 -2.864838  1.987188
  S     2.527380  0.745659  2.329140
  S     5.140841 -2.879460 -0.716413
  S     5.442741  1.623978 -0.564544
  S     4.553261 -2.281436  3.326475
  S     4.909124  1.438595  3.530905
