16  
    
  C     8.041607 -0.755369  2.412635
  C     8.219685  2.991961  2.336123
  C     6.907238 -1.267396  1.747176
  C     7.024479  2.485866  1.771167
  N     9.097570 -0.405186  1.625194
  N     9.213848  3.081940  1.455602
  N     7.153266 -1.578617  0.457519
  N     7.135662  2.280637  0.441448
  N     6.175616 -1.167703  4.282422
  N     6.597070  2.848276  4.323350
  S     5.541992 -1.549182  2.848157
  S     5.731099  2.410093  2.938150
  S     8.697004 -1.001404  0.119493
  S     8.647331  2.599101 -0.021765
  S     7.708737 -0.496209  4.130516
  S     8.232653  3.324332  3.995730
