16  
    
  C     6.087657 -1.589298  2.406392
  C     6.638162  2.175113  2.169438
  C     5.020552 -2.313550  1.730657
  C     5.380311  1.781758  1.603272
  N     7.070709 -1.139591  1.613837
  N     7.647666  2.280054  1.300035
  N     5.364919 -2.653337  0.468407
  N     5.451531  1.600063  0.294243
  N     4.469854 -2.355192  4.226264
  N     4.954069  1.776129  4.125192
  S     3.751189 -2.825665  2.829895
  S     4.099325  1.423338  2.742390
  S     6.753527 -1.705442  0.063201
  S     6.968250  1.975122 -0.161532
  S     5.901651 -1.497295  4.103001
  S     6.502445  2.243570  3.936111
