16  
    
  C     7.907794 -1.018853  1.862679
  C     7.933918  2.948813  2.402269
  C     6.661532 -1.370748  1.244356
  C     6.801131  2.389389  1.701694
  N     8.872276 -0.933089  0.986832
  N     9.036971  3.203569  1.659989
  N     6.707769 -1.686557 -0.024690
  N     7.018630  2.193617  0.415371
  N     6.082598 -0.941317  3.740603
  N     5.962740  2.561845  4.161357
  S     5.323860 -1.535851  2.395987
  S     5.319486  2.183755  2.633148
  S     8.268445 -1.359731 -0.499855
  S     8.591459  2.780842  0.107065
  S     7.700572 -0.539658  3.502691
  S     7.553042  3.153860  4.113128
