16  
    
  C     8.112003 -0.694242  2.460627
  C     8.282566  3.006711  2.311631
  C     6.962704 -1.317826  1.803087
  C     7.032901  2.463843  1.773907
  N     9.145231 -0.458768  1.649409
  N     9.295152  3.107061  1.470589
  N     7.167718 -1.621184  0.522855
  N     7.108598  2.235605  0.501259
  N     6.245828 -1.112118  4.306304
  N     6.532589  2.914166  4.221374
  S     5.533169 -1.517511  2.830363
  S     5.717053  2.309710  2.908720
  S     8.686412 -1.067753  0.141468
  S     8.650681  2.664099 -0.024708
  S     7.768240 -0.493046  4.137200
  S     8.145037  3.311044  4.008575
