16  
    
  C    11.313839  1.025495  3.308939
  C    11.636314  4.667370  2.857738
  C    10.091315  0.632783  2.726195
  C    10.437199  4.171390  2.267561
  N    12.302112  0.992549  2.396039
  N    12.665674  4.856913  2.034941
  N    10.002968  0.452864  1.406255
  N    10.524553  4.017101  0.973853
  N     9.601144  0.792828  5.299449
  N     9.808350  4.477361  4.818621
  S     8.800334  0.431063  3.907952
  S     9.099821  3.956215  3.407779
  S    11.581975  0.660563  0.942934
  S    12.051281  4.530521  0.488087
  S    11.177253  1.210493  5.056917
  S    11.445912  4.815854  4.675094
