16  
    
  C     5.161080 -2.368129  1.589920
  C     4.936814  1.535630  2.077261
  C     3.965459 -2.959449  1.009082
  C     3.840549  0.873220  1.391813
  N     6.114774 -2.235434  0.692872
  N     5.999497  1.650623  1.304451
  N     4.094096 -3.338263 -0.282632
  N     3.981274  0.665584  0.091870
  N     3.386356 -2.408513  3.442515
  N     3.039701  1.321235  3.785746
  S     2.590007 -2.977334  2.103915
  S     2.425132  0.778628  2.319697
  S     5.653918 -2.958950 -0.697383
  S     5.571454  1.101594 -0.216764
  S     4.938988 -1.819104  3.257699
  S     4.592570  2.102735  3.722857
