16  
    
  C    10.060243  0.063307  2.679527
  C     9.890046  4.012291  2.745465
  C     8.894333 -0.553122  2.113286
  C     8.892595  3.083418  2.234252
  N    11.047407  0.251108  1.749560
  N    10.872053  4.363799  1.925626
  N     8.959000 -0.680669  0.764610
  N     9.263203  2.676696  1.025968
  N     8.305179 -0.408827  4.546354
  N     8.197094  3.501765  4.680637
  S     7.541372 -0.822126  3.123504
  S     7.808962  2.487288  3.415168
  S    10.438867 -0.217582  0.288215
  S    10.657162  3.326322  0.575596
  S     9.827513  0.169324  4.395156
  S     9.467454  4.542032  4.317623
