16  
    
  C     4.635562 -2.552966  1.599154
  C     5.052565  1.259923  1.741665
  C     3.396113 -2.797094  0.890235
  C     3.785601  1.060106  1.124764
  N     5.686427 -2.653426  0.791661
  N     6.066049  1.526131  0.948652
  N     3.472516 -2.854381 -0.419592
  N     3.833490  1.236630 -0.198634
  N     2.838219 -2.554314  3.421791
  N     3.406586  0.911327  3.679242
  S     2.014208 -2.848053  1.965159
  S     2.551700  0.738171  2.326952
  S     5.093780 -2.863708 -0.720698
  S     5.468323  1.606536 -0.617927
  S     4.501907 -2.318277  3.327993
  S     4.962585  1.428505  3.519141
