16  
    
  C     9.985215 -0.063630  2.672823
  C     9.915821  3.877387  2.742794
  C     8.751352 -0.476296  2.039975
  C     9.002020  2.808955  2.254940
  N    11.011378  0.211089  1.832151
  N    10.911601  4.172533  1.921274
  N     8.874577 -0.684997  0.694550
  N     9.209867  2.473517  0.980795
  N     8.342100 -0.459746  4.584757
  N     8.448595  3.415067  4.716455
  S     7.522460 -0.724055  3.200494
  S     7.812135  2.491218  3.490321
  S    10.457384 -0.222856  0.324063
  S    10.599035  3.431355  0.488498
  S     9.923545  0.133548  4.392077
  S     9.561373  4.569923  4.312053
