16  
    
  C    12.442294  1.658166  3.353991
  C    12.808300  5.505806  3.680958
  C    11.348034  0.978881  2.735815
  C    11.713459  4.964826  2.848885
  N    13.482303  1.865195  2.558417
  N    13.888590  5.740803  3.020621
  N    11.520335  0.727556  1.464078
  N    12.031564  4.956588  1.537702
  N    10.862042  1.225659  5.331401
  N    10.895273  5.113202  5.251285
  S    10.191600  0.488877  3.990858
  S    10.336054  4.545181  3.829205
  S    13.036187  1.220860  1.081019
  S    13.645378  5.411944  1.436324
  S    12.407374  1.798328  5.101756
  S    12.466509  5.641059  5.330431
