16  
    
  C    10.455498  0.601888  3.046555
  C    10.590323  4.459132  2.830692
  C     9.264040  0.017050  2.457236
  C     9.342456  4.035120  2.238384
  N    11.407586  0.845906  2.173863
  N    11.625900  4.601618  2.025266
  N     9.332498 -0.130222  1.151190
  N     9.455921  3.779296  0.933652
  N     8.752001  0.470166  4.965305
  N     8.894241  4.549608  4.735332
  S     8.024228 -0.250645  3.665362
  S     8.121610  3.703511  3.511939
  S    10.841520  0.399583  0.685625
  S    11.036218  4.101728  0.510144
  S    10.296291  0.989292  4.701035
  S    10.529313  4.845098  4.440742
