16  
    
  C    11.290859  1.067101  3.279302
  C    11.460359  4.809539  2.835678
  C    10.049242  0.623709  2.707666
  C    10.264356  4.303576  2.242255
  N    12.271740  1.296460  2.377827
  N    12.428412  5.041629  1.945629
  N    10.046170  0.531851  1.376757
  N    10.376289  4.027363  0.929589
  N     9.759455  0.630758  5.266411
  N     9.821869  4.409954  4.733590
  S     8.875399  0.358920  3.901790
  S     8.956024  3.958103  3.356694
  S    11.617521  0.877903  0.917636
  S    11.883811  4.567703  0.518982
  S    11.227774  1.304815  5.024949
  S    11.366093  5.033650  4.484480
