16  
    
  C     8.962880 -0.303309  2.562922
  C     8.544611  3.437065  2.548575
  C     7.731024 -0.646617  1.908491
  C     7.388511  2.916247  1.954833
  N     9.957837 -0.049853  1.696584
  N     9.500133  3.751966  1.671724
  N     7.809061 -0.764566  0.546643
  N     7.423514  2.815679  0.630352
  N     7.152486 -0.595006  4.481698
  N     7.065260  2.729009  4.515013
  S     6.397084 -0.951020  2.982892
  S     6.265439  2.446255  3.093505
  S     9.378821 -0.368042  0.157205
  S     8.875027  3.431384  0.161184
  S     8.807656 -0.221150  4.381123
  S     8.619410  3.264811  4.315869
