16  
    
  C    12.493281  1.632839  3.421509
  C    12.818843  5.509455  3.660900
  C    11.381350  0.931133  2.820884
  C    11.720568  5.058017  2.905126
  N    13.523168  1.772538  2.583426
  N    13.974547  5.779990  2.982943
  N    11.520202  0.658723  1.512805
  N    12.006097  4.958491  1.597970
  N    10.855483  1.297225  5.282932
  N    10.913756  5.128974  5.343554
  S    10.197854  0.515449  3.975542
  S    10.346106  4.531711  3.901778
  S    13.076470  1.210178  1.121890
  S    13.615332  5.362543  1.426682
  S    12.401680  1.870865  5.151321
  S    12.456461  5.661284  5.358805
