16  
    
  C    11.971809  1.469548  3.434495
  C    12.338420  5.121146  3.200013
  C    10.850530  0.787932  2.757729
  C    11.013042  4.820243  2.660043
  N    13.050388  1.530848  2.674492
  N    13.379598  5.002020  2.399169
  N    11.106872  0.445244  1.492428
  N    11.087354  4.379347  1.412838
  N    10.132278  1.144452  5.244107
  N    10.431112  5.375818  5.060558
  S     9.528513  0.698712  3.736897
  S     9.639870  4.814985  3.696482
  S    12.711438  0.848248  1.256917
  S    12.717850  4.479449  0.940390
  S    11.750781  1.614789  5.141199
  S    12.031650  5.700169  4.870559
