16  
    
  C    11.075394  0.572802  3.063707
  C    10.985042  4.372420  2.935330
  C     9.889207  0.004324  2.502502
  C     9.935327  3.685756  2.261176
  N    12.033586  0.726070  2.168954
  N    12.009465  4.567708  2.136160
  N     9.941068 -0.104313  1.183797
  N    10.143264  3.302735  0.998128
  N     9.270858  0.476199  4.957468
  N     9.082582  4.189092  4.646348
  S     8.537787 -0.150073  3.606049
  S     8.511936  3.452904  3.252251
  S    11.450685  0.247398  0.689179
  S    11.604813  3.930552  0.615721
  S    10.920280  0.713346  4.795986
  S    10.687838  4.573733  4.658297
