16  
    
  C     7.135570 -1.640465  1.986070
  C     7.063760  2.071886  1.989303
  C     5.961724 -2.032347  1.220122
  C     5.819551  1.735531  1.310698
  N     8.201895 -1.381409  1.216237
  N     8.066961  2.342687  1.179183
  N     6.160615 -2.187809 -0.126546
  N     5.921540  1.637449  0.004510
  N     5.233280 -1.777312  3.714659
  N     5.215950  1.736050  3.820906
  S     4.544177 -2.137286  2.275482
  S     4.475200  1.505530  2.363425
  S     7.771334 -1.835656 -0.351926
  S     7.538148  1.979942 -0.405595
  S     6.868328 -1.321126  3.641331
  S     6.849547  2.155707  3.749226
