16  
    
  C     7.821571 -0.764490  2.214579
  C     8.361989  2.779958  2.372583
  C     6.773046 -1.435537  1.560403
  C     7.015655  2.604735  1.854685
  N     8.857690 -0.417360  1.454098
  N     9.332983  2.911648  1.477849
  N     6.969861 -1.613070  0.249685
  N     6.941721  2.509131  0.533729
  N     6.119943 -1.198233  3.953843
  N     6.659976  3.086515  4.399792
  S     5.391368 -1.767514  2.536121
  S     5.740118  2.534498  3.143244
  S     8.423421 -0.870560 -0.065633
  S     8.578080  2.798037  0.001752
  S     7.652201 -0.560984  3.876429
  S     8.353019  2.999071  4.124502
