16  
    
  C     4.282130 -2.572400  1.606225
  C     4.191308  1.161806  1.709559
  C     3.028752 -3.047122  1.064105
  C     2.846914  1.194200  1.118001
  N     5.294994 -2.671306  0.714236
  N     5.209831  0.989240  0.891008
  N     3.085183 -3.473671 -0.207368
  N     2.883178  0.949892 -0.182413
  N     2.563297 -2.596087  3.517826
  N     2.526610  1.308262  3.626596
  S     1.852522 -3.402674  2.254619
  S     1.580372  1.225962  2.261936
  S     4.591285 -3.142961 -0.734405
  S     4.502022  0.856202 -0.577835
  S     4.142064 -2.044601  3.248912
  S     4.148847  1.487164  3.393315
