16  
    
  C     7.951385 -0.703661  2.340682
  C     8.398847  2.937171  2.341014
  C     6.830270 -1.306702  1.676718
  C     7.040652  2.650708  1.837880
  N     9.010303 -0.431833  1.569791
  N     9.321954  2.984623  1.392828
  N     6.987648 -1.367742  0.360150
  N     6.945329  2.329252  0.562367
  N     6.057814 -1.059857  4.102446
  N     6.773822  2.858059  4.384104
  S     5.535044 -1.810503  2.693355
  S     5.775289  2.710452  3.040199
  S     8.518011 -0.822662  0.004930
  S     8.530298  2.584614  0.000402
  S     7.584508 -0.569771  4.040658
  S     8.410786  3.167723  4.076452
