16  
    
  C     9.721563  0.126282  2.726359
  C     9.722036  3.717513  2.635414
  C     8.503051 -0.309296  2.137926
  C     8.596583  3.056416  1.976472
  N    10.663298  0.549754  1.868142
  N    10.672335  4.013433  1.775408
  N     8.527311 -0.469203  0.818451
  N     8.659381  2.957195  0.630929
  N     8.185774 -0.660225  4.695616
  N     8.171415  3.281611  4.558464
  S     7.453648 -1.037434  3.260949
  S     7.368704  2.784255  3.183393
  S    10.019415  0.162004  0.362333
  S    10.162642  3.623987  0.259940
  S     9.739524 -0.052649  4.502107
  S     9.728193  3.853977  4.411339
