16  
    
  C     8.946516 -0.368613  2.541376
  C     8.827504  3.347791  2.611887
  C     7.682122 -0.692301  1.929391
  C     7.588812  2.858769  2.065894
  N     9.977716 -0.066330  1.745312
  N     9.746715  3.763169  1.741229
  N     7.828888 -0.838090  0.584203
  N     7.615010  2.926334  0.736641
  N     7.232702 -0.546895  4.441084
  N     7.220204  2.958122  4.585908
  S     6.429771 -1.039864  3.034921
  S     6.265182  2.693035  3.240125
  S     9.383808 -0.377369  0.254369
  S     9.103264  3.450767  0.241689
  S     8.891276 -0.302204  4.252548
  S     8.805768  3.387089  4.299671
