16  
    
  C     9.838911 -0.235614  2.828094
  C     9.693288  3.991217  2.752385
  C     8.713266 -0.601821  2.097715
  C     8.511835  3.533629  2.094141
  N    10.928440  0.079231  2.064684
  N    10.782882  3.992165  1.960704
  N     8.936286 -0.768637  0.768900
  N     8.662871  3.413149  0.767823
  N     7.889970 -0.288889  4.494408
  N     7.802490  3.584966  4.524580
  S     7.320206 -0.927922  3.074908
  S     7.106871  3.158342  3.077855
  S    10.508190 -0.369615  0.537325
  S    10.227356  3.632021  0.435190
  S     9.542142  0.021516  4.462484
  S     9.395601  4.056398  4.503327
