16  
    
  C     6.120614 -1.895617  1.663324
  C     6.223617  1.909747  1.860218
  C     4.898770 -2.367741  1.031868
  C     4.977750  1.835194  1.163024
  N     7.174328 -2.078076  0.890775
  N     7.292249  1.818586  1.074562
  N     5.018415 -2.664447 -0.243528
  N     5.047282  1.632216 -0.146434
  N     4.282309 -1.981063  3.583361
  N     4.423560  1.735093  3.681020
  S     3.578778 -2.513440  2.162272
  S     3.582197  1.983137  2.234328
  S     6.565969 -2.397058 -0.609908
  S     6.718599  1.697919 -0.522126
  S     5.939515 -1.612433  3.385889
  S     6.086062  1.855370  3.572300
