16  
    
  C    12.046928  1.371969  3.356902
  C    12.203623  5.167525  3.798894
  C    10.967540  0.780705  2.693579
  C    10.946094  4.785085  3.241919
  N    13.111867  1.627835  2.576570
  N    13.184719  5.328674  2.912867
  N    11.120256  0.700454  1.366735
  N    10.921034  4.695315  1.872982
  N    10.322883  1.143118  5.226360
  N    10.599617  4.765060  5.753279
  S     9.609985  0.570684  3.810622
  S     9.643567  4.523639  4.381819
  S    12.674842  1.281672  1.049972
  S    12.456849  5.055578  1.410488
  S    11.863298  1.798535  5.099718
  S    12.204728  5.197677  5.508032
