16  
    
  C    12.612589  1.551554  3.764456
  C    12.353155  5.027270  3.415296
  C    11.307491  1.143707  3.150301
  C    11.132726  4.631855  2.785649
  N    13.594854  1.766062  2.879722
  N    13.415665  5.118331  2.625642
  N    11.439419  0.888215  1.864592
  N    11.218407  4.553699  1.428363
  N    10.841606  1.255214  5.673329
  N    10.637213  4.990971  5.266661
  S     9.982829  1.000465  4.238374
  S     9.854024  4.506366  3.918132
  S    12.972186  1.398306  1.406429
  S    12.782169  4.790171  1.086116
  S    12.452740  1.740443  5.466982
  S    12.230239  5.318340  5.183100
