16  
    
  C    10.929638  0.565363  2.963841
  C    10.731967  4.406691  2.781905
  C     9.700905  0.154602  2.343714
  C     9.743215  3.585143  2.156374
  N    11.968297  0.461838  2.172512
  N    11.883966  4.631646  2.109836
  N     9.788783 -0.071907  1.052772
  N    10.114291  3.210665  0.947151
  N     9.229690  0.461367  4.886418
  N     8.921147  4.152543  4.549324
  S     8.401564  0.088976  3.491273
  S     8.336450  3.455827  3.191366
  S    11.383139  0.113151  0.666460
  S    11.631805  3.812027  0.607217
  S    10.760552  1.085042  4.633862
  S    10.424020  4.885528  4.447887
