16  
    
  C     4.911889 -2.506030  1.634649
  C     4.885550  1.624205  1.974886
  C     3.668016 -2.907390  0.980590
  C     3.728056  1.061621  1.321290
  N     5.903642 -2.399814  0.782520
  N     5.926894  1.910608  1.191008
  N     3.822536 -3.297336 -0.240012
  N     3.945880  0.854198  0.006855
  N     3.149434 -2.361261  3.469099
  N     3.129668  1.177210  3.901804
  S     2.314855 -2.838580  2.059922
  S     2.443579  0.716457  2.427270
  S     5.410119 -2.976093 -0.676824
  S     5.475254  1.338848 -0.303241
  S     4.792912 -2.055023  3.307003
  S     4.776361  1.554264  3.761557
