16  
    
  C     5.466899 -2.240374  1.854675
  C     5.250826  1.607734  1.625024
  C     4.295899 -2.696432  1.092888
  C     4.187948  1.014974  0.793824
  N     6.470600 -1.972088  1.078482
  N     6.261308  2.104332  0.899260
  N     4.429816 -2.689850 -0.210486
  N     4.481940  0.860526 -0.485700
  N     3.635624 -2.706675  3.600856
  N     3.379196  0.991472  3.240215
  S     2.908387 -3.023310  2.109819
  S     2.828226  0.640839  1.728049
  S     6.031844 -2.302986 -0.481029
  S     5.985265  1.632938 -0.708441
  S     5.211830 -2.194746  3.599555
  S     4.880320  1.669351  3.371260
