16  
    
  C    11.304965  1.141123  3.197878
  C    11.371759  4.911778  2.836008
  C    10.079499  0.732937  2.636097
  C    10.263029  4.225019  2.251538
  N    12.292899  1.354606  2.346692
  N    12.429932  5.139516  2.062502
  N    10.121619  0.562850  1.302354
  N    10.400207  3.988302  0.923294
  N     9.779304  0.639193  5.332921
  N     9.730504  4.519701  4.745247
  S     8.920759  0.216441  3.968486
  S     8.969314  3.935957  3.374177
  S    11.702781  0.920208  0.840853
  S    11.892823  4.607401  0.524073
  S    11.264383  1.350258  4.951523
  S    11.293669  5.041692  4.570434
