16  
    
  C     4.742529 -2.012078  1.787027
  C     4.278294  1.250348  1.327169
  C     3.514117 -2.415041  1.200553
  C     3.076588  0.825449  0.652841
  N     5.772257 -1.827746  0.937821
  N     5.356751  1.500707  0.560225
  N     3.575566 -2.635316 -0.121178
  N     3.191513  0.823952 -0.670607
  N     2.995222 -1.885168  3.619858
  N     2.483286  0.942675  3.170348
  S     2.170743 -2.303585  2.241867
  S     1.699411  0.738518  1.724516
  S     5.161001 -2.286566 -0.589426
  S     4.766005  1.215356 -0.997966
  S     4.679192 -1.818269  3.512479
  S     4.072469  1.297680  3.108344
