16  
    
  C    10.932293  0.586465  2.951829
  C    10.778186  4.461521  2.790838
  C     9.679355  0.173387  2.391075
  C     9.701131  3.753951  2.196745
  N    11.941670  0.578138  2.092864
  N    11.889452  4.572361  2.009302
  N     9.742002 -0.082640  1.118387
  N     9.982118  3.253177  1.013150
  N     9.068626  0.622380  4.837957
  N     8.778022  4.329564  4.488875
  S     8.286617  0.205078  3.444030
  S     8.405555  3.303490  3.213929
  S    11.292055  0.086690  0.624259
  S    11.512793  3.745704  0.655966
  S    10.621303  1.190742  4.595859
  S    10.298085  4.997679  4.425551
