16  
    
  C     5.808455 -2.163994  1.846776
  C     6.097523  1.750164  1.949077
  C     4.582664 -2.412543  1.186058
  C     4.747808  1.680057  1.423638
  N     6.894726 -2.088417  1.038633
  N     7.054010  1.370972  1.119694
  N     4.764933 -2.678141 -0.119265
  N     4.635642  1.334696  0.157310
  N     3.995088 -2.354993  3.728902
  N     4.507940  2.038147  3.976705
  S     3.275070 -2.783640  2.247794
  S     3.583145  2.022576  2.611424
  S     6.299131 -2.307584 -0.465598
  S     6.268098  1.122535 -0.365110
  S     5.635495 -1.993087  3.588929
  S     6.169652  2.126553  3.667568
