16  
    
  C     9.741373 -0.095043  2.486437
  C     9.761619  3.464506  2.543938
  C     8.462075 -0.633676  1.949873
  C     8.532465  3.151346  1.939141
  N    10.660688 -0.025999  1.574974
  N    10.720785  3.862386  1.698917
  N     8.387991 -0.744140  0.648747
  N     8.499880  3.160349  0.624856
  N     8.243598 -0.638021  4.548407
  N     8.154359  2.958100  4.505877
  S     7.331814 -1.000081  3.206141
  S     7.373483  2.722973  3.047127
  S     9.969100 -0.394809  0.096650
  S    10.023337  3.682452  0.128028
  S     9.796270 -0.164747  4.253924
  S     9.731062  3.538394  4.342546
