16  
    
  C     7.064497 -1.548281  2.258724
  C     7.035014  2.351751  2.107219
  C     5.812606 -1.819889  1.567479
  C     5.893663  1.799618  1.408500
  N     8.130996 -1.363997  1.508778
  N     8.135279  2.393244  1.374240
  N     5.977344 -1.821036  0.258378
  N     6.057706  1.518799  0.110739
  N     5.224521 -1.795405  4.050535
  N     5.228312  2.021385  3.825680
  S     4.472833 -2.083033  2.630338
  S     4.488982  1.661210  2.402258
  S     7.543049 -1.455005 -0.062085
  S     7.681371  1.905218 -0.185834
  S     6.872052 -1.374014  4.019152
  S     6.813861  2.543121  3.834192
