16  
    
  C     8.720857 -0.489068  2.424451
  C     8.543620  3.211782  2.630854
  C     7.551139 -0.983118  1.685079
  C     7.353927  2.748341  1.952253
  N     9.823521 -0.530968  1.653776
  N     9.532574  3.433164  1.782055
  N     7.720366 -1.287215  0.383912
  N     7.505961  2.463882  0.668255
  N     6.861053 -0.815536  4.120193
  N     6.830444  2.792785  4.483219
  S     6.126634 -0.938696  2.655432
  S     6.052605  2.470445  3.019043
  S     9.340527 -1.041888  0.137804
  S     9.012325  3.005838  0.182248
  S     8.455465 -0.316637  4.159837
  S     8.448687  3.231868  4.390766
