16  
    
  C     6.332195 -1.656935  1.643521
  C     6.436083  2.139108  1.953166
  C     5.216158 -2.292130  0.969610
  C     5.252936  1.504427  1.345021
  N     7.383074 -1.423283  0.830149
  N     7.452267  2.375999  1.104255
  N     5.450555 -2.588560 -0.330088
  N     5.500182  1.154243  0.095559
  N     4.453986 -1.745710  3.350994
  N     4.571581  2.012442  3.716422
  S     3.805880 -2.515548  2.048574
  S     3.910130  1.238770  2.406618
  S     6.879656 -1.865134 -0.688844
  S     6.953722  1.776408 -0.361842
  S     6.086874 -1.365558  3.344009
  S     6.108634  2.572085  3.610702
