16  
    
  C     8.413693 -0.820792  2.462690
  C     8.256895  2.293189  2.160719
  C     7.185250 -1.215640  1.779535
  C     7.148252  1.928349  1.312443
  N     9.480213 -0.923605  1.659737
  N     9.348100  2.519221  1.444091
  N     7.265634 -1.396486  0.456648
  N     7.390238  1.818685  0.030632
  N     6.513415 -0.612357  4.244021
  N     6.277646  2.164797  3.665920
  S     5.828252 -1.036414  2.829634
  S     5.702944  1.702759  2.205843
  S     8.892073 -1.247756  0.111109
  S     8.977857  2.268325 -0.201250
  S     8.188196 -0.592614  4.219093
  S     7.867039  2.552571  3.868976
