16  
    
  C    10.989940  0.624495  2.902266
  C    10.952469  4.523232  3.328993
  C     9.767226  0.087283  2.351127
  C     9.802477  3.892214  2.711949
  N    11.930439  0.821175  1.975013
  N    12.004099  4.683068  2.515843
  N     9.702903 -0.116871  1.009973
  N     9.987833  3.597201  1.435745
  N     9.390165  0.343135  4.880512
  N     9.225491  3.933950  5.134139
  S     8.561871 -0.181443  3.551807
  S     8.426642  3.692982  3.676316
  S    11.259551  0.353555  0.512769
  S    11.488829  4.185956  1.036058
  S    10.906002  1.030607  4.634469
  S    10.758291  4.571883  5.075194
