16  
    
  C    10.444395 -0.003242  2.754054
  C    10.357987  4.248211  3.059104
  C     9.248492 -0.470017  2.188470
  C     9.035638  3.861658  2.628849
  N    11.458269  0.068382  1.883175
  N    11.374587  4.023454  2.193878
  N     9.341194 -0.926000  0.937383
  N     8.997297  3.519439  1.359118
  N     8.495525  0.235294  4.537183
  N     8.582736  4.246394  5.096484
  S     7.811366 -0.440316  3.201474
  S     7.687068  3.911716  3.703229
  S    10.832754 -0.529852  0.406679
  S    10.602568  3.509841  0.795190
  S    10.099290  0.586581  4.362371
  S    10.202209  4.664435  4.763369
