16  
    
  C     5.621038 -2.031969  1.797008
  C     5.209387  1.435326  1.733791
  C     4.405566 -2.627492  1.205771
  C     4.053486  0.802456  1.097666
  N     6.629117 -1.763923  0.936243
  N     6.021707  1.987628  0.837242
  N     4.479301 -2.782780 -0.133962
  N     4.186309  0.691521 -0.225470
  N     3.966783 -2.402591  3.677423
  N     3.598427  0.980326  3.656512
  S     3.118024 -2.723866  2.339035
  S     2.806358  0.503708  2.277363
  S     6.053538 -2.378780 -0.538187
  S     5.559872  1.501582 -0.650531
  S     5.517392 -1.795967  3.542696
  S     5.142977  1.495398  3.471507
