16  
    
  C    12.151674  1.351473  3.428573
  C    12.147185  5.159808  3.800314
  C    10.961426  0.824595  2.740234
  C    10.906693  4.719724  3.197288
  N    13.080921  1.708215  2.590215
  N    13.117715  5.323598  2.934882
  N    11.111650  0.734570  1.424693
  N    10.848536  4.646586  1.885644
  N    10.337469  1.142764  5.204463
  N    10.613249  4.734890  5.786267
  S     9.599289  0.501756  3.838350
  S     9.648245  4.484944  4.411931
  S    12.657056  1.314133  1.051833
  S    12.456059  5.123046  1.416509
  S    11.847774  1.798958  5.093467
  S    12.224242  5.149373  5.527109
