16  
    
  C     7.912930 -0.815312  2.280213
  C     8.287521  2.842569  2.381671
  C     6.786405 -1.356584  1.548864
  C     6.995809  2.525772  1.834901
  N     8.905462 -0.413484  1.484456
  N     9.218330  2.929799  1.478186
  N     6.974252 -1.477352  0.229213
  N     7.022923  2.499738  0.507851
  N     6.015165 -1.124795  4.062139
  N     6.771363  3.048132  4.408333
  S     5.461628 -1.819505  2.641247
  S     5.831859  2.651325  3.095660
  S     8.485496 -0.815706 -0.074911
  S     8.530346  2.680464 -0.011710
  S     7.616148 -0.553259  4.028301
  S     8.398251  3.058330  4.112533
