16  
    
  C     8.416770 -0.981267  2.396484
  C     8.199638  2.548552  2.042658
  C     7.219672 -1.117894  1.604533
  C     7.081596  2.032361  1.229216
  N     9.492723 -0.909526  1.660158
  N     9.273362  2.772021  1.308092
  N     7.442354 -1.311217  0.318794
  N     7.339772  1.888138 -0.075637
  N     6.522157 -1.161722  4.201723
  N     6.298160  2.259758  3.732102
  S     5.824263 -1.216561  2.687290
  S     5.670218  1.794673  2.239646
  S     9.080870 -1.111681  0.055704
  S     8.918208  2.345044 -0.238381
  S     8.127969 -0.819017  4.144136
  S     7.939842  2.568684  3.797091
