16  
    
  C     6.256957 -1.627804  1.841071
  C     6.456260  2.252840  1.995474
  C     5.132351 -2.240492  1.227936
  C     5.304958  1.648975  1.383116
  N     7.375912 -1.524998  1.094932
  N     7.512231  2.348179  1.184542
  N     5.314841 -2.468376 -0.076050
  N     5.508024  1.379778  0.089815
  N     4.511232 -2.196902  3.684927
  N     4.715768  1.845327  3.916580
  S     3.819190 -2.657375  2.224962
  S     3.935122  1.405731  2.479634
  S     6.918099 -1.978913 -0.447662
  S     7.012308  1.811915 -0.262548
  S     6.048602 -1.449175  3.566602
  S     6.244334  2.459544  3.698383
