16  
    
  C    12.071169  1.450303  3.353900
  C    12.271931  5.134209  3.753874
  C    10.919293  0.792157  2.650333
  C    10.938497  4.858590  3.212102
  N    13.136190  1.564964  2.609340
  N    13.227435  5.331250  2.844594
  N    11.137720  0.634743  1.329763
  N    10.999907  4.756137  1.939990
  N    10.296460  1.139419  5.237007
  N    10.582013  4.815025  5.693693
  S     9.626480  0.656754  3.779864
  S     9.677266  4.574872  4.331594
  S    12.676687  1.213377  1.030235
  S    12.485581  4.969493  1.392565
  S    11.866798  1.759803  5.054382
  S    12.160082  5.267805  5.499719
