16  
    
  C    10.113295  0.646662  2.727685
  C    10.682140  4.184056  2.807612
  C     8.945897  0.021166  2.148422
  C     9.472472  3.824864  2.152522
  N    11.151722  0.682223  1.901863
  N    11.698304  4.361029  1.969768
  N     9.044310 -0.120223  0.829620
  N     9.522505  3.676127  0.830282
  N     8.428015  0.188101  4.648080
  N     9.009897  4.117489  4.732555
  S     7.707117 -0.449246  3.297295
  S     8.190692  3.669360  3.370880
  S    10.610492  0.244627  0.372872
  S    11.172654  4.039130  0.417897
  S     9.991091  0.806938  4.454640
  S    10.552074  4.616553  4.459149
