16  
    
  C    11.625553  1.150416  2.964671
  C    11.801909  5.153157  3.060490
  C    10.366499  0.816987  2.385710
  C    10.668013  4.414170  2.587336
  N    12.620014  1.313064  2.089140
  N    12.794647  5.198541  2.212855
  N    10.425585  0.549080  1.056414
  N    10.818167  4.003069  1.317457
  N    10.099867  0.613931  4.965356
  N    10.262463  4.801577  5.063006
  S     9.172401  0.375489  3.623671
  S     9.473578  4.181553  3.715632
  S    11.995811  0.878371  0.607859
  S    12.338469  4.425999  0.862376
  S    11.603193  1.244497  4.647891
  S    11.726640  5.545225  4.799530
