16  
    
  C     9.948785 -0.057928  2.659032
  C     9.778096  4.097567  2.758466
  C     8.819727 -0.598091  1.978367
  C     8.858945  3.175060  2.182288
  N    10.947824  0.240165  1.900918
  N    10.807036  4.359807  1.952958
  N     9.030458 -0.753898  0.703732
  N     9.235521  2.701959  1.004680
  N     8.206379 -0.304866  4.498551
  N     7.951769  3.703565  4.544207
  S     7.532930 -0.952574  3.097260
  S     7.591095  2.715193  3.208942
  S    10.544608 -0.173489  0.363418
  S    10.592082  3.434801  0.592034
  S     9.789649  0.137674  4.403933
  S     9.461143  4.465999  4.514837
