16  
    
  C     5.678281 -2.074480  2.064963
  C     5.906981  1.629291  2.017671
  C     4.483758 -2.650800  1.445786
  C     4.728400  1.183529  1.285975
  N     6.731181 -1.842476  1.265710
  N     6.891937  1.967845  1.197345
  N     4.687731 -2.999441  0.164057
  N     4.932309  1.108614 -0.030075
  N     3.922729 -2.382010  3.945148
  N     4.156427  1.049291  3.817734
  S     3.188824 -2.998617  2.542066
  S     3.392675  0.764111  2.372854
  S     6.237270 -2.452248 -0.236631
  S     6.450774  1.622183 -0.324995
  S     5.507203 -1.797078  3.752216
  S     5.723850  1.667675  3.725895
