16  
    
  C     8.445867 -0.923346  2.465584
  C     8.224886  2.590609  2.235727
  C     7.218445 -1.564045  2.097129
  C     7.033266  2.205354  1.528473
  N     9.411229 -0.958791  1.488493
  N     9.305316  2.716532  1.469652
  N     7.157896 -1.929703  0.785099
  N     7.281981  1.935292  0.256435
  N     6.808612 -0.666839  4.499270
  N     6.269989  2.562570  3.849246
  S     5.866064 -1.347476  3.259597
  S     5.581436  2.092080  2.460734
  S     8.630466 -1.571767  0.114298
  S     8.802611  2.295257 -0.095965
  S     8.395345 -0.423520  4.176017
  S     7.861058  2.863526  3.874609
