16  
    
  C     3.439217 -3.056297  1.022270
  C     3.814460  0.701246  1.388226
  C     2.200460 -3.506670  0.427271
  C     2.587584  0.224956  0.768686
  N     4.450502 -3.029579  0.189778
  N     4.877738  0.816755  0.585072
  N     2.319519 -3.712606 -0.874427
  N     2.715342  0.087282 -0.540801
  N     1.716728 -3.120671  2.901161
  N     2.020439  0.363030  3.306204
  S     0.940883 -3.758483  1.548044
  S     1.271331  0.049710  1.822899
  S     3.827672 -3.349974 -1.282432
  S     4.318664  0.473750 -0.899832
  S     3.370806 -2.755605  2.714906
  S     3.554747  0.946110  3.107010
