16  
    
  C     3.786438 -2.766755  1.301741
  C     4.065710  1.106789  1.507579
  C     2.678245 -3.498594  0.710706
  C     2.885649  0.584490  0.918962
  N     4.773434 -2.524271  0.470826
  N     5.015316  1.363407  0.622107
  N     2.917983 -3.924500 -0.509716
  N     2.890356  0.357823 -0.374699
  N     2.041282 -2.867184  3.193004
  N     2.387053  0.971251  3.402303
  S     1.273369 -3.536366  1.889277
  S     1.581865  0.491497  2.011953
  S     4.474340 -3.392836 -0.884892
  S     4.443063  0.803748 -0.819307
  S     3.637995 -2.483426  3.010258
  S     3.946058  1.331348  3.219966
