16  
    
  C    11.341630  0.983258  3.212852
  C    11.516890  4.731657  3.082840
  C    10.062329  0.440285  2.680693
  C    10.367807  4.151522  2.388137
  N    12.364334  1.037493  2.369168
  N    12.536755  4.953494  2.252034
  N    10.145067  0.298506  1.388859
  N    10.504984  3.943035  1.102926
  N     9.709166  0.740530  5.176478
  N     9.771126  4.331545  4.928332
  S     8.752485  0.315036  3.858873
  S     9.061961  3.839127  3.492007
  S    11.692849  0.696563  0.918170
  S    12.079518  4.375205  0.778506
  S    11.272641  1.287039  4.910799
  S    11.343116  4.965012  4.777322
