16  
    
  C    11.210672  0.947483  3.319725
  C    11.621819  4.679809  2.812412
  C     9.950469  0.499190  2.747577
  C    10.367255  4.241397  2.198450
  N    12.206132  1.196726  2.449828
  N    12.605415  4.803721  1.954476
  N    10.016428  0.381494  1.409915
  N    10.367934  4.169425  0.866852
  N     9.565790  1.085695  5.292828
  N     9.927823  4.509246  4.680911
  S     8.725255  0.501294  3.964243
  S     9.069611  3.954602  3.344746
  S    11.598043  0.758157  0.996765
  S    11.929885  4.535775  0.452980
  S    11.220795  1.079844  5.068094
  S    11.557002  4.837379  4.467125
