16  
    
  C     7.101377 -1.247487  2.274458
  C     7.110541  2.251516  2.086658
  C     5.866981 -1.688915  1.600756
  C     5.874707  1.773593  1.471331
  N     8.128488 -1.167097  1.468902
  N     8.202710  2.275376  1.320241
  N     6.000772 -1.970910  0.323656
  N     5.988430  1.584181  0.169138
  N     5.382142 -1.722190  4.105034
  N     5.370609  1.952273  3.950683
  S     4.521407 -2.012119  2.700182
  S     4.534046  1.649933  2.544089
  S     7.544673 -1.621986 -0.055918
  S     7.592479  1.919773 -0.294474
  S     6.984704 -1.284055  3.988700
  S     6.882746  2.592504  3.784787
