16  
    
  C     8.862419 -0.144789  2.520512
  C     8.604259  3.151958  2.553612
  C     7.646643 -0.607191  1.895248
  C     7.428513  2.549904  1.961913
  N     9.840154  0.138526  1.692416
  N     9.573754  3.532406  1.727902
  N     7.678254 -0.662400  0.587796
  N     7.569975  2.536350  0.673349
  N     7.112053 -0.754193  4.424967
  N     6.696887  2.898303  4.332677
  S     6.362879 -0.951754  2.966756
  S     6.040461  2.152245  2.961683
  S     9.180228 -0.197968  0.199490
  S     9.029207  3.055591  0.177874
  S     8.691644 -0.161411  4.266514
  S     8.321567  3.345705  4.249151
