16  
    
  C    12.722844  1.646472  3.372526
  C    12.657466  5.423359  3.248385
  C    11.508742  1.139110  2.785032
  C    11.436181  4.895956  2.725867
  N    13.697639  1.971404  2.499517
  N    13.603941  5.640979  2.311734
  N    11.479900  1.178184  1.440561
  N    11.409686  4.635561  1.414318
  N    11.044448  1.354052  5.266695
  N    11.094914  4.875012  5.275553
  S    10.181572  0.867706  3.921306
  S    10.234111  4.416021  3.903161
  S    13.024726  1.648073  0.977753
  S    12.844485  5.134400  0.817229
  S    12.658466  1.630716  5.126360
  S    12.627621  5.510177  5.004893
