16  
    
  C     4.258410 -2.417288  1.769395
  C     3.954076  1.343154  1.326144
  C     3.075407 -2.992462  1.156122
  C     2.875261  0.554366  0.792284
  N     5.284104 -2.300746  0.938531
  N     4.991586  1.417710  0.497347
  N     3.162116 -3.115962 -0.161891
  N     3.019524  0.233983 -0.499998
  N     2.600746 -2.759386  3.677388
  N     2.334323  0.994224  3.229432
  S     1.880043 -3.466632  2.352482
  S     1.694067  0.121174  1.949223
  S     4.739751 -2.705905 -0.525593
  S     4.575117  0.715661 -0.949822
  S     4.074711 -2.020914  3.429609
  S     3.814465  1.725199  3.017703
