16  
    
  C     8.391479 -0.998050  2.518953
  C     8.191733  2.653854  2.134794
  C     7.114874 -1.360509  1.977982
  C     7.032165  2.189231  1.376248
  N     9.344341 -0.973298  1.562416
  N     9.324003  2.641307  1.403799
  N     7.139797 -1.828786  0.704186
  N     7.232367  1.900626  0.075674
  N     6.736641 -0.668512  4.417144
  N     6.272457  2.243489  3.907142
  S     5.914702 -1.316494  3.180180
  S     5.616986  2.075511  2.334852
  S     8.689924 -1.502344  0.153367
  S     8.903445  2.209468 -0.084956
  S     8.378111 -0.408878  4.155351
  S     7.907454  2.781700  3.877221
