16  
    
  C    12.896212  1.495925  3.745913
  C    12.819074  5.520661  3.677232
  C    11.649811  1.234991  3.098978
  C    11.579123  4.977063  3.204302
  N    13.899702  1.681133  2.894762
  N    13.816741  5.465496  2.826046
  N    11.707338  1.130225  1.782572
  N    11.665619  4.633043  1.944794
  N    11.075889  1.620216  5.596081
  N    11.316724  5.547446  5.836711
  S    10.248391  1.269963  4.196353
  S    10.405919  4.934308  4.486295
  S    13.282750  1.458415  1.365324
  S    13.229035  4.927946  1.438023
  S    12.724884  1.970285  5.356578
  S    12.835303  6.097882  5.337001
