16  
    
  C    11.675364  1.132251  2.846912
  C    11.628092  4.975119  3.183156
  C    10.464276  0.483814  2.343354
  C    10.491904  4.487307  2.413371
  N    12.578364  1.457742  1.928305
  N    12.653735  5.372780  2.390248
  N    10.456538  0.390709  1.041050
  N    10.651377  4.362462  1.092237
  N    10.190875  0.754505  4.851816
  N     9.725607  4.551862  4.939129
  S     9.390480  0.084788  3.566513
  S     9.104756  4.021181  3.480590
  S    11.863798  1.048664  0.499631
  S    12.201366  4.941759  0.776052
  S    11.574594  1.578308  4.547516
  S    11.330781  5.004044  4.860943
