16  
    
  C    11.420564  1.066317  3.106597
  C    11.413171  4.691411  3.271790
  C    10.239835  0.345110  2.558247
  C    10.276887  4.012585  2.670155
  N    12.317497  1.248509  2.160138
  N    12.431786  4.878977  2.425297
  N    10.253582  0.073681  1.272228
  N    10.421486  3.761354  1.385544
  N     9.625901  0.908770  5.048927
  N     9.591311  4.435402  5.104491
  S     8.860515  0.289859  3.690106
  S     8.983369  3.708916  3.713220
  S    11.782363  0.588818  0.729524
  S    11.921613  4.297279  0.998054
  S    11.242333  1.238833  4.934022
  S    11.133892  5.108339  4.944268
