16  
    
  C    11.998198  1.395143  3.463540
  C    12.300594  5.085304  3.285301
  C    10.924634  0.863493  2.744610
  C    11.069714  4.738925  2.660332
  N    13.071238  1.570028  2.708090
  N    13.372697  5.027547  2.461202
  N    11.157383  0.396674  1.526648
  N    11.159613  4.413284  1.383763
  N    10.145925  1.100914  5.225514
  N    10.409615  5.384506  5.044628
  S     9.500485  0.662720  3.742283
  S     9.656764  4.795141  3.718270
  S    12.701442  0.930724  1.235184
  S    12.714807  4.513182  0.975135
  S    11.725521  1.641262  5.139535
  S    12.001214  5.728525  4.908588
