16  
    
  C    11.949284  1.270046  3.304079
  C    11.839202  4.860808  3.676501
  C    10.790626  0.679103  2.599766
  C    10.626873  4.458797  2.920208
  N    12.969835  1.545176  2.523673
  N    12.884932  5.019330  2.900703
  N    11.066695  0.426467  1.315312
  N    10.762704  4.258140  1.607866
  N    10.252640  0.900322  5.117893
  N     9.903484  4.485719  5.453104
  S     9.472991  0.523314  3.699318
  S     9.257619  4.069829  3.956050
  S    12.578584  1.113767  0.992087
  S    12.416588  4.620779  1.308786
  S    11.806090  1.498268  5.054169
  S    11.477878  5.063066  5.378027
