16  
    
  C    11.358031  0.434120  3.039027
  C    11.058861  4.480182  3.486670
  C    10.251070 -0.063594  2.281669
  C     9.802305  4.155746  2.897064
  N    12.471620  0.677184  2.317907
  N    12.094023  4.415823  2.639181
  N    10.575019 -0.369449  1.013933
  N     9.832725  3.965260  1.598543
  N     9.302127  0.396148  4.655532
  N     9.379631  4.585714  5.472559
  S     8.810251 -0.379390  3.253540
  S     8.523066  4.284440  4.089764
  S    12.131327  0.098544  0.802330
  S    11.415405  4.045864  1.115284
  S    10.891292  0.861868  4.698417
  S    11.029232  4.738720  5.245301
