16  
    
  C     4.573940 -2.114461  1.918991
  C     4.112627  1.180993  1.226580
  C     3.425628 -2.679716  1.234614
  C     2.925438  0.724067  0.537870
  N     5.642198 -1.978104  1.200110
  N     5.186537  1.219159  0.436127
  N     3.570048 -2.779181 -0.056935
  N     2.990824  0.632902 -0.806793
  N     2.779568 -2.446831  3.713266
  N     2.238557  0.940293  3.017935
  S     2.057247 -2.905430  2.278399
  S     1.554355  0.462809  1.600183
  S     5.213621 -2.529204 -0.355930
  S     4.601924  0.809469 -1.091729
  S     4.273313 -1.726532  3.565816
  S     3.853408  1.401445  2.908599
