16  
    
  C    11.632874  1.203689  2.852383
  C    11.816195  4.993472  3.123012
  C    10.419746  0.642758  2.324751
  C    10.681455  4.338711  2.542904
  N    12.535410  1.501441  1.929166
  N    12.831421  5.127519  2.263733
  N    10.452330  0.379744  1.052484
  N    10.773850  4.173640  1.229335
  N    10.097810  0.814185  4.897679
  N    10.079284  4.706648  5.029283
  S     9.267931  0.271827  3.524443
  S     9.300332  4.106229  3.683506
  S    11.927555  0.953207  0.486903
  S    12.325947  4.647800  0.798799
  S    11.714987  1.212448  4.635468
  S    11.537235  5.395643  4.779377
