16  
    
  C    12.287190  1.565494  3.290796
  C    12.269031  5.303325  3.653665
  C    11.067524  1.065757  2.602079
  C    11.165783  4.663437  2.896213
  N    13.355022  1.868602  2.575577
  N    13.293388  5.640662  2.878770
  N    11.390732  0.765714  1.357242
  N    11.390123  4.571738  1.602880
  N    10.345593  1.334351  5.034466
  N    10.580000  4.818510  5.424700
  S     9.642031  0.816468  3.575223
  S     9.873619  4.340460  4.019641
  S    12.882068  1.382838  0.986678
  S    12.958947  5.157576  1.334846
  S    11.984616  1.865895  4.989182
  S    11.973847  5.666363  5.336884
