16  
    
  C    10.397987 -0.011240  2.784313
  C    10.382053  4.202560  3.093263
  C     9.155072 -0.462759  2.176464
  C     9.064033  3.892553  2.606160
  N    11.405380  0.094138  1.917436
  N    11.349792  4.033578  2.179823
  N     9.264083 -0.872160  0.935256
  N     9.038307  3.478151  1.352136
  N     8.516737  0.205412  4.557431
  N     8.569504  4.324413  5.079658
  S     7.849333 -0.479212  3.228292
  S     7.693806  3.902412  3.697207
  S    10.832604 -0.517321  0.422127
  S    10.546037  3.522461  0.751951
  S    10.125341  0.489499  4.420760
  S    10.182237  4.599837  4.791863
