16  
    
  C     3.131140 -2.712891  1.571034
  C     3.622679  0.987420  1.461548
  C     2.144075 -3.524784  0.872585
  C     2.447909  0.423299  0.828677
  N     4.070456 -2.196401  0.778828
  N     4.603069  1.255089  0.604979
  N     2.373142 -3.515561 -0.431695
  N     2.466420  0.384380 -0.498075
  N     1.405439 -3.385282  3.415065
  N     1.975932  0.283190  3.362089
  S     0.890492 -4.082692  1.966865
  S     1.179293  0.030755  1.946521
  S     3.674992 -2.600129 -0.750498
  S     3.967879  0.955947 -0.898662
  S     2.925045 -2.673146  3.312694
  S     3.575987  0.925648  3.175079
