16  
    
  C    11.344440  0.666947  2.981343
  C    11.109035  4.371812  3.568697
  C    10.312063  0.006075  2.210719
  C     9.791804  4.096077  3.040490
  N    12.485301  0.826645  2.344486
  N    12.099130  4.427148  2.681531
  N    10.664999 -0.397164  1.009631
  N     9.824282  3.877679  1.716750
  N     9.309208  0.380137  4.558711
  N     9.365088  4.725058  5.446619
  S     8.844251 -0.311516  3.092067
  S     8.481735  4.188214  4.145444
  S    12.256015  0.122074  0.876665
  S    11.381455  4.133130  1.250501
  S    10.914844  0.751481  4.692390
  S    10.993372  4.942914  5.221913
