16  
    
  C    11.281558  0.943005  3.349615
  C    11.589617  4.618414  2.779910
  C     9.983598  0.642306  2.756114
  C    10.353766  4.178229  2.210337
  N    12.219952  1.160643  2.453436
  N    12.593087  4.840564  1.927062
  N    10.005582  0.379446  1.450963
  N    10.404558  4.178521  0.887949
  N     9.595891  1.066259  5.273531
  N     9.918200  4.535951  4.681064
  S     8.670105  0.451462  3.926359
  S     9.110354  3.962347  3.360168
  S    11.584343  0.724133  1.011103
  S    11.985101  4.531554  0.474019
  S    11.257726  1.096679  5.044761
  S    11.544113  4.813822  4.535756
