16  
    
  C     4.633377 -2.013143  1.535317
  C     4.695314  1.554275  1.719080
  C     3.344460 -2.358833  0.960893
  C     3.451848  1.320210  1.054356
  N     5.649744 -1.946444  0.698237
  N     5.774158  1.639380  0.966261
  N     3.394375 -2.649100 -0.304949
  N     3.591180  1.094099 -0.252506
  N     2.902263 -2.277404  3.507135
  N     2.895573  1.441586  3.688536
  S     2.022417 -2.456046  2.076095
  S     2.137349  1.166269  2.194839
  S     4.967751 -2.373449 -0.804933
  S     5.243071  1.403616 -0.589825
  S     4.570736 -2.060362  3.290318
  S     4.529826  1.685589  3.432783
