16  
    
  C     4.708235 -1.992843  1.684799
  C     4.374151  1.386897  1.391939
  C     3.432641 -2.215214  1.111028
  C     3.150714  1.027325  0.736051
  N     5.742698 -2.032406  0.802094
  N     5.381638  1.622632  0.543004
  N     3.480313 -2.496553 -0.219311
  N     3.286968  0.779667 -0.555354
  N     3.036246 -1.828917  3.619241
  N     2.599196  0.715055  3.222810
  S     2.132289 -2.184037  2.290137
  S     1.809739  0.715243  1.761647
  S     5.053697 -2.270029 -0.651484
  S     4.840764  1.305959 -1.000320
  S     4.690132 -1.800768  3.411301
  S     4.182890  1.435352  3.181260
