16  
    
  C     4.270063 -2.509477  1.616120
  C     4.160802  1.254497  1.714279
  C     3.070943 -3.133348  1.079835
  C     2.879122  1.012159  1.077873
  N     5.279079 -2.480243  0.719465
  N     5.133979  1.089459  0.846996
  N     3.099618 -3.410667 -0.238900
  N     2.873634  0.828988 -0.248615
  N     2.644506 -2.716206  3.561884
  N     2.408749  1.344263  3.650804
  S     1.843872 -3.424681  2.251508
  S     1.593225  1.065610  2.242583
  S     4.673794 -3.112749 -0.677021
  S     4.482422  0.817999 -0.684700
  S     4.145405 -2.059323  3.267881
  S     4.083203  1.427357  3.451969
