16  
    
  C     7.293228 -1.560440  2.230915
  C     7.466379  2.232186  2.195048
  C     6.069540 -2.111286  1.645817
  C     6.257658  1.771878  1.578822
  N     8.272779 -1.291281  1.373967
  N     8.542324  2.304016  1.440258
  N     6.223169 -2.490968  0.401004
  N     6.385586  1.505210  0.290505
  N     5.417173 -1.497930  4.052585
  N     5.723367  2.133130  4.069642
  S     4.710202 -2.160549  2.689471
  S     4.950187  1.584830  2.710255
  S     7.726277 -1.999361 -0.065030
  S     8.022735  1.690558 -0.085188
  S     7.059350 -1.197037  3.959922
  S     7.296280  2.659739  3.842680
