16  
    
  C     6.174755 -1.932414  1.677349
  C     6.308038  1.872725  1.869296
  C     5.003697 -2.450919  1.052141
  C     5.071444  1.692752  1.147859
  N     7.158053 -1.662470  0.800464
  N     7.368338  1.927726  1.088790
  N     5.102136 -2.659587 -0.301132
  N     5.196182  1.739553 -0.170369
  N     4.311060 -1.747358  3.487020
  N     4.466452  1.938405  3.702414
  S     3.597055 -2.482272  2.149184
  S     3.713958  1.819549  2.194451
  S     6.650659 -2.252639 -0.654384
  S     6.823492  1.827340 -0.482156
  S     5.995566 -1.478425  3.308262
  S     6.132447  1.911380  3.599633
