16  
    
  C     9.039504 -0.415769  2.385662
  C     9.476015  3.276656  2.758467
  C     7.903838 -0.961751  1.669614
  C     8.222745  2.926060  2.139062
  N    10.117697 -0.333549  1.641035
  N    10.495609  3.310067  1.935662
  N     8.079093 -1.264161  0.416099
  N     8.319777  2.721516  0.828724
  N     7.012808 -0.219740  3.995033
  N     7.798223  3.327143  4.657782
  S     6.448915 -1.092639  2.676361
  S     6.969722  3.157167  3.245537
  S     9.691290 -0.863958  0.111778
  S     9.912250  2.904787  0.412018
  S     8.638293  0.062912  4.066558
  S     9.425659  3.739712  4.452842
