16  
    
  C    11.327843  0.948803  3.290607
  C    11.549837  4.673377  3.022651
  C    10.093501  0.487351  2.702708
  C    10.354760  4.184996  2.400386
  N    12.316203  1.013480  2.404511
  N    12.580079  4.976344  2.258716
  N    10.115949  0.385360  1.347501
  N    10.524488  3.948404  1.097573
  N     9.695153  0.694826  5.212690
  N     9.807570  4.343955  4.846852
  S     8.751740  0.344760  3.890200
  S     9.088149  3.879391  3.418911
  S    11.673717  0.672364  0.884601
  S    12.054342  4.403745  0.719149
  S    11.250016  1.303946  4.967278
  S    11.394402  4.929006  4.736604
