16  
    
  C    12.001557  1.404657  3.514588
  C    11.887351  4.793492  3.748991
  C    10.838842  0.819322  2.793988
  C    10.682555  4.185075  3.154814
  N    13.009999  1.632102  2.688755
  N    12.789002  5.343100  2.863057
  N    10.934334  0.881845  1.469231
  N    10.738018  4.098815  1.852689
  N    10.388276  0.727425  5.375782
  N    10.117490  4.447483  5.664304
  S     9.692373  0.207328  3.938333
  S     9.400126  3.887197  4.292918
  S    12.490915  1.474383  1.169710
  S    12.182552  4.886864  1.350204
  S    11.953714  1.328573  5.200359
  S    11.661147  4.990141  5.468542
