16  
    
  C    12.589829  1.477902  3.381068
  C    12.792894  5.449384  3.499158
  C    11.383975  0.903444  2.722104
  C    11.685210  4.965587  2.740391
  N    13.460192  1.904475  2.476974
  N    13.857105  5.777973  2.826084
  N    11.426284  0.917671  1.413934
  N    12.008867  4.800072  1.458499
  N    10.863400  1.047148  5.254984
  N    10.907250  4.847384  5.231255
  S    10.070057  0.647051  3.849721
  S    10.291402  4.634506  3.667024
  S    12.851895  1.648903  0.973853
  S    13.567085  5.359225  1.283272
  S    12.369894  1.649198  5.040338
  S    12.471177  5.571046  5.252683
