16  
    
  C    10.263842  0.093097  2.768716
  C    10.230981  4.074503  3.078416
  C     9.095607 -0.451695  2.137546
  C     8.964586  3.746335  2.521560
  N    11.329702  0.071074  1.938262
  N    11.242195  4.060217  2.217581
  N     9.215797 -0.704942  0.800065
  N     8.954940  3.425036  1.227862
  N     8.549598  0.139330  4.590509
  N     8.588064  4.424977  4.979295
  S     7.773460 -0.582582  3.290719
  S     7.757352  3.926893  3.680595
  S    10.807853 -0.463772  0.506720
  S    10.585576  3.600872  0.761657
  S    10.241673  0.308436  4.538505
  S    10.231829  4.482831  4.854488
