16  
    
  C    12.322330  1.567879  3.343869
  C    12.268746  5.326501  3.627177
  C    11.107961  1.052538  2.612389
  C    11.174999  4.663976  2.972172
  N    13.355690  1.857052  2.522387
  N    13.299281  5.632580  2.865750
  N    11.389857  0.785531  1.329216
  N    11.334056  4.594988  1.613331
  N    10.389627  1.369667  5.015635
  N    10.579673  4.816124  5.442061
  S     9.665698  0.839212  3.607731
  S     9.906450  4.322016  4.005690
  S    12.889277  1.385771  0.973981
  S    12.943725  5.178456  1.324448
  S    11.999805  1.862857  4.984535
  S    11.986728  5.664285  5.358525
