16  
    
  C     4.588921 -2.109652  1.531340
  C     5.071033  1.416057  1.911123
  C     3.532958 -2.864040  0.824215
  C     3.726518  1.236452  1.401581
  N     5.659107 -1.836015  0.823625
  N     6.034479  1.365737  1.010295
  N     3.816680 -3.079282 -0.434611
  N     3.661041  1.156889  0.079048
  N     2.898814 -2.856463  3.361449
  N     3.463839  1.766570  3.819448
  S     2.258709 -3.411150  1.914108
  S     2.523143  1.430585  2.523886
  S     5.288733 -2.364802 -0.725889
  S     5.242049  1.335667 -0.455733
  S     4.375133 -2.114272  3.299851
  S     5.045128  1.475593  3.674588
