16  
    
  C     7.195316 -1.322823  2.336282
  C     7.843606  2.786765  2.307366
  C     6.156029 -1.928336  1.549418
  C     6.635020  2.280634  1.678223
  N     8.260600 -0.956475  1.595106
  N     8.845963  3.073172  1.470508
  N     6.313288 -1.792926  0.207884
  N     6.739413  2.118955  0.365938
  N     5.277736 -1.821531  3.938774
  N     6.029728  2.472902  4.158977
  S     4.731065 -2.285826  2.458058
  S     5.258325  2.065295  2.721980
  S     7.822187 -1.166531  0.006677
  S     8.307636  2.603879 -0.021214
  S     6.816873 -1.246910  3.970187
  S     7.582154  3.054811  4.029468
