16  
    
  C    11.298941  0.616795  3.057077
  C    11.115464  4.435393  3.548592
  C    10.289299 -0.089080  2.280415
  C     9.810139  4.149450  2.976186
  N    12.435976  0.751611  2.342793
  N    12.105718  4.381063  2.666899
  N    10.601548 -0.326135  1.010169
  N     9.823016  3.891368  1.658232
  N     9.312593  0.388454  4.514063
  N     9.346285  4.714708  5.477819
  S     8.842194 -0.372359  3.119129
  S     8.501480  4.232442  4.131902
  S    12.200530  0.074035  0.830219
  S    11.388103  4.108996  1.163132
  S    10.935431  0.804399  4.754335
  S    10.993512  4.830907  5.237742
