16  
    
  C    10.732755  0.707755  2.917833
  C    10.686184  4.477098  2.815355
  C     9.525297  0.197219  2.308553
  C     9.684063  3.627926  2.250481
  N    11.788903  0.718147  2.139214
  N    11.784825  4.593683  2.077383
  N     9.615224 -0.261977  1.072983
  N     9.877434  3.270384  0.981107
  N     9.003439  0.755610  4.819233
  N     8.733586  4.450258  4.449744
  S     8.224584  0.267791  3.435067
  S     8.358232  3.293553  3.329012
  S    11.233292  0.147177  0.666657
  S    11.456526  3.736838  0.639338
  S    10.578219  1.229887  4.610567
  S    10.280056  5.062397  4.390431
