16  
    
  C     6.228574 -1.635892  2.134955
  C     6.590111  2.067904  2.124657
  C     5.170164 -2.408477  1.478209
  C     5.316793  1.674965  1.497445
  N     7.294736 -1.381254  1.375255
  N     7.609553  2.284923  1.296795
  N     5.421233 -2.562458  0.185483
  N     5.428244  1.438658  0.202695
  N     4.343606 -2.045648  3.933835
  N     4.795013  1.938911  3.984021
  S     3.804415 -2.841923  2.510670
  S     4.003576  1.506991  2.604895
  S     6.814677 -1.819357 -0.155199
  S     6.996196  1.973848 -0.256389
  S     5.949422 -1.552449  3.906979
  S     6.419538  2.304715  3.807566
