16  
    
  C     4.627159 -2.196531  1.588100
  C     5.007861  1.360277  1.942749
  C     3.551854 -2.807816  0.852985
  C     3.703157  1.250598  1.342260
  N     5.661982 -1.877307  0.785159
  N     5.970636  1.398230  1.035977
  N     3.793057 -3.028706 -0.459900
  N     3.656496  1.154537  0.022170
  N     2.877633 -2.819489  3.356055
  N     3.414197  1.771493  3.842927
  S     2.264342 -3.332711  1.924045
  S     2.451209  1.418450  2.505439
  S     5.273138 -2.346847 -0.713522
  S     5.253857  1.320843 -0.456213
  S     4.356391 -2.061410  3.307777
  S     5.052210  1.455987  3.662379
