16  
    
  C    12.883863  1.548654  3.345820
  C    12.466545  5.187992  3.295537
  C    11.572700  1.125186  2.789702
  C    11.260045  4.696267  2.637626
  N    13.757266  1.777102  2.405677
  N    13.475911  5.353898  2.436471
  N    11.615890  1.000378  1.464405
  N    11.353149  4.632640  1.353540
  N    11.246190  1.384304  5.344101
  N    10.767757  4.868414  5.159717
  S    10.312531  0.937647  4.009627
  S     9.903430  4.454667  3.806310
  S    13.116826  1.380813  0.926631
  S    12.924243  5.158319  0.935328
  S    12.848658  1.936012  5.025013
  S    12.298075  5.326883  4.987173
