16  
    
  C     3.784287 -2.770473  1.282466
  C     4.072083  1.077551  1.529296
  C     2.673214 -3.496257  0.707078
  C     2.887214  0.574585  0.906916
  N     4.753150 -2.499344  0.444257
  N     4.994139  1.369186  0.632464
  N     2.889662 -3.937786 -0.517597
  N     2.901836  0.322898 -0.388542
  N     2.029894 -2.884527  3.190523
  N     2.371416  0.932740  3.392783
  S     1.258342 -3.545375  1.888574
  S     1.581780  0.477753  2.015540
  S     4.473442 -3.405732 -0.906392
  S     4.437979  0.790587 -0.832715
  S     3.625026 -2.486122  2.995846
  S     3.937659  1.320986  3.221905
