16  
    
  C     8.687681 -0.410663  2.425853
  C     8.613841  3.001978  2.585632
  C     7.520645 -0.887983  1.757481
  C     7.385786  2.734362  1.982890
  N     9.837782 -0.369226  1.688184
  N     9.678820  3.197595  1.816480
  N     7.697943 -1.031950  0.410712
  N     7.514142  2.666240  0.667957
  N     6.843277 -0.580544  4.255605
  N     6.798176  2.948310  4.441400
  S     6.134285 -0.962912  2.862280
  S     5.995906  2.487872  3.027573
  S     9.324925 -0.749998  0.148238
  S     9.089157  2.926621  0.213555
  S     8.415967 -0.147811  4.134036
  S     8.435635  3.222047  4.271500
