16  
    
  C    11.699718  1.101880  2.865300
  C    11.630774  4.977637  3.184958
  C    10.465650  0.472188  2.347113
  C    10.491764  4.472005  2.416151
  N    12.572629  1.460163  1.927985
  N    12.673635  5.360754  2.390635
  N    10.464603  0.386118  1.029667
  N    10.665600  4.357156  1.106858
  N    10.186098  0.765929  4.849631
  N     9.732206  4.562065  4.934898
  S     9.380915  0.089902  3.563504
  S     9.111681  4.023048  3.486970
  S    11.859438  1.055751  0.497424
  S    12.199750  4.939182  0.771826
  S    11.583199  1.572568  4.538309
  S    11.337877  5.010846  4.858188
