16  
    
  C     4.811767 -2.043878  1.809535
  C     4.265805  1.155187  1.326909
  C     3.553961 -2.442452  1.189940
  C     3.019699  0.836665  0.644051
  N     5.758487 -1.783979  0.943044
  N     5.303168  1.468316  0.563067
  N     3.615732 -2.650499 -0.102336
  N     3.135967  0.818048 -0.668277
  N     2.970286 -1.914463  3.630147
  N     2.426517  1.028597  3.132567
  S     2.173200 -2.359224  2.239729
  S     1.690657  0.724497  1.718308
  S     5.184737 -2.306671 -0.556813
  S     4.762536  1.193274 -0.969317
  S     4.642196 -1.814115  3.546212
  S     4.057820  1.270020  3.044692
