16  
    
  C     4.759973 -2.482994  1.611432
  C     5.048008  1.449160  1.913730
  C     3.515878 -2.760907  0.991150
  C     3.812405  0.969580  1.276744
  N     5.827050 -2.587567  0.806607
  N     6.076663  1.712914  1.094748
  N     3.648897 -3.042232 -0.344113
  N     3.892422  1.030571 -0.039817
  N     2.975557 -2.347972  3.432358
  N     3.299584  0.921558  3.737775
  S     2.165306 -2.859149  2.079011
  S     2.458719  0.739588  2.315648
  S     5.254613 -2.932084 -0.699526
  S     5.365106  1.549312 -0.428621
  S     4.577097 -2.226991  3.290899
  S     4.907196  1.468778  3.646991
