16  
    
  C    10.139615  0.559712  2.611263
  C    10.615617  4.235791  2.872977
  C     9.043584 -0.130383  2.023198
  C     9.374661  3.873115  2.277785
  N    11.208538  0.636588  1.837723
  N    11.605425  4.283457  1.985289
  N     9.186249 -0.409331  0.732174
  N     9.383192  3.599168  0.994630
  N     8.328053  0.558735  4.380624
  N     8.970130  4.155963  4.785162
  S     7.694964 -0.277833  3.086815
  S     8.167978  3.742338  3.419754
  S    10.779122  0.059127  0.316187
  S    10.964561  3.770680  0.513133
  S     9.971184  0.874363  4.325382
  S    10.563259  4.675497  4.616789
