16  
    
  C    12.512752  1.617366  3.318447
  C    12.897399  5.439128  3.686929
  C    11.352622  0.967894  2.791123
  C    11.793919  4.952812  2.840590
  N    13.488675  1.931150  2.451785
  N    13.955119  5.759063  2.938637
  N    11.441394  0.785932  1.506577
  N    12.094706  4.818648  1.522694
  N    10.904473  1.081900  5.294220
  N    10.834116  5.022008  5.261016
  S    10.114441  0.523728  3.935532
  S    10.301882  4.603026  3.682168
  S    12.961091  1.352828  0.998040
  S    13.595622  5.456738  1.362745
  S    12.393700  1.729146  5.058953
  S    12.415890  5.593534  5.330809
