16  
    
  C     7.864795 -0.790818  2.081313
  C     8.252404  2.878266  2.461529
  C     6.731731 -1.381384  1.398588
  C     6.978871  2.560696  1.831276
  N     8.796031 -0.396777  1.234908
  N     9.242550  3.022611  1.597622
  N     6.961295 -1.729354  0.148088
  N     6.945653  2.600795  0.510618
  N     6.072565 -1.220052  3.994190
  N     6.514095  2.898249  4.364139
  S     5.377709 -1.675840  2.520542
  S     5.739229  2.391890  2.963155
  S     8.450365 -1.059359 -0.276815
  S     8.565922  2.844595  0.096176
  S     7.574676 -0.606067  3.834025
  S     8.202672  2.968633  4.218102
