16  
    
  C    12.077445  1.371407  3.352344
  C    11.716193  4.882235  3.731778
  C    10.926240  0.793814  2.765303
  C    10.585201  4.376495  3.020060
  N    13.100840  1.661262  2.529155
  N    12.767018  5.184853  2.924622
  N    10.972902  0.775555  1.443208
  N    10.714487  4.106268  1.730612
  N    10.322924  0.686449  5.250783
  N    10.021146  4.445695  5.528345
  S     9.576674  0.378608  3.803697
  S     9.315070  3.927083  4.098974
  S    12.515610  1.224827  1.017645
  S    12.310541  4.691412  1.415854
  S    11.805697  1.381127  5.065829
  S    11.588073  5.022260  5.435715
