16  
    
  C    12.580956  1.445260  3.356912
  C    12.829289  5.443917  3.549295
  C    11.378252  0.925454  2.723476
  C    11.762332  4.941724  2.748209
  N    13.449767  1.893172  2.466399
  N    13.879362  5.803825  2.868555
  N    11.407526  0.842744  1.412317
  N    12.020565  4.792024  1.451243
  N    10.866008  1.021318  5.274629
  N    10.880636  4.852260  5.256919
  S    10.082805  0.640789  3.830594
  S    10.301732  4.652715  3.651768
  S    12.849871  1.627783  0.975094
  S    13.558300  5.366367  1.276564
  S    12.387706  1.682168  5.068546
  S    12.442458  5.566884  5.273252
