16  
    
  C     3.259668 -2.805740  1.654183
  C     3.593033  0.884772  1.413942
  C     2.211467 -3.522455  0.900631
  C     2.350590  0.445787  0.821579
  N     4.099924 -2.125203  0.905809
  N     4.531468  1.332763  0.585829
  N     2.342368 -3.539854 -0.387381
  N     2.469346  0.382704 -0.487002
  N     1.433470 -3.409235  3.311464
  N     2.060659  0.252040  3.339257
  S     0.866502 -3.942196  1.859372
  S     1.131493 -0.014945  1.952526
  S     3.726705 -2.610121 -0.666300
  S     4.000727  0.905311 -0.948779
  S     2.923760 -2.745441  3.350394
  S     3.604095  0.776903  3.208060
