16  
    
  C    12.078273  1.387588  3.353200
  C    11.730601  4.892218  3.740024
  C    10.916167  0.768783  2.758108
  C    10.594612  4.390130  3.021199
  N    13.103059  1.655383  2.524023
  N    12.767038  5.176752  2.915546
  N    10.975120  0.758421  1.445255
  N    10.709559  4.119148  1.732253
  N    10.317590  0.684598  5.251831
  N    10.019884  4.442887  5.519175
  S     9.573852  0.392774  3.791369
  S     9.309992  3.931397  4.091829
  S    12.516913  1.217539  1.013521
  S    12.319620  4.680547  1.413760
  S    11.801330  1.385864  5.056055
  S    11.574917  5.021628  5.428610
