16  
    
  C     4.652342 -2.271159  1.621687
  C     4.886099  1.446299  1.859014
  C     3.441668 -2.597690  0.938579
  C     3.581861  1.410351  1.236033
  N     5.725654 -2.098526  0.824174
  N     5.926279  1.361398  1.013875
  N     3.590376 -2.721782 -0.398107
  N     3.633826  1.166894 -0.067565
  N     2.826753 -2.384082  3.401895
  N     3.109759  1.175681  3.781218
  S     2.124360 -2.960659  1.988114
  S     2.288725  1.375388  2.340401
  S     5.167684 -2.228510 -0.730935
  S     5.192634  1.256157 -0.480876
  S     4.429739 -1.951252  3.299907
  S     4.776446  1.650172  3.620718
