16  
    
  C     5.944343 -2.223474  1.778241
  C     6.090253  1.603427  1.894787
  C     4.701930 -2.489349  1.117007
  C     4.774278  1.681940  1.345812
  N     7.027270 -2.299215  0.994023
  N     7.024311  1.427461  0.985845
  N     4.808468 -2.677956 -0.207160
  N     4.643937  1.394793  0.053492
  N     4.199052 -2.196686  3.615241
  N     4.532585  2.191527  3.847658
  S     3.374118 -2.521389  2.251204
  S     3.536500  2.053046  2.537284
  S     6.388030 -2.455697 -0.526907
  S     6.248596  1.286555 -0.490750
  S     5.788207 -2.097136  3.527412
  S     6.147893  1.917057  3.595723
