16  
    
  C     7.870226 -0.817952  2.247306
  C     8.323428  2.796322  2.383603
  C     6.728998 -1.389599  1.545217
  C     7.021843  2.559840  1.849153
  N     8.863320 -0.409414  1.465937
  N     9.308313  2.914928  1.463436
  N     6.988064 -1.570841  0.249020
  N     6.947716  2.508684  0.498065
  N     6.105161 -1.157491  4.008558
  N     6.702891  3.093648  4.440159
  S     5.410997 -1.798401  2.556500
  S     5.770695  2.579087  3.131400
  S     8.444314 -0.843720 -0.065602
  S     8.568975  2.757769 -0.003333
  S     7.644364 -0.551875  3.940619
  S     8.376456  3.017644  4.116120
