16  
    
  C     7.129261 -1.379420  2.252638
  C     7.161013  2.197532  2.055641
  C     5.927193 -1.797800  1.598772
  C     5.924353  1.756337  1.455179
  N     8.125093 -1.103760  1.374346
  N     8.170850  2.304773  1.217027
  N     6.065567 -2.090879  0.278425
  N     5.958646  1.552381  0.149571
  N     5.347975 -1.396267  4.124917
  N     5.471095  1.939160  3.968305
  S     4.623352 -1.975156  2.777879
  S     4.658401  1.621125  2.577689
  S     7.633657 -1.671532 -0.077787
  S     7.574032  1.854997 -0.243415
  S     7.005179 -1.198728  3.940872
  S     6.998744  2.552374  3.785788
