16  
    
  C     3.308797 -3.068222  1.504580
  C     3.577683  0.515488  1.384513
  C     2.099596 -3.114613  0.706787
  C     2.283536  0.352170  0.764833
  N     4.419836 -2.970915  0.791462
  N     4.615895  0.694694  0.557053
  N     2.306060 -3.086830 -0.588246
  N     2.352576  0.340328 -0.557462
  N     1.373685 -3.531439  3.129978
  N     1.811521  0.172701  3.250041
  S     0.660371 -3.588945  1.602512
  S     1.033448  0.006039  1.864460
  S     3.914139 -2.843895 -0.790960
  S     3.992196  0.661432 -0.950433
  S     2.994672 -3.197552  3.231196
  S     3.371778  0.679336  3.116888
