16  
    
  C     9.770965  0.186227  2.739869
  C     9.789525  3.793055  2.604523
  C     8.567866 -0.391464  2.136993
  C     8.622582  3.171403  2.015630
  N    10.632188  0.528276  1.790385
  N    10.687968  4.121181  1.674939
  N     8.538388 -0.382980  0.816356
  N     8.715847  2.921545  0.713882
  N     8.175001 -0.585933  4.661422
  N     8.137908  3.244638  4.539918
  S     7.429985 -1.056394  3.260124
  S     7.335558  2.720445  3.154571
  S     9.976790  0.146812  0.314373
  S    10.141620  3.568144  0.242979
  S     9.770911 -0.089516  4.453976
  S     9.727645  3.909245  4.378387
