16  
    
  C     7.089467 -1.210213  2.314497
  C     7.767311  2.831111  2.337485
  C     6.102769 -1.883802  1.530446
  C     6.621985  2.331552  1.630814
  N     8.208049 -0.868695  1.643259
  N     8.787165  3.097586  1.547550
  N     6.349540 -1.858474  0.202242
  N     6.833602  2.239000  0.310472
  N     5.297709 -2.007068  3.898921
  N     5.957621  2.487827  4.136728
  S     4.849730 -2.532844  2.439504
  S     5.279991  2.052416  2.735416
  S     7.880092 -1.265681  0.090771
  S     8.353642  2.674680 -0.007999
  S     6.820570 -1.308464  4.009941
  S     7.575800  2.941002  4.100389
