16  
    
  C     4.275876 -2.545505  1.573110
  C     4.175320  1.136078  1.645882
  C     3.085687 -3.166516  1.061420
  C     2.865569  0.954188  1.095128
  N     5.245237 -2.309378  0.722079
  N     5.166093  1.244116  0.745894
  N     3.213688 -3.448997 -0.215118
  N     2.867424  0.702815 -0.205701
  N     2.641323 -2.820317  3.627082
  N     2.395374  1.346227  3.600699
  S     1.831636 -3.385508  2.293201
  S     1.525273  0.963609  2.198751
  S     4.746059 -3.059842 -0.682534
  S     4.482168  0.811757 -0.706642
  S     4.122055 -2.105915  3.286021
  S     4.041850  1.422776  3.460603
