16  
    
  C    12.508357  1.750076  3.409554
  C    12.826230  5.392856  3.410885
  C    11.350915  1.297765  2.714228
  C    11.601478  4.918480  2.733695
  N    13.550343  1.974137  2.594899
  N    13.831777  5.601711  2.573702
  N    11.377541  1.299058  1.374179
  N    11.671202  4.864426  1.398658
  N    10.830939  1.044241  5.221712
  N    11.058266  5.022932  5.205525
  S    10.098476  0.685228  3.812153
  S    10.380928  4.497170  3.789976
  S    12.954940  1.680373  1.034749
  S    13.233253  5.260077  0.985478
  S    12.394734  1.556847  5.103246
  S    12.586577  5.585521  5.166752
