16  
    
  C     9.770397 -0.696260  2.651265
  C     9.595017  3.339829  2.625893
  C     8.489140 -0.945145  2.054986
  C     8.391301  3.102480  1.887523
  N    10.729252 -0.465707  1.802006
  N    10.604573  3.510481  1.804649
  N     8.539608 -1.098813  0.758022
  N     8.444276  3.147543  0.569147
  N     7.992120 -0.529649  4.581181
  N     7.923317  2.890702  4.436893
  S     7.197558 -0.960382  3.168195
  S     7.053414  2.970044  3.005110
  S    10.052107 -0.642278  0.282851
  S    10.091671  3.409716  0.204414
  S     9.611898 -0.313153  4.408432
  S     9.567000  3.188067  4.421276
