16  
    
  C     7.110063 -1.314640  2.232564
  C     7.155624  2.186820  2.087340
  C     5.902607 -1.791804  1.595264
  C     5.923946  1.792755  1.440443
  N     8.103348 -1.127348  1.385172
  N     8.142742  2.273734  1.189247
  N     6.044600 -2.069975  0.307796
  N     5.982616  1.549260  0.129165
  N     5.355567 -1.454441  4.137934
  N     5.437200  1.925388  3.978926
  S     4.601648 -1.976130  2.753314
  S     4.640749  1.624135  2.562497
  S     7.628676 -1.657171 -0.060129
  S     7.560092  1.874156 -0.236483
  S     7.020052 -1.222072  3.941764
  S     6.988496  2.574013  3.794837
