16  
    
  C    10.543963  0.761386  3.016659
  C    10.649452  4.532464  2.841221
  C     9.336880  0.246848  2.425998
  C     9.550952  3.770775  2.291407
  N    11.526514  0.833447  2.120648
  N    11.593515  4.722387  1.915856
  N     9.477719 -0.177495  1.164045
  N     9.680169  3.289989  1.079167
  N     8.859862  0.578254  4.912014
  N     8.834032  4.343881  4.662923
  S     8.112799  0.040812  3.553589
  S     8.150634  3.682598  3.303796
  S    10.959618  0.249299  0.686627
  S    11.159157  3.832055  0.596029
  S    10.381107  1.205385  4.713877
  S    10.360560  5.030158  4.473404
