16  
    
  C    12.068550  1.497145  3.464879
  C    12.282946  5.334935  3.496743
  C    10.969792  0.892672  2.669790
  C    11.122553  4.688455  2.834665
  N    13.156675  1.667613  2.745693
  N    13.333236  5.402843  2.705509
  N    11.208402  0.697409  1.399378
  N    11.306003  4.365447  1.570995
  N    10.152304  1.191737  5.062362
  N    10.291560  5.283884  5.228876
  S     9.603231  0.499274  3.689126
  S     9.687704  4.582900  3.803327
  S    12.768096  1.246171  1.180777
  S    12.947614  4.757262  1.227942
  S    11.690602  1.755872  5.091764
  S    11.920239  5.629395  5.163191
