16  
    
  C     8.481597 -1.067151  2.342355
  C     8.194541  2.684464  2.069545
  C     7.299628 -1.402726  1.634691
  C     7.041395  2.285306  1.362873
  N     9.568073 -0.856364  1.568662
  N     9.255881  2.787071  1.297597
  N     7.446485 -1.512416  0.270580
  N     7.164628  2.202885  0.027468
  N     6.684466 -1.183759  4.194487
  N     6.491944  2.411299  3.903217
  S     6.010637 -1.753119  2.805156
  S     5.729870  2.021400  2.433403
  S     9.054021 -1.086223 -0.008299
  S     8.780963  2.581879 -0.300864
  S     8.322599 -0.936216  4.105562
  S     8.099596  3.012164  3.768632
