16  
    
  C     9.727683 -0.135637  2.555726
  C     9.681461  3.721731  2.517076
  C     8.508693 -0.645300  2.008714
  C     8.545580  3.123035  1.905701
  N    10.641623  0.232711  1.650814
  N    10.612542  4.077249  1.672403
  N     8.490309 -0.556464  0.677495
  N     8.628987  2.952450  0.575996
  N     8.274545 -0.572279  4.621795
  N     8.292927  3.028909  4.536824
  S     7.385138 -0.958400  3.271246
  S     7.424750  2.687082  3.144419
  S     9.904409  0.127510  0.198340
  S    10.145796  3.606045  0.173673
  S     9.813559 -0.055726  4.293162
  S     9.658990  3.995895  4.324770
