16  
    
  C     5.349575 -2.222787  1.532326
  C     4.953177  1.721906  1.746372
  C     4.228802 -2.899643  0.909115
  C     3.881315  0.919957  1.142401
  N     6.329003 -2.024756  0.712747
  N     6.049907  1.842017  0.989575
  N     4.383907 -3.117214 -0.381347
  N     4.272182  0.301671  0.020128
  N     3.458151 -2.285232  3.327212
  N     3.038622  1.778719  3.386714
  S     2.850773 -3.075389  1.944990
  S     2.527170  0.832252  2.179977
  S     5.927522 -2.626182 -0.800054
  S     5.806923  0.778686 -0.228255
  S     5.047030 -1.747816  3.226230
  S     4.643471  2.340639  3.360198
