16  
    
  C    12.155233  1.142019  3.372544
  C    12.297088  5.046375  3.341089
  C    10.944770  0.741277  2.752984
  C    10.982173  4.701640  2.789868
  N    13.234281  1.144884  2.618941
  N    13.242781  5.094677  2.449876
  N    11.050501  0.626995  1.435532
  N    11.027750  4.331421  1.525540
  N    10.219408  1.429878  5.152878
  N    10.531303  5.350621  5.214662
  S     9.443473  0.805740  3.748763
  S     9.719195  4.835689  3.867443
  S    12.672025  0.813049  1.054533
  S    12.624257  4.658835  0.977999
  S    11.888811  1.694016  5.000771
  S    12.170955  5.537649  5.092748
