16  
    
  C     6.012752 -2.389975  1.797123
  C     6.089252  1.570443  1.849877
  C     4.720749 -2.573374  1.185262
  C     4.748300  1.582353  1.331150
  N     7.044289 -2.178199  0.944840
  N     7.059962  1.410737  0.960141
  N     4.800104 -2.682346 -0.147579
  N     4.726047  1.565718  0.002579
  N     4.160248 -2.123203  3.652330
  N     4.499248  2.226552  3.839191
  S     3.372856 -2.477174  2.197396
  S     3.495154  2.009734  2.482794
  S     6.435981 -2.515049 -0.577857
  S     6.275577  1.373652 -0.510553
  S     5.882536 -2.087776  3.519781
  S     6.134386  1.903964  3.574089
