16  
    
  C     7.310078 -1.690017  2.165497
  C     7.443628  2.417171  2.108395
  C     6.122409 -2.149455  1.513509
  C     6.172556  1.991400  1.545861
  N     8.347537 -1.369226  1.358261
  N     8.469665  2.474111  1.279755
  N     6.261272 -2.217579  0.168189
  N     6.143629  1.908447  0.221082
  N     5.526744 -2.056616  4.050872
  N     5.858191  2.122511  4.054557
  S     4.813962 -2.311760  2.634092
  S     4.959695  1.750028  2.746811
  S     7.815916 -1.658517 -0.179227
  S     7.831773  2.197049 -0.226834
  S     7.136198 -1.701053  3.930955
  S     7.403028  2.674741  3.838367
