16  
    
  C    12.497475  1.549881  3.441610
  C    12.347385  5.357571  3.474285
  C    11.315852  1.113247  2.823692
  C    11.119907  4.739125  2.962307
  N    13.449766  1.805565  2.521377
  N    13.366645  5.541624  2.612821
  N    11.345784  0.894987  1.495164
  N    11.254571  4.489700  1.631438
  N    10.890772  1.165852  5.414333
  N    10.657130  4.944250  5.399565
  S    10.060339  0.830454  4.034318
  S     9.802964  4.587186  4.053910
  S    12.915112  1.326264  1.074241
  S    12.740590  5.062745  1.156310
  S    12.359949  1.834127  5.189732
  S    12.212083  5.485508  5.209169
