16  
    
  C     9.167905 -0.429481  2.522373
  C     9.347551  3.140494  2.608541
  C     8.019612 -1.104317  2.070850
  C     8.072364  2.776256  2.047965
  N    10.211760 -0.324907  1.645948
  N    10.386777  3.256220  1.746931
  N     8.129645 -1.385262  0.756491
  N     8.185724  2.419434  0.764362
  N     7.488987 -0.418144  4.466201
  N     7.586757  3.257187  4.573200
  S     6.660826 -1.138448  3.165352
  S     6.721157  2.973220  3.192943
  S     9.588480 -0.907901  0.218711
  S     9.718364  2.797774  0.342976
  S     9.092276  0.011023  4.192548
  S     9.183385  3.528038  4.213065
