16  
    
  C     9.979117 -0.115372  2.768488
  C     9.783233  3.867547  2.816936
  C     8.784456 -0.575012  2.054686
  C     8.770943  3.060400  2.176415
  N    11.032048  0.184156  1.944491
  N    10.790930  4.241966  2.036771
  N     9.064175 -0.783495  0.759933
  N     9.048321  2.896041  0.863971
  N     8.051835 -0.386686  4.478215
  N     7.875545  3.667123  4.569635
  S     7.386482 -0.953436  3.028830
  S     7.228092  3.102475  3.149927
  S    10.569123 -0.239907  0.390244
  S    10.443196  3.679885  0.553142
  S     9.657762  0.080056  4.466870
  S     9.393668  4.310912  4.418996
