16  
    
  C     8.483572 -1.063382  2.342117
  C     8.199353  2.680497  2.069745
  C     7.304308 -1.418904  1.638327
  C     7.043563  2.285860  1.364469
  N     9.570619 -0.855923  1.565702
  N     9.256839  2.795191  1.293985
  N     7.452220 -1.516075  0.271777
  N     7.160572  2.205854  0.025502
  N     6.692757 -1.184588  4.197676
  N     6.498440  2.418846  3.906872
  S     6.009533 -1.759977  2.811490
  S     5.732128  2.025662  2.440304
  S     9.055227 -1.084491 -0.012853
  S     8.780565  2.587098 -0.298189
  S     8.324671 -0.936589  4.105126
  S     8.100545  3.019707  3.770123
