16  
    
  C     5.731343 -2.078603  2.109239
  C     5.927561  1.484721  1.958058
  C     4.600189 -2.717492  1.481082
  C     4.758126  1.002012  1.266762
  N     6.701363 -1.879581  1.226346
  N     6.973678  1.842514  1.222359
  N     4.670571 -2.852591  0.153152
  N     4.829407  1.104600 -0.043149
  N     3.905664 -2.222126  3.887433
  N     4.153571  0.934264  3.780139
  S     3.238812 -2.916070  2.576268
  S     3.419454  0.555984  2.317790
  S     6.229678 -2.487712 -0.214249
  S     6.436609  1.586126 -0.399383
  S     5.491491 -1.885096  3.801863
  S     5.640519  1.598543  3.666371
