16  
    
  C    11.137597  0.752601  2.855039
  C    11.158574  4.212990  3.297649
  C     9.954166  0.032828  2.365601
  C     9.860178  3.985714  2.713862
  N    12.108876  0.871433  1.950857
  N    12.200171  4.238939  2.451977
  N    10.130733 -0.510215  1.163125
  N     9.913414  4.045938  1.387329
  N     9.410234  0.554790  4.863265
  N     9.407426  4.209018  5.239470
  S     8.710062 -0.245541  3.601687
  S     8.572572  4.043524  3.813740
  S    11.577116  0.042032  0.595728
  S    11.494265  4.102204  0.918931
  S    10.950570  1.030972  4.604202
  S    11.051376  4.479130  5.042159
