16  
    
  C     7.132410 -1.590059  1.848896
  C     6.998271  2.101280  1.976742
  C     5.971803 -2.137086  1.178069
  C     5.797984  1.746217  1.283752
  N     8.236530 -1.511680  1.113123
  N     8.034978  2.312284  1.158991
  N     6.183141 -2.260799 -0.112801
  N     5.879204  1.598448 -0.037881
  N     5.303445 -1.799678  3.693756
  N     5.261457  1.645098  3.845135
  S     4.556155 -2.169380  2.228504
  S     4.462833  1.464739  2.353750
  S     7.759302 -1.871733 -0.451493
  S     7.440915  1.998733 -0.427564
  S     6.872860 -1.264536  3.600067
  S     6.896415  2.118238  3.729619
