16  
    
  C     8.718256 -0.237225  2.511027
  C     8.603992  3.136037  2.567125
  C     7.536604 -0.677403  1.843924
  C     7.392573  2.649365  1.888890
  N     9.724787  0.151733  1.689189
  N     9.691332  3.260497  1.778216
  N     7.705729 -0.842796  0.496445
  N     7.581026  2.486224  0.562142
  N     7.016854 -0.754777  4.435759
  N     6.743310  2.883869  4.346322
  S     6.259398 -0.959201  2.970477
  S     5.979855  2.424396  2.925808
  S     9.239993 -0.264467  0.136600
  S     9.203779  2.803093  0.263076
  S     8.551747 -0.097459  4.248203
  S     8.347002  3.263428  4.259524
