16  
    
  C    10.969265  0.633101  3.137373
  C    11.006774  4.317038  3.446479
  C     9.834532  0.058924  2.462988
  C     9.783742  3.843797  2.792509
  N    11.925136  1.002268  2.269543
  N    12.030542  4.565673  2.598480
  N     9.915471  0.003111  1.117989
  N     9.922637  3.652252  1.500081
  N     9.165510  0.136835  4.949153
  N     9.227986  4.058884  5.252130
  S     8.459860 -0.131546  3.466812
  S     8.519683  3.494986  3.837892
  S    11.379962  0.571161  0.763804
  S    11.372798  4.237874  1.060597
  S    10.763143  0.671887  4.864494
  S    10.781342  4.685486  5.136825
