16  
    
  C     8.977818 -0.358051  2.524032
  C     9.426420  3.581773  2.855862
  C     7.773331 -0.778902  1.917875
  C     8.173796  3.132665  2.158939
  N    10.005730 -0.139307  1.664276
  N    10.476447  3.538175  2.021277
  N     7.853110 -0.935374  0.584332
  N     8.299959  2.794160  0.869193
  N     7.402052 -0.841259  4.526691
  N     7.624923  3.477195  4.703120
  S     6.562296 -1.148076  3.105824
  S     6.798693  3.122913  3.260151
  S     9.437646 -0.541683  0.149923
  S     9.916690  3.184278  0.497021
  S     8.993501 -0.407280  4.223015
  S     9.246670  3.932629  4.563619
