16  
    
  C    12.735588  1.647168  3.337799
  C    12.623377  5.418954  3.237251
  C    11.482152  1.236360  2.752986
  C    11.369341  4.828907  2.705474
  N    13.642315  1.915917  2.451223
  N    13.551424  5.591359  2.282805
  N    11.528283  1.102171  1.439964
  N    11.350600  4.695247  1.430251
  N    11.060412  1.494644  5.285702
  N    11.067747  4.805740  5.208128
  S    10.276545  0.847339  3.927616
  S    10.199913  4.436151  3.893079
  S    13.046378  1.584324  0.965912
  S    12.845813  5.110397  0.875128
  S    12.740462  1.649134  5.140903
  S    12.531157  5.491384  4.990518
