16  
    
  C     7.170894 -1.635691  1.744892
  C     6.958890  1.982705  1.907381
  C     5.980850 -2.160122  1.112163
  C     5.680057  1.647393  1.288820
  N     8.220028 -1.507525  0.919525
  N     7.950136  2.341694  1.107863
  N     6.088832 -2.328332 -0.201522
  N     5.756097  1.607561 -0.034002
  N     5.366514 -1.782404  3.578330
  N     5.292109  1.567749  3.872425
  S     4.627867 -2.270138  2.142372
  S     4.422778  1.329907  2.448170
  S     7.629690 -2.004569 -0.573762
  S     7.316812  2.046900 -0.485416
  S     6.955729 -1.325507  3.412200
  S     6.845086  2.151286  3.617877
