16  
    
  C    12.708645  1.501564  3.586551
  C    12.895108  5.526327  3.736306
  C    11.553595  0.820768  2.975256
  C    11.763116  4.941997  3.029937
  N    13.699937  1.661523  2.722379
  N    13.922304  5.784474  2.916708
  N    11.654435  0.634009  1.642396
  N    11.934152  4.731453  1.756921
  N    10.806999  1.426967  5.346892
  N    11.087779  5.108056  5.455481
  S    10.141574  0.782973  3.994409
  S    10.391934  4.666173  4.021036
  S    13.190287  1.191202  1.213011
  S    13.453114  5.279472  1.426969
  S    12.336106  2.003613  5.204254
  S    12.559354  5.771652  5.483834
