16  
    
  C     4.201649 -2.260070  1.818746
  C     4.038638  1.199833  1.205111
  C     3.091206 -2.990785  1.253961
  C     3.027098  0.270883  0.655641
  N     5.202166 -2.030066  0.956964
  N     4.978105  1.468308  0.311705
  N     3.252914 -3.309932 -0.040389
  N     3.194540 -0.104203 -0.594332
  N     2.577889 -2.628530  3.769070
  N     2.244862  0.920534  3.046910
  S     1.783252 -3.153288  2.392484
  S     1.677185  0.031119  1.736696
  S     4.692538 -2.653158 -0.538863
  S     4.535061  0.729779 -1.100268
  S     4.116274 -1.995318  3.505714
  S     3.778278  1.687373  2.849194
