16  
    
  C     5.471921 -2.213772  1.904078
  C     5.222200  1.608674  1.728537
  C     4.317202 -2.752615  1.235824
  C     4.173325  0.955383  0.993114
  N     6.427217 -1.836289  1.102585
  N     6.215572  2.060240  0.976474
  N     4.454478 -2.735417 -0.051872
  N     4.198571  1.108145 -0.337417
  N     3.716765 -2.493610  3.742823
  N     3.519275  0.867630  3.523868
  S     2.962869 -2.911053  2.311203
  S     3.021484  0.200665  2.037686
  S     6.002720 -2.216396 -0.421545
  S     5.723705  1.769002 -0.614123
  S     5.273976 -1.924619  3.642476
  S     5.038590  1.563431  3.466098
