16  
    
  C     8.377940 -0.934553  2.472938
  C     8.165162  2.602981  2.111630
  C     7.121805 -1.357631  1.943651
  C     7.043994  2.178992  1.332912
  N     9.353752 -0.967493  1.615917
  N     9.286941  2.650419  1.412975
  N     7.142751 -1.700022  0.672169
  N     7.319074  1.949202  0.035302
  N     6.759514 -0.632806  4.379902
  N     6.316810  2.151560  3.850940
  S     5.871813 -1.306955  3.116782
  S     5.603991  2.035289  2.334912
  S     8.714673 -1.468335  0.209858
  S     8.945750  2.160805 -0.109923
  S     8.367518 -0.429845  4.118835
  S     7.912251  2.742913  3.865237
