16  
    
  C     9.084414 -0.335152  2.410127
  C     9.362682  3.180167  2.700087
  C     7.889673 -0.920130  1.886000
  C     8.147322  2.780677  2.082112
  N    10.075838 -0.182437  1.527702
  N    10.356724  3.153602  1.830359
  N     8.005911 -1.391448  0.634039
  N     8.193341  2.531391  0.759449
  N     7.346557 -0.344514  4.320253
  N     7.681747  3.228127  4.573182
  S     6.666960 -1.156207  3.029377
  S     6.806019  2.898637  3.193305
  S     9.517649 -0.964117  0.157617
  S     9.770496  2.738080  0.324233
  S     8.900269  0.119579  4.133272
  S     9.313384  3.651554  4.466790
