16  
    
  C     8.382956 -0.915384  2.461838
  C     8.166149  2.587432  2.110205
  C     7.112451 -1.364860  1.938339
  C     7.040756  2.179379  1.328116
  N     9.366818 -0.964331  1.625514
  N     9.282147  2.654659  1.424117
  N     7.146589 -1.670703  0.667411
  N     7.336142  1.958263  0.038264
  N     6.758630 -0.624792  4.372251
  N     6.330628  2.139832  3.835208
  S     5.859551 -1.303923  3.105587
  S     5.601745  2.024659  2.336597
  S     8.720245 -1.462698  0.216757
  S     8.953690  2.152247 -0.118856
  S     8.365965 -0.435203  4.113532
  S     7.908847  2.733455  3.857850
