16  
    
  C     3.653489 -2.731585  1.164171
  C     4.007483  1.007980  1.493878
  C     2.550670 -3.482348  0.634077
  C     2.837283  0.350606  0.896254
  N     4.695619 -2.693951  0.295079
  N     4.984465  1.170948  0.598308
  N     2.725768 -4.017634 -0.580910
  N     2.942829  0.090882 -0.415474
  N     1.938043 -2.984365  3.034393
  N     2.305929  0.641955  3.429930
  S     1.254033 -3.713897  1.709068
  S     1.431682  0.227856  2.009727
  S     4.151395 -3.439623 -1.066292
  S     4.436295  0.723800 -0.891515
  S     3.484591 -2.414969  2.858419
  S     3.854364  1.196518  3.197886
