16  
    
  C     3.504844 -3.100464  1.030842
  C     3.883351  0.743785  1.461307
  C     2.235676 -3.541038  0.425640
  C     2.653158  0.371530  0.772272
  N     4.531344 -3.037431  0.227386
  N     4.911116  0.870442  0.644806
  N     2.326273 -3.776260 -0.872978
  N     2.803342  0.116200 -0.530006
  N     1.766818 -2.982155  2.909134
  N     2.083459  0.409212  3.286205
  S     1.031605 -3.827665  1.691410
  S     1.305859 -0.028583  1.914291
  S     3.939033 -3.340759 -1.290249
  S     4.343958  0.500324 -0.947177
  S     3.332956 -2.604955  2.647133
  S     3.639278  1.025453  3.169296
