16  
    
  C    10.713015  0.705484  2.926828
  C    10.675472  4.457269  2.790163
  C     9.491050  0.218077  2.306811
  C     9.655304  3.604991  2.257251
  N    11.774344  0.747066  2.136277
  N    11.769269  4.584310  2.061448
  N     9.608075 -0.279183  1.070885
  N     9.873567  3.256074  0.979943
  N     8.999897  0.756036  4.816271
  N     8.737644  4.461442  4.469759
  S     8.210761  0.269606  3.442636
  S     8.347758  3.309812  3.337900
  S    11.226695  0.153044  0.672098
  S    11.455620  3.752990  0.645046
  S    10.572363  1.232436  4.609776
  S    10.276430  5.070347  4.392680
