16  
    
  C     9.992146 -0.141528  2.836191
  C    10.018235  3.798823  2.693582
  C     8.800263 -0.577270  2.193436
  C     8.835034  3.169962  2.197435
  N    11.017015 -0.038372  1.991812
  N    10.923759  4.059500  1.759502
  N     8.842542 -0.610490  0.853574
  N     8.961301  2.768087  0.930046
  N     8.209296 -0.352927  4.643392
  N     8.542913  3.564793  4.739818
  S     7.458078 -0.781107  3.218012
  S     7.749805  2.784915  3.477732
  S    10.425649 -0.297013  0.444377
  S    10.370992  3.381615  0.355733
  S     9.874136 -0.176657  4.637853
  S    10.128400  4.081472  4.481101
