16  
    
  C     8.948245 -0.235585  2.537889
  C     8.630071  3.442808  2.561338
  C     7.732456 -0.696977  1.897073
  C     7.374888  2.934863  1.929820
  N     9.964834 -0.074253  1.701422
  N     9.547697  3.753812  1.661535
  N     7.810531 -0.754688  0.608090
  N     7.430265  2.777593  0.617144
  N     7.144948 -0.561670  4.480617
  N     7.094670  2.763262  4.544353
  S     6.419479 -0.964583  3.006357
  S     6.256069  2.504364  3.121499
  S     9.397851 -0.381566  0.147727
  S     8.905340  3.462304  0.189703
  S     8.803099 -0.254075  4.359164
  S     8.671523  3.274488  4.320816
