16  
    
  C     9.902826 -0.142676  2.905367
  C    10.175584  3.547888  2.791816
  C     8.735726 -0.674849  2.182318
  C     8.827070  3.369284  2.250281
  N    10.973609  0.048140  2.186728
  N    11.088191  3.740027  1.833152
  N     8.910331 -0.699508  0.879069
  N     8.797843  3.313384  0.909930
  N     8.174116 -0.751879  4.713065
  N     8.616677  3.330108  4.820322
  S     7.396000 -0.813315  3.307390
  S     7.615538  3.251023  3.513097
  S    10.529392 -0.287100  0.623543
  S    10.342511  3.541130  0.380417
  S     9.722416 -0.185595  4.572017
  S    10.210160  3.765709  4.515856
