16  
    
  C     9.071056 -0.321295  2.489246
  C     9.556502  3.532918  2.844905
  C     7.854607 -0.841370  1.930828
  C     8.306327  3.120792  2.290086
  N    10.102860 -0.188670  1.626872
  N    10.578205  3.640846  1.978747
  N     7.903456 -0.984142  0.603897
  N     8.451705  2.810315  1.027081
  N     7.388088 -0.785843  4.475957
  N     7.647570  3.578759  4.655712
  S     6.564910 -1.164792  3.093753
  S     6.841403  3.197363  3.246085
  S     9.431534 -0.576111  0.155487
  S     9.936897  3.095457  0.480528
  S     8.973108 -0.425475  4.248329
  S     9.291134  3.947828  4.514071
