16  
    
  C     8.714327 -0.453576  2.521708
  C     8.632535  3.037913  2.594274
  C     7.530716 -0.788758  1.791144
  C     7.387543  2.726131  1.876369
  N     9.752521 -0.270688  1.683440
  N     9.689161  3.042118  1.754681
  N     7.675418 -0.992923  0.463395
  N     7.472816  2.620796  0.529107
  N     6.873828 -0.529690  4.309207
  N     6.775560  2.982278  4.381941
  S     6.170789 -1.000711  2.831598
  S     6.052530  2.483325  2.987860
  S     9.282498 -0.600589  0.118710
  S     9.100231  2.916523  0.250516
  S     8.459026 -0.076825  4.225222
  S     8.403171  3.239574  4.376935
