16  
    
  C     9.926164 -0.231999  2.858077
  C    10.096486  3.716259  2.702855
  C     8.732233 -0.555859  2.211016
  C     8.846641  3.225188  2.247722
  N    11.028910  0.004733  2.097003
  N    11.104180  3.884207  1.841883
  N     8.935682 -0.719274  0.874692
  N     8.834917  3.146391  0.939902
  N     8.216027 -0.631724  4.747226
  N     8.640687  3.457455  4.810938
  S     7.359192 -0.798497  3.287479
  S     7.621374  3.071900  3.568316
  S    10.496403 -0.283748  0.581210
  S    10.376658  3.480022  0.370882
  S     9.780610 -0.187006  4.566095
  S    10.158739  3.843154  4.379577
