16  
    
  C     7.310811 -1.573756  2.172797
  C     7.575405  2.736080  2.188274
  C     6.119257 -1.976284  1.446324
  C     6.370760  2.238846  1.564972
  N     8.288177 -1.199267  1.349946
  N     8.564486  2.942726  1.325606
  N     6.281190 -2.040841  0.118642
  N     6.402666  2.012373  0.241713
  N     5.527843 -2.140897  4.000002
  N     5.918021  2.304555  4.093108
  S     4.912521 -2.635723  2.578794
  S     5.106634  1.962435  2.717235
  S     7.826207 -1.428598 -0.214536
  S     7.987431  2.569843 -0.151897
  S     7.092896 -1.508226  3.884705
  S     7.554905  2.678933  3.944946
