16  
    
  C     9.893160 -0.169333  2.787442
  C     9.721535  3.953764  2.803127
  C     8.740016 -0.641961  2.044507
  C     8.556159  3.450444  2.068285
  N    10.948725  0.086170  2.079169
  N    10.776702  4.009429  1.969255
  N     8.926752 -0.775365  0.760235
  N     8.663628  3.263733  0.754845
  N     7.930835 -0.299338  4.501166
  N     7.829848  3.595129  4.518223
  S     7.382289 -0.919969  3.039149
  S     7.151311  3.174152  3.054500
  S    10.508564 -0.349847  0.511796
  S    10.263107  3.664753  0.463049
  S     9.532683  0.022424  4.485977
  S     9.383219  4.135234  4.536881
