16  
    
  C     7.170395 -1.623084  1.726484
  C     6.939799  1.979782  1.903578
  C     5.997999 -2.187258  1.081090
  C     5.671041  1.620698  1.280930
  N     8.181367 -1.512304  0.884116
  N     7.935312  2.343407  1.076853
  N     6.063538 -2.314757 -0.218568
  N     5.763439  1.618842 -0.054976
  N     5.370546 -1.775566  3.569922
  N     5.288298  1.576048  3.887663
  S     4.616791 -2.284240  2.150271
  S     4.413503  1.307467  2.451360
  S     7.634747 -2.016041 -0.591469
  S     7.295708  2.047516 -0.486379
  S     6.969236 -1.344558  3.407728
  S     6.839271  2.165280  3.634019
