16  
    
  C     6.202922 -1.705366  1.619667
  C     6.423829  1.899911  1.888036
  C     5.036764 -2.305908  0.990032
  C     5.146488  1.775316  1.171576
  N     7.204473 -1.558500  0.780754
  N     7.460401  1.951614  1.042542
  N     5.177345 -2.781138 -0.245770
  N     5.308417  1.692243 -0.136666
  N     4.416467 -1.764534  3.409711
  N     4.533930  2.021378  3.632630
  S     3.679046 -2.438370  2.088344
  S     3.731527  1.631748  2.230462
  S     6.678171 -2.108399 -0.739541
  S     6.863493  1.883545 -0.478765
  S     5.978744 -1.362543  3.294186
  S     6.189998  2.040085  3.620161
