16  
    
  C     7.102078 -1.418914  2.273647
  C     7.073211  2.207740  2.080808
  C     5.869235 -1.759023  1.618248
  C     5.878607  1.809679  1.420105
  N     8.114667 -1.217769  1.437654
  N     8.124805  2.394403  1.268906
  N     5.937578 -1.816326  0.297857
  N     6.077718  1.603126  0.116874
  N     5.300792 -1.838144  4.172852
  N     5.272547  1.999550  3.944902
  S     4.549948 -2.024951  2.681890
  S     4.521462  1.674741  2.504532
  S     7.547090 -1.568341 -0.082491
  S     7.638654  1.911680 -0.176552
  S     6.852055 -1.337225  4.028490
  S     6.817384  2.571521  3.774556
