16  
    
  C     7.912516 -0.654108  2.407718
  C     8.271819  2.974393  2.305712
  C     6.869748 -1.332692  1.700215
  C     7.003626  2.579870  1.771950
  N     9.004813 -0.449531  1.676524
  N     9.274091  3.075365  1.422702
  N     7.062925 -1.452839  0.390770
  N     6.983999  2.250501  0.456085
  N     6.197206 -1.133987  4.173266
  N     6.751387  2.772793  4.324871
  S     5.495231 -1.682640  2.710698
  S     5.793175  2.585014  3.022386
  S     8.624357 -0.910593  0.125746
  S     8.634742  2.547620 -0.015628
  S     7.737527 -0.477375  4.138250
  S     8.267576  3.282471  4.038690
