16  
    
  C     6.653157 -1.802491  1.881486
  C     6.625437  2.194088  2.078958
  C     5.389513 -2.126205  1.247539
  C     5.456824  1.540402  1.471030
  N     7.615603 -1.547398  0.997606
  N     7.483121  2.661136  1.181122
  N     5.413671 -2.079650 -0.091713
  N     5.589094  1.381674  0.152568
  N     5.018321 -2.233116  3.783607
  N     5.025618  1.504343  3.987750
  S     4.115585 -2.514447  2.386540
  S     4.221935  1.082765  2.603067
  S     7.016753 -1.797975 -0.489814
  S     6.964103  2.085984 -0.292777
  S     6.630716 -1.792670  3.586967
  S     6.460311  2.373352  3.826591
