16  
    
  C    10.891710  0.792672  2.974224
  C    10.903544  4.426637  3.355644
  C     9.676123  0.214758  2.354967
  C     9.756357  3.789745  2.741584
  N    11.944633  0.890176  2.161681
  N    11.926278  4.736448  2.568967
  N     9.787441  0.007302  1.029735
  N     9.945503  3.677189  1.419995
  N     9.281784  0.224422  4.942089
  N     9.193453  4.022789  5.270192
  S     8.436298 -0.222600  3.581342
  S     8.425234  3.557724  3.862583
  S    11.397650  0.463237  0.633602
  S    11.525448  4.201740  1.087194
  S    10.847731  0.770608  4.716420
  S    10.668657  4.669313  5.068776
