16  
    
  C     6.167490 -1.640784  2.313768
  C     6.575792  2.049278  2.172432
  C     5.173328 -2.482267  1.656586
  C     5.366259  1.605109  1.535005
  N     7.070226 -1.123794  1.486103
  N     7.568874  2.275097  1.318272
  N     5.344293 -2.593075  0.351195
  N     5.427338  1.621367  0.185255
  N     4.383224 -2.175312  4.097883
  N     4.859319  1.907330  4.084419
  S     3.845208 -2.836839  2.641616
  S     4.069619  1.477830  2.667271
  S     6.774337 -1.795743  0.019617
  S     6.975294  1.987516 -0.189023
  S     5.917642 -1.551049  4.040964
  S     6.521001  2.278712  3.903200
