16  
    
  C     9.849231 -0.207789  2.814927
  C     9.670783  3.951213  2.732372
  C     8.639960 -0.640470  2.077526
  C     8.420341  3.639845  2.071784
  N    10.906735  0.029622  2.079224
  N    10.772924  4.008926  1.986240
  N     8.917894 -0.763286  0.808144
  N     8.621223  3.518728  0.792181
  N     7.887270 -0.286886  4.496297
  N     7.772284  3.568009  4.556412
  S     7.240046 -0.931592  3.111035
  S     7.087107  3.147375  3.101123
  S    10.508249 -0.379205  0.549680
  S    10.209675  3.606694  0.405550
  S     9.543372  0.025714  4.478130
  S     9.420186  3.972692  4.450766
