16  
    
  C    10.490734  0.558425  3.038491
  C    10.562342  4.587827  2.747140
  C     9.271779  0.096238  2.495032
  C     9.346887  4.015043  2.247142
  N    11.452220  0.864200  2.150751
  N    11.632511  4.591304  1.947345
  N     9.379581 -0.085729  1.164800
  N     9.495503  3.687752  0.974916
  N     8.757467  0.527740  4.946294
  N     8.859342  4.547417  4.722945
  S     8.009012 -0.234714  3.679498
  S     8.123404  3.687459  3.500440
  S    10.865709  0.367099  0.687559
  S    11.078851  4.024560  0.516486
  S    10.309899  1.039804  4.682188
  S    10.483659  4.867217  4.479003
