16  
    
  C     3.219142 -2.732225  1.665145
  C     3.601529  0.915358  1.449816
  C     2.232405 -3.421628  0.910692
  C     2.412541  0.427067  0.797893
  N     4.189405 -2.245504  0.881389
  N     4.544732  1.225757  0.565737
  N     2.447865 -3.475484 -0.386022
  N     2.412052  0.358199 -0.536164
  N     1.383963 -3.458661  3.317084
  N     1.964316  0.181699  3.380554
  S     0.783878 -3.860295  1.793352
  S     1.145731 -0.019096  1.966499
  S     3.777804 -2.637938 -0.657222
  S     3.972231  0.888918 -0.945726
  S     2.955641 -2.837265  3.390397
  S     3.578627  0.685283  3.166736
