16  
    
  C     6.348802 -1.687353  1.606711
  C     6.329310  2.185252  1.909043
  C     5.203201 -2.250286  0.957272
  C     5.230777  1.413522  1.289899
  N     7.354826 -1.399182  0.786753
  N     7.378396  2.415344  1.123023
  N     5.356775 -2.434123 -0.349057
  N     5.413799  1.153962 -0.002432
  N     4.402060 -1.704178  3.355663
  N     4.571931  1.925267  3.760788
  S     3.867572 -2.518566  1.991387
  S     3.910208  1.299945  2.351724
  S     6.870771 -1.911863 -0.728067
  S     7.001280  1.742503 -0.384217
  S     5.985856 -1.251537  3.278467
  S     6.160337  2.512534  3.587368
