16  
    
  C     7.047192 -1.575323  2.248226
  C     7.097711  2.252730  2.111994
  C     5.837441 -1.861897  1.539765
  C     5.932697  1.848759  1.403877
  N     8.126911 -1.379990  1.518857
  N     8.167876  2.387837  1.326572
  N     5.982597 -1.846025  0.214539
  N     6.135936  1.538588  0.130452
  N     5.220882 -1.686129  4.022643
  N     5.166340  1.996522  3.859041
  S     4.445495 -2.117756  2.543422
  S     4.496639  1.645633  2.359643
  S     7.583072 -1.449381 -0.039894
  S     7.684740  1.902395 -0.202677
  S     6.857977 -1.445470  3.930388
  S     6.737639  2.498783  3.812038
