16  
    
  C     5.459270 -2.240216  1.622395
  C     5.264445  1.562150  1.560946
  C     4.288406 -2.562403  0.882714
  C     4.133002  1.032531  0.809762
  N     6.625287 -2.114246  0.905112
  N     6.386255  1.626418  0.879600
  N     4.538500 -2.785030 -0.425591
  N     4.415108  0.674625 -0.440945
  N     3.479113 -2.456532  3.324304
  N     3.134785  1.715127  3.102717
  S     2.904074 -2.915461  1.801691
  S     2.705646  0.732884  1.763886
  S     6.127895 -2.418242 -0.654072
  S     6.031233  1.162218 -0.717996
  S     5.131023 -2.085791  3.310051
  S     4.711599  2.205647  3.102417
