16  
    
  C     6.031617 -2.256212  1.726319
  C     6.074149  1.628295  1.833226
  C     4.756380 -2.484506  1.109030
  C     4.787705  1.779659  1.225629
  N     7.075782 -2.266548  0.943561
  N     7.093553  1.427518  1.002166
  N     4.887387 -2.806323 -0.159394
  N     4.729968  1.646863 -0.092831
  N     4.265926 -2.114750  3.582460
  N     4.460931  2.101691  3.775393
  S     3.460022 -2.461719  2.238602
  S     3.528184  1.940186  2.400069
  S     6.463167 -2.494889 -0.568538
  S     6.396347  1.486792 -0.547977
  S     5.887576 -2.024392  3.492541
  S     6.080908  1.893678  3.561699
