16  
    
  C     8.891332 -0.370751  2.538599
  C     8.442048  3.231545  2.528863
  C     7.643588 -0.655949  1.880436
  C     7.338592  2.668376  1.883176
  N     9.905715 -0.010689  1.723103
  N     9.464373  3.525963  1.741593
  N     7.769393 -0.702671  0.525307
  N     7.439228  2.650539  0.545831
  N     7.165275 -0.746574  4.465950
  N     6.842124  2.770575  4.413103
  S     6.336754 -0.915497  3.046758
  S     6.198736  2.154990  3.043654
  S     9.315807 -0.191426  0.162579
  S     8.913919  3.326692  0.179604
  S     8.741725 -0.134797  4.291066
  S     8.373868  3.366010  4.264470
