16  
    
  C     6.269731 -1.747471  1.958883
  C     6.485220  2.151170  2.047101
  C     5.170752 -2.336810  1.221349
  C     5.298280  1.690268  1.412516
  N     7.306017 -1.474199  1.199757
  N     7.513462  2.423444  1.235482
  N     5.343298 -2.398334 -0.092383
  N     5.407043  1.403899  0.118213
  N     4.502285 -2.157969  3.772407
  N     4.745847  1.838453  3.885436
  S     3.824996 -2.707416  2.325567
  S     4.000876  1.456441  2.487855
  S     6.886952 -1.957847 -0.308139
  S     7.024025  1.815973 -0.273913
  S     5.999511 -1.470640  3.629910
  S     6.298750  2.405876  3.767800
