16  
    
  C    10.962579  0.728209  2.848498
  C    11.133434  4.140467  3.308585
  C     9.858919 -0.067968  2.374422
  C     9.860170  4.005689  2.665385
  N    11.908314  0.916751  1.963604
  N    12.164252  4.233901  2.477012
  N     9.992968 -0.461098  1.101046
  N     9.913626  3.909847  1.341297
  N     9.439447  0.633399  4.858420
  N     9.378426  4.366243  5.116290
  S     8.646609 -0.215808  3.605869
  S     8.512805  3.856444  3.768870
  S    11.494369  0.115672  0.584785
  S    11.504487  4.194254  0.957480
  S    11.048105  1.066352  4.544152
  S    11.021384  4.416699  4.973405
