16  
    
  C    11.843259  1.158753  3.402922
  C    11.906338  5.013469  3.361184
  C    10.674324  0.554672  2.712582
  C    10.660958  4.607198  2.757237
  N    12.940119  1.162222  2.617461
  N    12.974253  5.088945  2.552592
  N    10.868802  0.368341  1.395025
  N    10.910649  4.252396  1.484610
  N    10.022408  0.953279  5.197907
  N    10.086451  4.839102  5.169224
  S     9.253546  0.566328  3.753785
  S     9.312093  4.437245  3.776770
  S    12.454366  0.703996  1.095726
  S    12.461939  4.482027  1.110237
  S    11.563901  1.648695  5.016092
  S    11.691525  5.264784  5.046875
