16  
    
  C     5.746944 -2.144058  1.987848
  C     6.011351  1.747162  2.062835
  C     4.550086 -2.710907  1.362191
  C     4.753953  1.342201  1.434140
  N     6.714706 -1.740018  1.141016
  N     7.011697  1.973262  1.197263
  N     4.722675 -2.930209  0.056573
  N     4.899150  1.216356  0.134424
  N     3.894084 -2.480048  3.884805
  N     4.196193  1.646063  3.929898
  S     3.237887 -3.029888  2.431855
  S     3.368244  1.347425  2.494171
  S     6.231596 -2.404933 -0.335183
  S     6.441764  1.533388 -0.292728
  S     5.469559 -1.825726  3.694956
  S     5.828920  1.881251  3.793176
