16  
    
  C    12.867721  1.685990  3.709627
  C    12.941243  5.469353  3.699655
  C    11.641584  1.328456  3.069903
  C    11.644587  5.004761  3.227238
  N    13.906831  1.758560  2.844743
  N    13.883173  5.528774  2.803522
  N    11.684362  1.184298  1.744089
  N    11.659264  4.642003  1.952322
  N    11.214300  1.556857  5.625896
  N    11.321862  5.555560  5.646181
  S    10.363485  1.261385  4.253173
  S    10.379685  5.030442  4.447717
  S    13.248315  1.493835  1.327996
  S    13.188041  4.919813  1.388944
  S    12.821784  1.921156  5.471026
  S    12.857603  6.033522  5.347724
