16  
    
  C     8.946519 -0.218485  2.574407
  C     8.689114  3.400294  2.562556
  C     7.751030 -0.695828  1.945807
  C     7.469361  2.939401  1.987840
  N     9.971269 -0.085118  1.732753
  N     9.623419  3.776632  1.684399
  N     7.822430 -0.772077  0.589236
  N     7.475108  2.792739  0.648810
  N     7.178813 -0.530951  4.431954
  N     7.147894  2.819362  4.539280
  S     6.439379 -0.987495  3.046020
  S     6.204361  2.560006  3.178810
  S     9.394059 -0.389286  0.172617
  S     8.962422  3.479790  0.197979
  S     8.794493 -0.289802  4.287204
  S     8.731409  3.303460  4.300614
