16  
    
  C     9.715258 -0.285112  2.491276
  C     9.731058  3.523227  2.560189
  C     8.419640 -0.588995  1.937635
  C     8.514241  3.136582  1.922451
  N    10.650920 -0.110287  1.613332
  N    10.712872  3.735333  1.662237
  N     8.491705 -0.840110  0.657823
  N     8.513938  3.216245  0.586615
  N     8.194785 -0.574680  4.548423
  N     8.128382  2.920692  4.460478
  S     7.276558 -1.045816  3.234372
  S     7.209497  2.754416  3.081557
  S    10.029004 -0.542118  0.152186
  S    10.064902  3.631483  0.172961
  S     9.767981 -0.228609  4.209318
  S     9.754533  3.352928  4.370664
