16  
    
  C     9.848217 -0.201113  2.809078
  C     9.668851  3.944191  2.735917
  C     8.635363 -0.647093  2.075896
  C     8.412187  3.651024  2.068402
  N    10.905912  0.022833  2.084385
  N    10.769756  4.010664  1.988394
  N     8.913034 -0.764155  0.810242
  N     8.612772  3.524907  0.789297
  N     7.890364 -0.287017  4.498590
  N     7.771587  3.566143  4.560470
  S     7.231984 -0.931206  3.113942
  S     7.086260  3.147015  3.103096
  S    10.507399 -0.379627  0.549555
  S    10.208616  3.605588  0.403980
  S     9.542355  0.026624  4.482293
  S     9.422994  3.963628  4.445422
