16  
    
  C     4.940193 -2.433723  1.599766
  C     4.867964  1.696576  1.996800
  C     3.730532 -2.930380  1.040524
  C     3.768743  1.048633  1.348599
  N     5.977386 -2.410269  0.763294
  N     5.946635  1.864103  1.236833
  N     3.893375 -3.388746 -0.231866
  N     3.940158  0.812299  0.052157
  N     3.210922 -2.405185  3.443603
  N     3.094860  1.214294  3.866898
  S     2.369149 -2.834065  2.067908
  S     2.417517  0.717662  2.474674
  S     5.430485 -2.958821 -0.665437
  S     5.510547  1.297333 -0.284114
  S     4.811730 -2.015346  3.293372
  S     4.722958  1.616253  3.728779
