16  
    
  C     8.435278 -0.935889  2.455426
  C     8.209529  2.595858  2.226438
  C     7.204466 -1.542209  2.075669
  C     7.039458  2.225984  1.513197
  N     9.418519 -0.966100  1.504646
  N     9.313266  2.701610  1.479415
  N     7.152697 -1.919604  0.768905
  N     7.272377  1.918076  0.249625
  N     6.801844 -0.664280  4.499723
  N     6.287323  2.503391  3.850873
  S     5.870112 -1.342456  3.252390
  S     5.594559  2.094142  2.432898
  S     8.638095 -1.562478  0.105549
  S     8.813737  2.277791 -0.108760
  S     8.387663 -0.416001  4.189047
  S     7.859164  2.843709  3.862947
