16  
    
  C     5.852420 -2.124540  1.854449
  C     6.123622  1.775727  1.953921
  C     4.606489 -2.451101  1.184903
  C     4.774802  1.685408  1.418986
  N     6.898930 -2.127634  1.061546
  N     7.045190  1.395822  1.063422
  N     4.684444 -2.592382 -0.123115
  N     4.678656  1.324394  0.129565
  N     4.004299 -2.365185  3.719087
  N     4.543725  2.018370  3.952222
  S     3.314073 -2.733982  2.226042
  S     3.555778  2.064893  2.616122
  S     6.328377 -2.352594 -0.484846
  S     6.232735  1.097562 -0.360272
  S     5.662555 -2.013321  3.563904
  S     6.181995  2.091130  3.637604
