16  
    
  C     9.982431 -0.168684  2.865607
  C    10.031180  3.787337  2.682762
  C     8.790789 -0.553161  2.203387
  C     8.808901  3.189550  2.191108
  N    11.024200 -0.038799  2.021635
  N    10.964641  4.030012  1.754723
  N     8.839256 -0.647686  0.848976
  N     8.903408  2.814816  0.924076
  N     8.194152 -0.400274  4.651391
  N     8.554186  3.565318  4.777874
  S     7.421808 -0.789822  3.224451
  S     7.721022  2.828464  3.496735
  S    10.442971 -0.293724  0.451696
  S    10.390220  3.407514  0.369029
  S     9.882719 -0.179843  4.650344
  S    10.153304  4.032537  4.452515
