16  
    
  C    11.074077  0.506466  3.254749
  C    11.179580  4.172675  3.137480
  C     9.863177  0.087763  2.519620
  C     9.923049  3.792599  2.493643
  N    12.068985  0.892026  2.488892
  N    12.191328  4.317848  2.323372
  N    10.021804  0.010588  1.207056
  N    10.000038  3.688894  1.163369
  N     9.311202 -0.058480  5.077684
  N     9.540542  3.844981  5.061251
  S     8.515517 -0.247126  3.647957
  S     8.694668  3.438126  3.693257
  S    11.593764  0.527343  0.928908
  S    11.563229  4.151901  0.759445
  S    10.789530  0.700599  4.954851
  S    11.092196  4.417774  4.839648
