16  
    
  C     7.333550 -1.026374  2.049246
  C     7.705374  2.792844  2.129718
  C     6.153660 -1.509540  1.382991
  C     6.464180  2.284675  1.571868
  N     8.379002 -0.977223  1.203521
  N     8.716696  2.935025  1.266047
  N     6.222971 -1.620137  0.039364
  N     6.506050  1.942960  0.291647
  N     5.683304 -1.527812  3.837376
  N     5.997241  2.782987  4.109369
  S     4.849397 -1.915386  2.440384
  S     5.251092  2.090386  2.787918
  S     7.825685 -1.311122 -0.305594
  S     8.110682  2.455682 -0.198151
  S     7.312991 -1.082273  3.742441
  S     7.570722  3.206669  3.863000
