16  
    
  C     7.103314 -1.419717  2.292125
  C     7.051547  2.220464  2.093820
  C     5.886419 -1.813041  1.591236
  C     5.849722  1.812750  1.425802
  N     8.109456 -1.256304  1.473619
  N     8.114656  2.417413  1.314889
  N     5.932016 -1.787994  0.275199
  N     6.085191  1.588281  0.110702
  N     5.290596 -1.837827  4.177131
  N     5.258660  2.009315  3.945094
  S     4.538012 -2.032541  2.674064
  S     4.523373  1.674533  2.468443
  S     7.540923 -1.548057 -0.093479
  S     7.648807  1.904601 -0.181582
  S     6.839552 -1.348509  4.030425
  S     6.822780  2.568558  3.781502
