16  
    
  C    11.340730  0.667229  2.948969
  C    11.061398  4.486375  3.613159
  C    10.338366 -0.012474  2.199676
  C     9.835458  4.016213  3.042713
  N    12.492026  0.883637  2.362840
  N    12.047771  4.531034  2.763953
  N    10.785357 -0.366474  1.025099
  N     9.834688  3.849973  1.689159
  N     9.328794  0.333150  4.601234
  N     9.380775  4.614195  5.518875
  S     8.787373 -0.175807  3.156706
  S     8.502067  4.142458  4.169865
  S    12.350700  0.208754  0.817363
  S    11.427217  4.094930  1.275313
  S    10.918648  0.789600  4.619432
  S    10.984312  5.073893  5.211322
