16  
    
  C     7.286053 -1.460760  2.240141
  C     7.686623  2.787102  2.326769
  C     6.205409 -2.107105  1.476737
  C     6.509002  2.319132  1.626350
  N     8.215644 -0.880314  1.504162
  N     8.740530  2.933239  1.537490
  N     6.454875 -2.205833  0.194470
  N     6.561113  2.289269  0.301968
  N     5.444215 -2.101223  3.959586
  N     6.033806  2.271196  4.137606
  S     4.872421 -2.539249  2.447566
  S     5.205154  2.014306  2.718368
  S     7.825524 -1.304223 -0.056155
  S     8.201018  2.705296 -0.065576
  S     6.914112 -1.405156  3.979357
  S     7.505802  2.958093  4.056893
