16  
    
  C     9.133801 -0.516572  2.509322
  C     9.552265  3.464016  2.795149
  C     7.944853 -0.985157  1.779922
  C     8.282532  3.177901  2.131697
  N    10.203952 -0.501734  1.778492
  N    10.570299  3.341634  1.956326
  N     8.083318 -1.095632  0.476517
  N     8.363413  2.825219  0.866487
  N     7.219268 -0.593261  4.241007
  N     7.839075  3.735800  4.624841
  S     6.549158 -1.191331  2.802703
  S     7.040227  3.378349  3.206277
  S     9.730910 -0.870716  0.244192
  S     9.960808  2.890540  0.479565
  S     8.878030 -0.366476  4.240696
  S     9.454394  4.122723  4.422567
