16  
    
  C     8.704583 -0.080589  2.526344
  C     8.488824  3.152517  2.553968
  C     7.576301 -0.693875  1.842425
  C     7.333466  2.643035  1.815850
  N     9.725037  0.185968  1.676411
  N     9.572351  3.318561  1.789292
  N     7.703044 -0.758043  0.493376
  N     7.629304  2.348889  0.535081
  N     7.099192 -0.774025  4.397273
  N     6.710446  2.882304  4.363003
  S     6.247891 -0.966369  2.993115
  S     6.098369  2.377546  2.913494
  S     9.231612 -0.205546  0.138910
  S     9.172368  2.869166  0.251207
  S     8.642380 -0.120814  4.310350
  S     8.327018  3.284523  4.282505
