16  
    
  C     3.116385 -2.685181  1.545493
  C     3.626051  0.977777  1.431030
  C     2.117936 -3.498264  0.854257
  C     2.436044  0.432981  0.846842
  N     4.079589 -2.208445  0.766655
  N     4.624304  1.241098  0.591008
  N     2.364596 -3.519193 -0.432851
  N     2.452454  0.375891 -0.475816
  N     1.416446 -3.380547  3.418451
  N     1.967874  0.296273  3.374077
  S     0.887157 -4.109274  1.979823
  S     1.191207  0.041711  1.940738
  S     3.662473 -2.610145 -0.771718
  S     3.974614  0.972436 -0.892756
  S     2.925308 -2.664411  3.309001
  S     3.553118  0.952975  3.182346
