16  
    
  C     5.603309 -2.014332  1.834908
  C     5.169286  1.507197  1.708926
  C     4.439623 -2.648114  1.238745
  C     4.067797  0.812869  1.099189
  N     6.574226 -1.803073  0.960700
  N     6.072874  2.001623  0.869967
  N     4.495169 -2.814189 -0.083349
  N     4.152225  0.731423 -0.226987
  N     3.931478 -2.403400  3.676471
  N     3.565796  0.923362  3.648014
  S     3.076388 -2.740948  2.333695
  S     2.852145  0.444559  2.245160
  S     6.044394 -2.332639 -0.528063
  S     5.572373  1.557040 -0.670522
  S     5.466497 -1.801750  3.575563
  S     5.148915  1.508558  3.504439
