16  
    
  C     8.729173 -0.855907  2.416319
  C     8.453745  3.221807  2.537345
  C     7.555585 -1.202251  1.658203
  C     7.324515  2.643364  1.874942
  N     9.826781 -0.823402  1.671341
  N     9.465577  3.481580  1.706307
  N     7.752876 -1.359848  0.340108
  N     7.435270  2.450055  0.535612
  N     6.893573 -0.715980  4.063656
  N     6.787045  2.833276  4.481401
  S     6.146227 -1.240235  2.646946
  S     6.076791  2.237301  3.059810
  S     9.390491 -1.080810  0.123519
  S     8.957924  3.087563  0.220517
  S     8.570898 -0.574318  4.077136
  S     8.401892  3.443738  4.323588
