16  
    
  C     6.129951 -1.534292  2.383464
  C     6.625759  2.153105  2.231789
  C     4.980334 -2.154373  1.768921
  C     5.399248  1.608770  1.642946
  N     7.210705 -1.323118  1.604346
  N     7.595874  2.432469  1.377715
  N     5.148485 -2.217785  0.440533
  N     5.441125  1.445323  0.322718
  N     4.358943 -2.096104  4.253977
  N     4.987503  1.641019  4.204719
  S     3.710362 -2.647856  2.840988
  S     4.137853  1.325690  2.774063
  S     6.593763 -1.616999  0.071016
  S     6.958600  2.106261 -0.172767
  S     5.977099 -1.611245  4.148058
  S     6.515126  2.249022  3.912431
