16  
    
  C     5.468650 -2.142982  1.587731
  C     5.257206  1.545878  1.556446
  C     4.312991 -2.571950  0.847575
  C     4.143225  0.968659  0.850749
  N     6.549074 -2.143712  0.876429
  N     6.427324  1.680578  0.883473
  N     4.544252 -2.786317 -0.409855
  N     4.430404  0.589012 -0.374840
  N     3.485589 -2.450320  3.267114
  N     3.144155  1.748967  3.076459
  S     2.898679 -2.900626  1.798302
  S     2.661497  0.780815  1.822128
  S     6.138636 -2.432744 -0.678676
  S     5.996476  1.108226 -0.680429
  S     5.111372 -2.060570  3.267653
  S     4.689539  2.253338  3.059207
