16  
    
  C     8.993714 -0.403654  2.545493
  C     8.942101  3.419253  2.714755
  C     7.761586 -0.850259  1.937107
  C     7.731088  3.061876  2.073695
  N     9.998375 -0.112474  1.676785
  N     9.943395  3.571540  1.842757
  N     7.830213 -0.857152  0.580101
  N     7.765192  2.917445  0.756131
  N     7.296510 -0.735114  4.466838
  N     7.296452  3.165343  4.629284
  S     6.479916 -1.027896  3.062451
  S     6.513344  2.810738  3.220849
  S     9.350373 -0.367509  0.148053
  S     9.289145  3.389392  0.298226
  S     8.885712 -0.315125  4.341673
  S     8.900566  3.528544  4.491230
