16  
    
  C     8.867835 -0.903751  2.362291
  C     8.554508  3.212400  2.497581
  C     7.659052 -1.302657  1.679085
  C     7.370725  2.641442  1.939435
  N     9.936808 -0.881308  1.596622
  N     9.496880  3.554042  1.650693
  N     7.740790 -1.349973  0.376334
  N     7.403347  2.509536  0.643702
  N     6.894543 -0.899022  4.151836
  N     6.788967  2.829818  4.381805
  S     6.205606 -1.482162  2.754237
  S     6.087478  2.204957  3.047384
  S     9.368498 -1.164421  0.003605
  S     8.874502  3.040512  0.112934
  S     8.485948 -0.678536  4.083559
  S     8.260623  3.509812  4.160216
