16  
    
  C     6.212517 -1.702347  1.621336
  C     6.425595  1.906865  1.885177
  C     5.040307 -2.297431  0.980905
  C     5.143191  1.769387  1.176373
  N     7.204148 -1.550235  0.776466
  N     7.463712  1.953980  1.039428
  N     5.181885 -2.777813 -0.246067
  N     5.315234  1.693833 -0.133036
  N     4.416069 -1.770112  3.409019
  N     4.534978  2.020922  3.635809
  S     3.677517 -2.438392  2.087013
  S     3.733049  1.626068  2.231317
  S     6.678933 -2.107575 -0.741091
  S     6.865549  1.882222 -0.478631
  S     5.980518 -1.356025  3.293963
  S     6.191816  2.045398  3.618423
