16  
    
  C     7.062083 -1.695132  1.576709
  C     6.809428  2.132120  1.936215
  C     5.814775 -2.237436  1.047430
  C     5.607893  1.593300  1.351002
  N     8.064771 -1.622018  0.727113
  N     7.753809  2.452844  1.029308
  N     5.871206 -2.365558 -0.249664
  N     5.681615  1.470303  0.020472
  N     5.330666 -1.825967  3.530100
  N     5.120679  1.707540  3.880198
  S     4.562253 -2.396819  2.194434
  S     4.397564  1.092555  2.486091
  S     7.418745 -1.944095 -0.717759
  S     7.083028  2.069920 -0.424303
  S     6.977087 -1.612959  3.307654
  S     6.691135  2.249289  3.636329
