16  
    
  C    12.701433  1.462064  3.699897
  C    12.323952  4.969808  3.425488
  C    11.452009  1.352372  3.036032
  C    11.201167  4.461240  2.706253
  N    13.779917  1.553709  2.921319
  N    13.394348  5.236847  2.738023
  N    11.533844  1.188648  1.726618
  N    11.438811  4.304860  1.380697
  N    10.863962  1.795938  5.533309
  N    10.424500  4.631743  5.165136
  S    10.160228  1.363752  4.076793
  S     9.747294  4.197009  3.726394
  S    13.166450  1.366741  1.408166
  S    12.957371  4.782148  1.143192
  S    12.567525  1.855261  5.418383
  S    12.018436  5.110682  5.153205
