16  
    
  C     8.396383 -0.893839  2.476730
  C     8.252817  2.478037  2.112597
  C     7.119968 -1.113254  1.828745
  C     7.111404  2.052220  1.330490
  N     9.446285 -0.916447  1.604060
  N     9.419575  2.496233  1.422092
  N     7.264933 -1.474427  0.529108
  N     7.374725  1.874179  0.035961
  N     6.591904 -0.534900  4.306506
  N     6.250106  2.094998  3.806729
  S     5.791394 -1.164413  2.968353
  S     5.652264  1.799393  2.239244
  S     8.874919 -1.349762  0.110147
  S     8.979287  2.219858 -0.118030
  S     8.243250 -0.531854  4.198103
  S     7.887103  2.588503  3.776661
