16  
    
  C     8.769645 -0.251426  2.513920
  C     8.669088  3.064699  2.549073
  C     7.571094 -0.724205  1.853898
  C     7.413918  2.680788  1.897954
  N     9.739614  0.051802  1.705843
  N     9.751521  3.223096  1.757358
  N     7.686582 -0.865843  0.568170
  N     7.563651  2.564403  0.603324
  N     7.019049 -0.694378  4.353600
  N     6.743335  2.909478  4.328994
  S     6.237406 -0.970643  2.922600
  S     5.975505  2.443986  2.935217
  S     9.210491 -0.325163  0.174142
  S     9.172006  2.798663  0.283701
  S     8.506853 -0.091741  4.197507
  S     8.343614  3.252220  4.264591
