16  
    
  C     6.171793 -1.998674  1.661755
  C     6.295094  1.832289  1.860508
  C     4.886088 -2.411013  1.045305
  C     5.037115  1.758255  1.154333
  N     7.178193 -1.770665  0.848185
  N     7.354945  1.924916  1.045296
  N     5.026453 -2.647278 -0.220841
  N     5.191894  1.699284 -0.171685
  N     4.364464 -1.819731  3.464127
  N     4.446964  1.845371  3.676366
  S     3.561704 -2.510814  2.162461
  S     3.635881  1.899570  2.228982
  S     6.656541 -2.320794 -0.667795
  S     6.786001  1.775593 -0.474752
  S     5.964289 -1.517541  3.362724
  S     6.107896  1.880708  3.579139
