16  
    
  C     7.547729 -1.211864  1.875327
  C     7.734084  2.824145  2.161303
  C     6.292538 -1.664362  1.302002
  C     6.497376  2.223426  1.588164
  N     8.522371 -1.049429  1.004904
  N     8.685646  3.052462  1.295415
  N     6.288102 -1.584420 -0.007638
  N     6.532002  1.969277  0.296046
  N     5.797643 -1.213989  3.834912
  N     6.026817  2.666504  4.037787
  S     5.025471 -1.768981  2.518811
  S     5.156904  2.189297  2.695099
  S     7.872529 -1.223043 -0.521175
  S     8.155836  2.454335 -0.140703
  S     7.421150 -0.920983  3.637557
  S     7.556191  3.273974  3.845920
