16  
    
  C     4.732532 -2.279706  1.634355
  C     4.916527  1.416637  1.888036
  C     3.582865 -2.816844  0.949472
  C     3.621114  1.239577  1.284549
  N     5.786838 -2.001515  0.836138
  N     5.936092  1.396253  1.031878
  N     3.651507 -2.745152 -0.400184
  N     3.639437  1.206125 -0.042060
  N     2.834645 -2.599365  3.387562
  N     3.251347  1.444469  3.857456
  S     2.159984 -3.110313  1.935009
  S     2.317020  1.415990  2.498987
  S     5.190371 -2.280666 -0.730307
  S     5.292331  1.254713 -0.494924
  S     4.364606 -1.936808  3.295235
  S     4.862093  1.524395  3.593393
