16  
    
  C    11.379919  0.643558  2.984114
  C    11.076313  4.606244  3.539104
  C    10.343491 -0.047064  2.213702
  C     9.824915  4.173165  2.991699
  N    12.477831  0.905511  2.320076
  N    12.097781  4.625642  2.694894
  N    10.695383 -0.288578  0.953676
  N     9.929716  3.725068  1.734633
  N     9.411556  0.365776  4.612488
  N     9.406849  4.523894  5.550749
  S     8.795282 -0.122336  3.116335
  S     8.547933  4.087244  4.207273
  S    12.306220  0.272140  0.829251
  S    11.494309  4.065314  1.260198
  S    10.985977  0.934832  4.701952
  S    10.909260  5.118978  5.235311
