16  
    
  C    11.982093  1.446260  3.454211
  C    12.338056  5.091706  3.209273
  C    10.886048  0.815935  2.734768
  C    11.040248  4.798131  2.661077
  N    13.045296  1.540774  2.680699
  N    13.381333  5.015281  2.428704
  N    11.123456  0.424611  1.515941
  N    11.115312  4.393189  1.409889
  N    10.133501  1.124685  5.245306
  N    10.424494  5.380020  5.049826
  S     9.524663  0.686770  3.735460
  S     9.645512  4.807384  3.706311
  S    12.707073  0.882382  1.254863
  S    12.713178  4.492162  0.953590
  S    11.740933  1.623505  5.137442
  S    12.013371  5.712599  4.886425
