16  
    
  C     9.742793 -0.038421  2.853565
  C     9.806236  3.548822  2.765541
  C     8.589184 -0.599056  2.228815
  C     8.525331  3.330990  2.061806
  N    10.694322  0.354736  1.993872
  N    10.749855  3.683689  1.860713
  N     8.666736 -0.632402  0.885447
  N     8.506037  3.382168  0.750152
  N     8.102218 -0.641974  4.763089
  N     8.118334  3.132905  4.608989
  S     7.352580 -0.949542  3.317568
  S     7.321095  2.901799  3.175751
  S    10.083330  0.095064  0.490061
  S    10.076671  3.648769  0.313367
  S     9.547239  0.137037  4.586251
  S     9.771526  3.556122  4.518906
