16  
    
  C    10.430456 -0.015106  2.766033
  C    10.361907  4.243859  3.058366
  C     9.237914 -0.457414  2.196594
  C     9.045323  3.868660  2.631349
  N    11.451180  0.076546  1.889462
  N    11.379385  4.022726  2.186586
  N     9.325981 -0.921630  0.938329
  N     9.000750  3.515509  1.371703
  N     8.500939  0.229483  4.543976
  N     8.574476  4.261284  5.098389
  S     7.820999 -0.446906  3.206769
  S     7.685273  3.908596  3.700704
  S    10.832082 -0.528128  0.405826
  S    10.592475  3.510921  0.783637
  S    10.100116  0.566676  4.370872
  S    10.197718  4.651878  4.767398
