16  
    
  C     6.293627 -1.621092  1.707664
  C     6.422266  2.120618  1.968609
  C     5.222238 -2.350501  1.057515
  C     5.283056  1.490873  1.343881
  N     7.313705 -1.356980  0.888452
  N     7.427747  2.355648  1.145259
  N     5.330027 -2.493451 -0.272904
  N     5.483940  1.288430  0.036500
  N     4.477520 -1.954205  3.557368
  N     4.601929  1.968395  3.817335
  S     3.864974 -2.519562  2.100223
  S     3.961422  1.290913  2.418025
  S     6.937910 -1.980392 -0.603758
  S     6.973700  1.780578 -0.298253
  S     6.101874 -1.462135  3.395553
  S     6.129594  2.602420  3.664404
