16  
    
  C     5.405117 -2.211676  1.530532
  C     5.034867  1.819403  1.639934
  C     4.264764 -2.783662  0.850153
  C     4.016921  0.964641  1.162654
  N     6.423085 -1.999826  0.738032
  N     6.128865  1.863450  0.902729
  N     4.474207 -3.149912 -0.388463
  N     4.313471  0.253462  0.064452
  N     3.468291 -2.372614  3.301535
  N     3.027044  1.890026  3.377399
  S     2.854324 -2.991779  1.876652
  S     2.545429  0.841777  2.097199
  S     5.952350 -2.509377 -0.778298
  S     5.869351  0.751930 -0.345647
  S     5.062722 -1.777140  3.189314
  S     4.623222  2.316739  3.235179
