16  
    
  C     7.365000 -1.606449  2.208534
  C     7.481601  2.383766  2.120493
  C     6.173876 -2.048117  1.515672
  C     6.222816  2.052269  1.530026
  N     8.356598 -1.321896  1.343504
  N     8.467213  2.549989  1.248392
  N     6.250931 -2.128849  0.169622
  N     6.351570  1.883504  0.211004
  N     5.591968 -2.080229  4.028950
  N     5.899329  2.057063  4.135522
  S     4.806377 -2.443484  2.545023
  S     4.985130  1.859071  2.731023
  S     7.764990 -1.609604 -0.208064
  S     7.804656  2.349827 -0.244295
  S     7.180302 -1.674069  3.917434
  S     7.418051  2.703125  3.842070
