16  
    
  C     9.550180 -0.541751  2.741420
  C     9.385764  3.341064  2.564729
  C     8.215191 -0.814183  2.132376
  C     8.117435  3.019154  1.934890
  N    10.566744 -0.475723  1.899158
  N    10.455191  3.253586  1.785115
  N     8.316170 -1.141252  0.862404
  N     8.206600  2.812317  0.643438
  N     7.716175 -0.693205  4.610944
  N     7.490446  3.303346  4.371441
  S     6.883662 -1.023391  3.209178
  S     6.749878  2.950509  2.982409
  S     9.923998 -0.969322  0.436922
  S     9.830390  2.912402  0.223987
  S     9.371297 -0.310404  4.473437
  S     9.098450  3.476058  4.183978
