16  
    
  C    12.880689  1.612710  3.311293
  C    12.468500  5.070704  3.350587
  C    11.556617  1.075805  2.797257
  C    11.280041  4.712672  2.628888
  N    13.832918  1.679197  2.424092
  N    13.486739  5.399752  2.547138
  N    11.600703  0.865573  1.495861
  N    11.349927  4.627159  1.348819
  N    11.328281  1.333464  5.320689
  N    10.520134  4.924347  5.138336
  S    10.388824  1.060326  3.988872
  S     9.889083  4.441191  3.661728
  S    13.134797  1.324281  0.970407
  S    12.860800  5.065669  0.970300
  S    12.821298  2.008487  5.060177
  S    12.209921  5.199444  5.062669
