16  
    
  C     6.171188 -1.638126  2.395618
  C     6.629368  2.087672  2.194483
  C     5.024871 -2.151327  1.701342
  C     5.429860  1.624074  1.608678
  N     7.177077 -1.330826  1.589660
  N     7.550618  2.461975  1.299449
  N     5.097188 -2.202699  0.389183
  N     5.474533  1.457641  0.287165
  N     4.409627 -2.030685  4.217948
  N     4.964731  1.670855  4.163145
  S     3.726940 -2.589979  2.788864
  S     4.163387  1.274252  2.769057
  S     6.637857 -1.589307  0.043935
  S     6.929661  2.117166 -0.161754
  S     6.015445 -1.662425  4.070810
  S     6.494097  2.256316  3.956484
