16  
    
  C     5.698833 -2.100774  2.025424
  C     5.997230  1.736830  2.047768
  C     4.593683 -2.735953  1.377850
  C     4.769217  1.359948  1.423719
  N     6.685702 -1.760835  1.190998
  N     6.985300  2.035253  1.197023
  N     4.666788 -2.954674  0.054241
  N     4.916434  1.165638  0.110500
  N     3.954246 -2.502882  3.852296
  N     4.170610  1.504189  3.900191
  S     3.245550 -3.012608  2.480157
  S     3.369762  1.247956  2.476095
  S     6.243819 -2.417290 -0.314348
  S     6.438473  1.562267 -0.282492
  S     5.441376 -1.815398  3.696297
  S     5.798459  1.837840  3.780296
