16  
    
  C    12.040368  1.257738  3.296062
  C    11.793076  4.797648  3.625145
  C    10.840269  0.661836  2.691993
  C    10.648350  4.339181  2.838758
  N    13.076479  1.545237  2.498826
  N    12.884299  4.895234  2.879153
  N    11.036475  0.499886  1.387638
  N    10.887813  4.260791  1.537619
  N    10.076757  1.126090  5.129018
  N     9.916015  4.660586  5.301596
  S     9.454939  0.496558  3.716832
  S     9.229580  4.211263  3.861847
  S    12.551983  0.957816  1.017723
  S    12.422967  4.691887  1.316036
  S    11.691617  1.500613  4.949445
  S    11.529752  5.076136  5.285663
