16  
    
  C    12.598660  1.654956  3.388575
  C    12.812187  5.326260  3.354477
  C    11.290099  1.305637  2.778057
  C    11.639028  4.827250  2.731645
  N    13.595023  2.002815  2.542492
  N    13.818527  5.549525  2.454599
  N    11.425170  1.326962  1.440585
  N    11.631421  4.774914  1.392865
  N    10.883784  0.943545  5.283857
  N    11.066297  5.069890  5.223095
  S    10.066109  0.755523  3.800943
  S    10.322653  4.464371  3.858865
  S    12.995034  1.703814  1.038983
  S    13.117908  5.314509  0.950918
  S    12.404358  1.609814  5.104178
  S    12.668815  5.590645  5.085926
