16  
    
  C     4.589290 -2.163824  1.588601
  C     4.857224  1.502859  1.899801
  C     3.385069 -2.576807  0.896325
  C     3.580355  1.345101  1.216964
  N     5.672909 -2.034788  0.818764
  N     5.847780  1.433238  1.005047
  N     3.511538 -2.626901 -0.455643
  N     3.571228  1.247947 -0.097946
  N     2.823540 -2.264869  3.445752
  N     3.106522  1.178388  3.671951
  S     2.103864 -2.815897  2.041508
  S     2.202528  1.316450  2.229591
  S     5.129883 -2.283808 -0.740375
  S     5.192235  1.245422 -0.519149
  S     4.484761 -2.010236  3.309590
  S     4.722676  1.701023  3.630236
