16  
    
  C     7.197101 -1.351030  2.203564
  C     7.451903  2.155094  2.178260
  C     6.009732 -1.883537  1.566003
  C     6.219549  1.610296  1.589462
  N     8.262363 -1.263281  1.360256
  N     8.497539  2.237422  1.377030
  N     6.219563 -2.416412  0.334585
  N     6.355903  1.344949  0.314853
  N     5.525332 -1.561145  4.129986
  N     5.681169  2.060429  4.031572
  S     4.700253 -2.128943  2.793557
  S     4.861028  1.621011  2.677739
  S     7.786517 -2.007591 -0.079443
  S     7.891085  1.764605 -0.192407
  S     7.034036 -0.963270  3.881862
  S     7.238843  2.605888  3.852523
