16  
    
  C    10.890654  0.594803  2.957407
  C    10.787803  4.357597  2.793213
  C     9.697062  0.131737  2.366182
  C     9.751061  3.582857  2.161707
  N    11.954269  0.441588  2.181602
  N    11.869551  4.650845  2.095967
  N     9.825378 -0.073292  1.043422
  N    10.147532  3.203164  0.942006
  N     9.249601  0.444704  4.892315
  N     8.956856  4.133686  4.567968
  S     8.432152  0.056076  3.507850
  S     8.315210  3.479799  3.191098
  S    11.408918  0.130633  0.679704
  S    11.646972  3.837163  0.622438
  S    10.806539  1.042335  4.645016
  S    10.461320  4.845206  4.444141
