16  
    
  C     8.083098 -0.751607  2.413533
  C     8.221892  3.003010  2.328624
  C     6.928193 -1.267309  1.746982
  C     7.040601  2.475369  1.787261
  N     9.112518 -0.410814  1.632310
  N     9.227436  3.082707  1.470448
  N     7.157876 -1.597641  0.487171
  N     7.144801  2.276818  0.463384
  N     6.181363 -1.159454  4.293589
  N     6.565193  2.866023  4.290998
  S     5.541669 -1.535701  2.854998
  S     5.722622  2.378483  2.928947
  S     8.696180 -1.021752  0.125678
  S     8.647030  2.617248 -0.029156
  S     7.719548 -0.497416  4.128230
  S     8.214472  3.322684  3.991687
