16  
    
  C    12.958935  1.927326  3.700487
  C    12.936469  5.492975  3.594658
  C    11.663976  1.485499  3.087332
  C    11.689131  5.071386  3.077338
  N    13.944381  2.013270  2.789556
  N    13.887906  5.586858  2.739430
  N    11.744075  1.263205  1.789738
  N    11.749456  4.682012  1.814326
  N    11.342812  1.512027  5.623058
  N    11.327686  5.497196  5.551474
  S    10.429806  1.338207  4.291410
  S    10.425181  5.080924  4.266746
  S    13.294514  1.503966  1.354014
  S    13.283206  5.027860  1.282306
  S    12.936169  1.850123  5.383020
  S    12.877058  5.789832  5.375444
