16  
    
  C     8.713031 -0.427288  2.428993
  C     8.632777  3.053572  2.606105
  C     7.523524 -0.875578  1.734933
  C     7.365202  2.698278  1.961801
  N     9.824669 -0.401757  1.706810
  N     9.667930  3.269732  1.803938
  N     7.706286 -1.086601  0.430872
  N     7.482813  2.652768  0.654303
  N     6.868789 -0.631234  4.267970
  N     6.804029  2.918584  4.482539
  S     6.087705 -0.957497  2.799751
  S     6.013453  2.499005  3.031860
  S     9.331804 -0.823354  0.174606
  S     9.072497  2.936587  0.248780
  S     8.443662 -0.181340  4.082476
  S     8.439770  3.210136  4.252659
