16  
    
  C     8.898425 -0.360087  2.537803
  C     8.463420  3.251930  2.553472
  C     7.657235 -0.667270  1.891355
  C     7.335126  2.684699  1.892468
  N     9.921325 -0.023158  1.727234
  N     9.459647  3.548121  1.732614
  N     7.773213 -0.706973  0.521607
  N     7.443529  2.682322  0.552889
  N     7.172430 -0.745243  4.473662
  N     6.855640  2.755570  4.426469
  S     6.337629 -0.911671  3.041825
  S     6.184658  2.154071  3.050144
  S     9.316459 -0.198703  0.185873
  S     8.907970  3.336863  0.173265
  S     8.744299 -0.137044  4.270136
  S     8.390832  3.363728  4.251997
