16  
    
  C    12.714801  1.558741  3.761141
  C    12.263261  4.917685  3.467002
  C    11.447960  1.346654  3.069842
  C    11.156247  4.466656  2.672722
  N    13.747364  1.535653  2.909547
  N    13.363056  5.249455  2.698035
  N    11.538578  1.190606  1.736488
  N    11.403205  4.296719  1.374003
  N    10.859622  1.699321  5.573949
  N    10.431901  4.734536  5.215286
  S    10.131013  1.351196  4.124259
  S     9.755442  4.206307  3.736019
  S    13.155864  1.371975  1.450614
  S    12.982399  4.787150  1.165305
  S    12.525964  1.826260  5.399224
  S    12.079801  5.106751  5.150806
