16  
    
  C     4.112540 -2.918322  1.562339
  C     4.127819  1.256428  1.511941
  C     2.904140 -3.367878  0.941213
  C     2.866352  0.916190  0.913765
  N     5.149362 -2.851385  0.723580
  N     5.132918  1.251335  0.647541
  N     3.010471 -3.504794 -0.360381
  N     2.857448  0.810443 -0.425130
  N     2.092293 -2.672473  3.274303
  N     2.457277  1.299550  3.493530
  S     1.467925 -3.441318  1.943320
  S     1.619393  0.818746  2.142406
  S     4.548901 -3.299464 -0.779634
  S     4.521234  0.994930 -0.831425
  S     3.702872 -2.332198  3.255813
  S     4.032140  1.579503  3.248145
