16  
    
  C    12.548720  1.526773  3.735953
  C    12.334751  5.067394  3.413762
  C    11.378810  0.986120  3.088829
  C    11.100029  4.786649  2.833101
  N    13.519807  1.783944  2.859187
  N    13.397520  5.139244  2.592862
  N    11.429600  0.899932  1.738523
  N    11.166498  4.547906  1.501076
  N    10.817176  1.414098  5.652528
  N    10.653656  4.951326  5.388450
  S    10.001693  0.875429  4.247608
  S     9.798148  4.546810  3.983739
  S    12.932383  1.411176  1.305475
  S    12.823196  4.836310  1.107546
  S    12.461097  1.727672  5.463118
  S    12.272141  5.389512  5.071600
