16  
    
  C     4.516510 -2.548838  1.523808
  C     5.233828  1.439947  1.657632
  C     3.276525 -2.815109  0.863648
  C     3.907519  1.126336  1.117556
  N     5.554663 -2.378979  0.650175
  N     6.204190  1.678222  0.814931
  N     3.341113 -2.749941 -0.468715
  N     3.977767  1.036460 -0.195617
  N     2.726148 -2.752962  3.366665
  N     3.630031  1.277644  3.636394
  S     1.919691 -3.039897  1.919067
  S     2.613530  1.101514  2.333650
  S     4.917988 -2.526285 -0.857547
  S     5.523683  1.437541 -0.702937
  S     4.362872 -2.723856  3.218461
  S     5.219570  1.618674  3.372498
