16  
    
  C     9.748979 -0.039061  2.894863
  C     9.790332  3.641393  2.749647
  C     8.524560 -0.562593  2.266819
  C     8.488939  3.408161  2.126976
  N    10.723792  0.384809  2.020369
  N    10.812234  3.756175  1.905934
  N     8.642230 -0.698733  0.922720
  N     8.496174  3.489984  0.790235
  N     7.954636 -0.328359  4.729201
  N     8.083974  3.188395  4.658340
  S     7.245510 -1.024893  3.306420
  S     7.211780  2.941989  3.277889
  S    10.132231 -0.069856  0.488877
  S    10.115383  3.612397  0.327418
  S     9.563630  0.098367  4.634265
  S     9.686474  3.421350  4.405271
