16  
    
  C     8.193948 -0.860941  2.480034
  C     8.192280  2.988970  2.369736
  C     7.004261 -1.330073  1.829745
  C     7.081630  2.333639  1.736916
  N     9.215407 -0.658774  1.694789
  N     9.187963  3.236147  1.528498
  N     7.150952 -1.682298  0.570612
  N     7.154246  2.191566  0.428279
  N     6.352487 -0.871599  4.333080
  N     6.363218  2.856917  4.192864
  S     5.655546 -1.463927  2.910191
  S     5.748763  2.135114  2.805972
  S     8.714486 -1.257703  0.210213
  S     8.701168  2.706565 -0.013506
  S     7.950907 -0.431484  4.173189
  S     8.004182  3.293001  4.086483
