16  
    
  C     7.326909 -1.021265  2.053139
  C     7.710145  2.795049  2.127643
  C     6.155351 -1.511113  1.382576
  C     6.466082  2.280938  1.570393
  N     8.369966 -0.972149  1.210885
  N     8.714954  2.934882  1.266825
  N     6.221347 -1.620883  0.042099
  N     6.498126  1.948253  0.289407
  N     5.686236 -1.536014  3.839017
  N     6.003818  2.784988  4.106456
  S     4.844731 -1.917487  2.436845
  S     5.253277  2.087319  2.788825
  S     7.825583 -1.314556 -0.301045
  S     8.112564  2.454415 -0.197154
  S     7.307439 -1.087034  3.747410
  S     7.568878  3.205749  3.869400
