16  
    
  C    12.576953  1.629477  3.404958
  C    12.843161  5.292371  3.339138
  C    11.351468  1.295118  2.749569
  C    11.592891  4.808316  2.757426
  N    13.574444  1.975058  2.562319
  N    13.756391  5.551276  2.409637
  N    11.454513  1.321607  1.432886
  N    11.623246  4.742010  1.402100
  N    10.908938  0.926326  5.263472
  N    11.068318  5.083822  5.267740
  S    10.051496  0.780618  3.812950
  S    10.306985  4.455730  3.882435
  S    12.995092  1.718377  1.026264
  S    13.111089  5.329778  0.947001
  S    12.430486  1.633354  5.127355
  S    12.686276  5.582129  5.026239
