16  
    
  C     9.750538 -0.006662  2.883638
  C     9.795642  3.606150  2.737563
  C     8.578985 -0.579512  2.253963
  C     8.484544  3.435820  2.087230
  N    10.721372  0.358475  2.037032
  N    10.799985  3.744321  1.876263
  N     8.628117 -0.695577  0.911260
  N     8.483365  3.475526  0.764739
  N     7.965950 -0.383917  4.734601
  N     8.092733  3.173928  4.679118
  S     7.264693 -1.014711  3.302881
  S     7.263036  2.930575  3.257410
  S    10.112257 -0.034804  0.481917
  S    10.105913  3.609448  0.348885
  S     9.568688  0.111314  4.641234
  S     9.688027  3.438022  4.429959
