16  
    
  C     7.193674 -1.343564  2.199318
  C     7.434643  2.171637  2.177102
  C     6.003634 -1.897914  1.583571
  C     6.223097  1.622071  1.583234
  N     8.264692 -1.271441  1.363227
  N     8.500422  2.214582  1.381459
  N     6.217861 -2.434412  0.357349
  N     6.383433  1.355394  0.299447
  N     5.517205 -1.575508  4.112122
  N     5.683826  2.065156  4.027694
  S     4.708192 -2.127282  2.780353
  S     4.875035  1.618508  2.689345
  S     7.781501 -2.008168 -0.072441
  S     7.901356  1.761556 -0.181565
  S     7.041964 -0.977894  3.881953
  S     7.242765  2.614383  3.858584
