16  
    
  C    12.784014  1.747777  3.670101
  C    12.846423  5.514935  3.717630
  C    11.539020  1.323973  2.954903
  C    11.670740  4.935845  3.199905
  N    13.832524  1.761415  2.848434
  N    13.869962  5.739724  2.889428
  N    11.727593  0.920061  1.704027
  N    11.799647  4.550547  1.895831
  N    10.860347  1.674589  5.433938
  N    11.125142  5.407151  5.667230
  S    10.163241  1.101743  4.027130
  S    10.418463  4.770256  4.325451
  S    13.324395  1.085161  1.390254
  S    13.309911  5.073802  1.414318
  S    12.479615  1.930116  5.352507
  S    12.752800  5.915568  5.453253
