16  
    
  C     8.879011 -0.311391  2.548588
  C     8.495698  3.189335  2.526473
  C     7.645555 -0.666062  1.855503
  C     7.335060  2.619177  1.843135
  N     9.827518  0.007351  1.719414
  N     9.497620  3.502132  1.722056
  N     7.733751 -0.669680  0.555956
  N     7.431137  2.565361  0.524741
  N     7.162780 -0.738853  4.431114
  N     6.794765  2.822619  4.385481
  S     6.343036 -0.925948  3.045558
  S     6.193356  2.146361  3.022755
  S     9.303781 -0.178146  0.106415
  S     8.939788  3.267597  0.207302
  S     8.722314 -0.142826  4.338126
  S     8.330245  3.368645  4.289072
