16  
    
  C     7.290847 -1.053080  2.047190
  C     7.713010  2.827055  2.178405
  C     6.079731 -1.498133  1.375730
  C     6.515318  2.241797  1.602141
  N     8.329769 -0.874176  1.258922
  N     8.688111  2.933454  1.274248
  N     6.243744 -1.656341  0.078761
  N     6.519120  2.062959  0.266799
  N     5.640578 -1.646482  3.889333
  N     6.020201  2.774114  4.073583
  S     4.823364 -1.935532  2.430138
  S     5.264296  2.052915  2.795755
  S     7.827024 -1.341595 -0.250186
  S     8.112302  2.431042 -0.186614
  S     7.213756 -1.144548  3.801490
  S     7.583717  3.200148  3.908012
