16  
    
  C     3.895256 -2.781913  1.436969
  C     4.120219  1.246593  1.512316
  C     2.757415 -3.412800  0.815841
  C     2.876182  0.790270  0.914736
  N     4.958997 -2.717000  0.699391
  N     5.130269  1.300442  0.652751
  N     2.941696 -3.846139 -0.391459
  N     2.935807  0.541352 -0.383563
  N     2.051509 -2.767011  3.212251
  N     2.331131  1.155757  3.435924
  S     1.399340 -3.503765  1.849647
  S     1.522760  0.581549  2.094144
  S     4.473532 -3.305385 -0.806026
  S     4.464291  0.889692 -0.852166
  S     3.708689 -2.428141  3.106723
  S     4.050436  1.435326  3.208669
