16  
    
  C    10.294813  0.599755  2.972721
  C    10.635093  4.551553  2.891619
  C     9.164289 -0.060439  2.354518
  C     9.386930  4.323275  2.220519
  N    11.259277  0.974585  2.159807
  N    11.634201  4.845656  2.093701
  N     9.194034 -0.121997  1.028744
  N     9.504449  4.186089  0.868239
  N     8.690364  0.022130  4.892772
  N     9.112740  3.806594  4.807414
  S     7.911662 -0.576919  3.524790
  S     8.142202  3.914040  3.449047
  S    10.704351  0.595268  0.638251
  S    11.106029  4.516339  0.574222
  S    10.256552  0.581073  4.722845
  S    10.716859  4.236208  4.587942
