16  
    
  C     8.427354 -0.897150  2.470694
  C     8.263298  2.507404  2.084826
  C     7.131639 -1.156494  1.846453
  C     7.102518  2.113881  1.334985
  N     9.425364 -0.911427  1.620176
  N     9.415088  2.548580  1.416488
  N     7.234072 -1.488466  0.585303
  N     7.325851  1.906457  0.038703
  N     6.600928 -0.547383  4.297566
  N     6.282706  2.079501  3.799647
  S     5.767036 -1.215584  3.022029
  S     5.617864  1.854129  2.284003
  S     8.845162 -1.388486  0.143110
  S     9.000272  2.190981 -0.097902
  S     8.300740 -0.506404  4.152593
  S     7.882463  2.612395  3.759262
