16  
    
  C    11.657229  1.301908  2.915957
  C    11.845239  5.058883  3.082261
  C    10.395500  0.677647  2.383641
  C    10.610222  4.453851  2.524455
  N    12.594883  1.488333  1.959548
  N    12.879731  5.185621  2.292055
  N    10.427641  0.536018  1.052532
  N    10.806372  4.030836  1.256279
  N    10.120855  0.710905  4.913769
  N    10.148761  4.725973  5.082674
  S     9.179348  0.304575  3.573133
  S     9.379125  4.141313  3.728538
  S    11.969594  0.867267  0.545448
  S    12.339641  4.532486  0.807529
  S    11.680363  1.191958  4.621956
  S    11.619384  5.472685  4.760887
