16  
    
  C     7.305528 -1.694798  2.231713
  C     7.423243  2.307933  2.171306
  C     6.041542 -1.904694  1.539578
  C     6.212396  1.796148  1.598567
  N     8.379919 -1.620101  1.441637
  N     8.426574  2.441848  1.307260
  N     6.203791 -2.150177  0.261840
  N     6.370783  1.536556  0.281748
  N     5.458136 -1.985996  4.124926
  N     5.760597  2.230811  4.089779
  S     4.775035 -2.282910  2.657383
  S     4.928934  1.699509  2.749248
  S     7.820246 -1.945989 -0.109854
  S     7.834684  1.966381 -0.155707
  S     7.044161 -1.545863  4.000148
  S     7.378290  2.599359  3.889025
