16  
    
  C    10.311101  0.684774  3.000825
  C    10.735092  4.480321  2.876583
  C     9.222817 -0.045129  2.411189
  C     9.472528  4.105724  2.292906
  N    11.268089  1.056082  2.119594
  N    11.671016  4.697067  1.930805
  N     9.283253 -0.211236  1.073767
  N     9.424360  4.041122  0.973826
  N     8.724976  0.066840  4.968352
  N     9.055193  4.034604  4.837372
  S     7.962294 -0.409447  3.564660
  S     8.152024  3.925613  3.439191
  S    10.739840  0.465813  0.663164
  S    10.956403  4.452224  0.495376
  S    10.256735  0.664559  4.728265
  S    10.643369  4.478055  4.616320
