16  
    
  C     8.338142 -0.851283  2.486269
  C     8.139623  2.960648  2.371937
  C     7.109387 -1.442342  1.999752
  C     7.010569  2.381911  1.677702
  N     9.345981 -0.963443  1.604728
  N     9.153239  3.189080  1.519041
  N     7.108919 -1.753924  0.694200
  N     7.231692  2.059377  0.394448
  N     6.636063 -0.831252  4.406568
  N     6.350065  2.509976  4.116066
  S     5.863970 -1.450783  3.120927
  S     5.651891  2.083761  2.714501
  S     8.670121 -1.536561  0.224563
  S     8.769729  2.501049  0.061951
  S     8.244590 -0.362193  4.130430
  S     7.835943  3.274657  4.099792
