16  
    
  C     8.706492 -0.420144  2.427306
  C     8.630916  3.002219  2.588684
  C     7.511042 -0.876167  1.746804
  C     7.378159  2.738454  1.954967
  N     9.810753 -0.351016  1.687307
  N     9.680760  3.156764  1.800794
  N     7.695881 -1.015387  0.427582
  N     7.515931  2.660732  0.644452
  N     6.839504 -0.561792  4.257358
  N     6.794477  2.957774  4.417994
  S     6.152000 -0.969449  2.872087
  S     5.999189  2.485188  3.025465
  S     9.319734 -0.715766  0.136826
  S     9.092711  2.925274  0.215571
  S     8.414722 -0.130304  4.162239
  S     8.430172  3.228176  4.297815
