16  
    
  C     4.251579 -2.405995  1.776369
  C     3.971114  1.297054  1.247329
  C     3.073301 -3.002284  1.188020
  C     2.871653  0.462132  0.734623
  N     5.281936 -2.229847  0.954921
  N     4.993733  1.468640  0.419314
  N     3.152967 -3.039361 -0.142593
  N     3.033079  0.219114 -0.552666
  N     2.622842 -2.806157  3.707456
  N     2.337691  0.990688  3.262268
  S     1.874984 -3.406471  2.343535
  S     1.688219  0.062102  1.949464
  S     4.697243 -2.745791 -0.520217
  S     4.610007  0.705963 -0.980632
  S     4.059826 -1.982381  3.442903
  S     3.785663  1.724227  2.962801
