16  
    
  C     4.231158 -2.279303  1.762511
  C     3.976982  1.196859  1.185878
  C     3.072038 -2.904582  1.237371
  C     2.967890  0.322811  0.716722
  N     5.258141 -2.145721  0.868353
  N     4.985638  1.466106  0.343841
  N     3.204782 -3.239660 -0.057408
  N     3.163679 -0.026631 -0.541221
  N     2.610647 -2.775901  3.764195
  N     2.327529  0.931890  3.109034
  S     1.791504 -3.224812  2.398095
  S     1.725124  0.037414  1.842372
  S     4.671577 -2.694391 -0.553484
  S     4.569537  0.741702 -1.081017
  S     4.050533 -1.970552  3.531069
  S     3.719434  1.676108  2.824714
