16  
    
  C     6.031541 -2.250256  1.758750
  C     6.063047  1.586390  1.826705
  C     4.769252 -2.545816  1.131848
  C     4.760725  1.761085  1.241129
  N     7.078609 -2.264830  0.933211
  N     7.078746  1.421139  1.003253
  N     4.894618 -2.784016 -0.191715
  N     4.712944  1.635706 -0.072757
  N     4.265664 -2.109764  3.588673
  N     4.470647  2.133163  3.772157
  S     3.435017 -2.455970  2.235450
  S     3.543189  1.944199  2.415933
  S     6.443289 -2.501299 -0.566446
  S     6.379540  1.472390 -0.545728
  S     5.884330 -2.044481  3.501775
  S     6.080986  1.899141  3.565881
