16  
    
  C     7.282152 -1.076986  2.057818
  C     7.704912  2.826789  2.194439
  C     6.059562 -1.487233  1.385457
  C     6.524361  2.242604  1.613320
  N     8.338632 -0.847651  1.257476
  N     8.687513  2.935995  1.279238
  N     6.253467 -1.674756  0.075724
  N     6.551272  2.095805  0.273996
  N     5.604373 -1.677354  3.902279
  N     6.004629  2.762429  4.073328
  S     4.821951 -1.938781  2.440880
  S     5.264485  2.044719  2.794704
  S     7.829209 -1.342338 -0.240244
  S     8.106975  2.426258 -0.182408
  S     7.187046 -1.157829  3.809168
  S     7.596637  3.200066  3.906492
