16  
    
  C    11.466758  0.824584  3.014112
  C    11.111814  4.752021  3.534411
  C    10.339144  0.186862  2.370379
  C     9.953280  4.113461  2.951391
  N    12.633339  0.813848  2.283097
  N    12.076481  4.904654  2.594383
  N    10.500079 -0.012688  1.048181
  N    10.064986  3.645104  1.716887
  N     9.443719  0.601557  4.683437
  N     9.459735  4.489126  5.442550
  S     8.922466 -0.109627  3.288955
  S     8.625395  3.931724  4.069321
  S    12.104656  0.393879  0.747586
  S    11.618932  4.057445  1.315027
  S    10.981301  1.128885  4.679690
  S    10.985418  5.153546  5.186785
