16  
    
  C     8.990987 -0.196453  2.369352
  C     9.453096  3.196095  2.714698
  C     7.877757 -0.924820  1.849027
  C     8.141495  2.897483  2.086665
  N    10.048636 -0.228804  1.524401
  N    10.464572  3.181452  1.812148
  N     8.027457 -1.336643  0.563943
  N     8.188524  2.611303  0.779392
  N     7.246394 -0.369940  4.287728
  N     7.672643  3.262999  4.649063
  S     6.584506 -1.127103  2.987299
  S     6.896638  2.877286  3.220914
  S     9.564434 -0.959857  0.112061
  S     9.798503  2.721406  0.392311
  S     8.848628  0.153216  4.064875
  S     9.297411  3.653084  4.450023
