16  
    
  C    10.273463  0.339278  2.582669
  C    10.545418  4.247153  2.877625
  C     9.121202 -0.215113  1.957727
  C     9.293977  3.798407  2.383900
  N    11.303654  0.572378  1.782384
  N    11.583070  4.283058  2.034714
  N     9.367050 -0.607909  0.719794
  N     9.381631  3.410595  1.129060
  N     8.331611  0.526731  4.328335
  N     8.898277  4.204076  4.918116
  S     7.627100 -0.141819  3.009244
  S     7.947457  3.888844  3.595492
  S    10.852387 -0.039101  0.309758
  S    10.992298  3.765127  0.597890
  S     9.946536  0.929232  4.182255
  S    10.498062  4.602844  4.562843
