16  
    
  C     8.415988 -1.020504  2.497780
  C     8.171052  2.613760  2.254618
  C     7.156189 -1.486046  2.099311
  C     7.022869  2.094729  1.553152
  N     9.318482 -0.863323  1.501967
  N     9.265215  2.792056  1.492179
  N     7.148273 -2.005637  0.856828
  N     7.155574  1.978169  0.213159
  N     6.816070 -0.699300  4.438167
  N     6.202856  2.805273  3.969055
  S     5.934021 -1.367289  3.243444
  S     5.555472  2.059561  2.537558
  S     8.610376 -1.596548  0.210432
  S     8.819246  2.383633 -0.033919
  S     8.443804 -0.444885  4.103084
  S     7.902241  2.980857  3.962780
