16  
    
  C    10.165124  0.614866  2.699274
  C    10.742869  4.301762  2.770625
  C     8.948520  0.094712  2.111681
  C     9.461841  3.837297  2.249287
  N    11.202335  0.739665  1.860461
  N    11.792382  4.264315  1.952327
  N     9.039130 -0.159865  0.814217
  N     9.541738  3.711920  0.927414
  N     8.367342  0.346691  4.579083
  N     8.956926  4.159409  4.743609
  S     7.732296 -0.443135  3.228785
  S     8.165153  3.644732  3.394585
  S    10.642564  0.148696  0.375291
  S    11.066088  3.952136  0.424428
  S     9.967043  0.809052  4.408211
  S    10.544301  4.633735  4.463454
