16  
    
  C     7.054763 -1.222555  2.210262
  C     7.137407  2.190487  2.102156
  C     5.866508 -1.786831  1.622830
  C     5.910392  1.823070  1.449488
  N     8.121075 -1.160159  1.426933
  N     8.132552  2.245493  1.222042
  N     6.018171 -2.033621  0.337460
  N     6.024650  1.552425  0.127052
  N     5.396021 -1.545379  4.141061
  N     5.399741  1.920474  3.992140
  S     4.562661 -1.985794  2.711109
  S     4.600965  1.628156  2.542241
  S     7.606044 -1.639640 -0.053923
  S     7.547531  1.896918 -0.261114
  S     7.027881 -1.250810  3.957483
  S     6.965307  2.596851  3.800350
