16  
    
  C     4.044258 -2.855143  1.548508
  C     4.119227  1.206178  1.503745
  C     2.832385 -3.345417  0.921197
  C     2.810856  0.935639  0.913833
  N     5.096618 -2.804508  0.696102
  N     5.148373  1.279548  0.656473
  N     2.933002 -3.722511 -0.379331
  N     2.933511  0.655375 -0.386150
  N     2.061265 -2.718312  3.222972
  N     2.408858  1.248545  3.448985
  S     1.440290 -3.481463  1.875787
  S     1.548962  0.677961  2.138029
  S     4.504435 -3.283260 -0.780531
  S     4.508107  0.943671 -0.884078
  S     3.701231 -2.377011  3.192867
  S     4.041699  1.515468  3.243266
