16  
    
  C     4.619007 -2.125662  1.556863
  C     4.796996  1.533384  1.792223
  C     3.372926 -2.483944  0.907981
  C     3.521217  1.301201  1.166804
  N     5.619962 -1.934352  0.730375
  N     5.847438  1.530217  0.984093
  N     3.477411 -2.573713 -0.393941
  N     3.611318  1.270595 -0.156197
  N     2.867366 -2.230358  3.442488
  N     3.036440  1.286130  3.636751
  S     2.046629 -2.681159  2.081111
  S     2.171518  1.251574  2.233778
  S     5.083328 -2.355086 -0.754122
  S     5.202940  1.270472 -0.539523
  S     4.510920 -2.052278  3.310682
  S     4.621503  1.695412  3.560946
