16  
    
  C     6.757681 -1.852721  1.751259
  C     6.601712  2.286301  2.035517
  C     5.486361 -2.131511  1.181599
  C     5.523218  1.478782  1.472045
  N     7.812192 -1.653576  0.905615
  N     7.542966  2.626925  1.191629
  N     5.551190 -2.228685 -0.156101
  N     5.583628  1.292897  0.173079
  N     5.132219 -2.140414  3.715443
  N     5.076068  1.512444  3.966085
  S     4.263411 -2.487629  2.355726
  S     4.255379  1.097995  2.576415
  S     7.082375 -1.796187 -0.608012
  S     7.007237  2.110895 -0.331708
  S     6.703152 -1.771799  3.469721
  S     6.472906  2.349512  3.726013
