16  
    
  C     5.097829 -2.425255  1.596839
  C     4.920413  1.533210  2.084379
  C     3.900720 -2.953374  1.053490
  C     3.781249  0.998781  1.363210
  N     6.099251 -2.267260  0.709896
  N     5.980621  1.723981  1.282771
  N     4.044725 -3.381875 -0.207379
  N     4.002534  0.691261  0.079417
  N     3.324896 -2.451170  3.514930
  N     3.059742  1.286993  3.818461
  S     2.531575 -2.900878  2.083814
  S     2.390418  0.735467  2.357004
  S     5.578238 -2.977920 -0.706696
  S     5.522716  1.166253 -0.194903
  S     4.880703 -1.876942  3.238893
  S     4.658068  1.971970  3.748743
