16  
    
  C    12.664049  1.604096  3.784266
  C    12.298399  5.019586  3.456543
  C    11.342374  1.344955  3.111214
  C    11.175345  4.498598  2.727842
  N    13.737448  1.663653  2.977817
  N    13.411329  5.186671  2.694156
  N    11.518621  1.160485  1.803658
  N    11.348335  4.339000  1.418763
  N    10.878127  1.318586  5.625102
  N    10.500279  4.924113  5.151746
  S     9.987907  1.281389  4.234961
  S     9.799725  4.305569  3.829524
  S    13.138584  1.319521  1.395248
  S    12.912704  4.787213  1.135877
  S    12.494202  1.807201  5.521759
  S    12.129460  5.099492  5.138160
