16  
    
  C     6.149163 -1.574414  2.467654
  C     6.569699  2.173603  2.192853
  C     4.995581 -2.093567  1.784419
  C     5.402819  1.595167  1.625152
  N     7.127204 -1.258805  1.608683
  N     7.594976  2.418065  1.380457
  N     5.126431 -2.270804  0.478688
  N     5.473504  1.510489  0.311142
  N     4.425629 -2.171588  4.259810
  N     4.999131  1.623671  4.165326
  S     3.705433 -2.696833  2.848799
  S     4.109108  1.359676  2.794816
  S     6.601953 -1.659546  0.089127
  S     6.967215  2.068134 -0.145050
  S     5.936343 -1.557819  4.203531
  S     6.552668  2.254665  3.932138
