16  
    
  C     5.852615 -2.355128  2.062650
  C     5.800785  1.353180  1.803781
  C     4.589829 -2.599550  1.366658
  C     4.630124  0.816510  1.127740
  N     6.859650 -2.054737  1.256685
  N     6.844456  1.607349  0.978181
  N     4.654676 -2.643791  0.037535
  N     4.845493  0.756832 -0.181662
  N     4.072495 -2.455662  3.977617
  N     3.982836  0.916491  3.642021
  S     3.251611 -2.650754  2.496894
  S     3.282035  0.475455  2.226686
  S     6.276193 -2.368618 -0.296354
  S     6.383458  1.149727 -0.512993
  S     5.700035 -2.052470  3.710558
  S     5.586144  1.401113  3.518294
