16  
    
  C    10.470770  0.562266  3.048419
  C    10.563328  4.532445  2.771789
  C     9.273060  0.073951  2.490121
  C     9.345536  4.030237  2.238249
  N    11.427406  0.858070  2.156537
  N    11.635040  4.596818  1.983135
  N     9.371730 -0.097876  1.158365
  N     9.479892  3.729021  0.971034
  N     8.755738  0.507498  4.949876
  N     8.870784  4.552187  4.726637
  S     8.014555 -0.243017  3.678581
  S     8.120174  3.691726  3.509705
  S    10.855832  0.379546  0.685722
  S    11.063576  4.054881  0.512199
  S    10.302012  1.018663  4.685082
  S    10.502591  4.856949  4.457863
