16  
    
  C     7.059931 -1.452096  2.307578
  C     7.033090  2.275532  2.122696
  C     5.877261 -1.852844  1.590704
  C     5.861113  1.804089  1.403368
  N     8.137487 -1.304323  1.501779
  N     8.107661  2.424565  1.383307
  N     5.945113 -1.776849  0.241626
  N     6.058469  1.558115  0.116848
  N     5.257405 -1.831475  4.137299
  N     5.246540  2.019207  3.913457
  S     4.515550 -2.048555  2.663010
  S     4.513522  1.671243  2.429609
  S     7.533752 -1.512937 -0.096811
  S     7.666227  1.899565 -0.195695
  S     6.848386 -1.357320  4.032460
  S     6.829858  2.561360  3.796371
