16  
    
  C     7.518987 -1.241033  1.950500
  C     7.684074  2.834537  2.136015
  C     6.268103 -1.532934  1.328588
  C     6.497232  2.198711  1.631116
  N     8.503719 -1.032450  1.055308
  N     8.709970  2.999110  1.274140
  N     6.287469 -1.600067 -0.029936
  N     6.582333  1.968182  0.322881
  N     5.768473 -1.272520  3.914600
  N     6.042896  2.714439  4.057285
  S     4.989999 -1.828479  2.529391
  S     5.145553  2.163927  2.724853
  S     7.848923 -1.237047 -0.483948
  S     8.115815  2.458403 -0.158412
  S     7.331669 -0.977562  3.637680
  S     7.573217  3.244690  3.802926
