16  
    
  C     4.295390 -2.376768  1.809474
  C     4.025908  1.193091  1.250821
  C     3.075699 -2.913820  1.214618
  C     2.930028  0.461683  0.684617
  N     5.247925 -2.162750  0.945631
  N     4.979931  1.527395  0.377983
  N     3.109713 -3.102736 -0.074184
  N     3.113359  0.100240 -0.611331
  N     2.641865 -2.828557  3.746660
  N     2.286739  0.920822  3.210766
  S     1.840246 -3.319632  2.357078
  S     1.704973  0.043344  1.957026
  S     4.691558 -2.748765 -0.563837
  S     4.595053  0.705620 -1.033109
  S     4.033030 -1.961460  3.479026
  S     3.746483  1.701084  2.853038
