16  
    
  C    10.291158  0.212433  2.566583
  C    10.357610  4.259600  3.063874
  C     9.130582 -0.258743  1.926842
  C     9.111735  3.808850  2.543459
  N    11.427014  0.180483  1.869986
  N    11.404009  4.060684  2.268676
  N     9.379199 -0.723108  0.686225
  N     9.136210  3.432707  1.254860
  N     8.426837  0.529280  4.294992
  N     8.661678  4.251548  5.088776
  S     7.832724 -0.388518  3.093142
  S     7.732438  3.961040  3.709471
  S    10.988865 -0.544147  0.479376
  S    10.787403  3.590986  0.812855
  S    10.063527  0.828832  4.182801
  S    10.257295  4.717858  4.707981
