16  
    
  C    12.689795  1.497373  3.503733
  C    12.877437  5.586756  3.735095
  C    11.448289  0.908157  2.918489
  C    11.778582  5.063595  2.956930
  N    13.666706  1.759257  2.632131
  N    13.984160  5.766414  2.991259
  N    11.608990  0.631407  1.612678
  N    11.959892  4.868932  1.683602
  N    10.786831  1.361695  5.340076
  N    10.887621  5.092877  5.460530
  S    10.161443  0.593886  3.969103
  S    10.381693  4.567892  3.929321
  S    13.079488  1.190211  1.155028
  S    13.532524  5.318464  1.373211
  S    12.362532  1.938997  5.146377
  S    12.508357  5.710567  5.424770
