16  
    
  C     5.757054 -2.172668  1.884384
  C     6.086048  1.639106  2.011065
  C     4.592988 -2.711261  1.261561
  C     4.772384  1.546997  1.477291
  N     6.801053 -1.868457  1.089483
  N     7.106024  1.461698  1.152702
  N     4.699281 -2.690522 -0.078739
  N     4.749049  1.413421  0.159983
  N     3.942044 -2.305721  3.723340
  N     4.426978  2.137731  3.954985
  S     3.226289 -2.887765  2.316024
  S     3.476791  1.868980  2.630553
  S     6.320192 -2.297960 -0.441882
  S     6.335503  1.230070 -0.337174
  S     5.569986 -1.954552  3.597050
  S     6.080684  2.125184  3.704680
