16  
    
  C    11.984018  1.570310  3.471765
  C    12.141687  5.038348  3.768824
  C    10.930246  0.917408  2.820467
  C    10.882100  4.507125  3.314028
  N    12.933262  1.939729  2.658548
  N    13.037980  5.465681  2.859154
  N    11.079066  0.660867  1.522732
  N    10.745363  4.613144  1.993663
  N    10.339247  0.999759  5.326138
  N    10.556672  4.554079  5.837719
  S     9.772735  0.317383  3.934567
  S     9.642299  4.211328  4.457795
  S    12.535319  1.449520  1.119346
  S    12.236501  5.216207  1.404094
  S    11.835911  1.694484  5.273837
  S    12.147175  4.977908  5.523631
