16  
    
  C     9.015882 -0.584496  2.408801
  C     9.519332  3.498572  2.749038
  C     7.878911 -0.977634  1.614187
  C     8.256315  3.110535  2.080343
  N    10.126950 -0.391080  1.767868
  N    10.504091  3.380115  1.891647
  N     8.196216 -1.225746  0.373746
  N     8.340025  2.764502  0.803706
  N     7.029868 -0.409416  4.009527
  N     7.823243  3.729079  4.582482
  S     6.452795 -1.041997  2.606261
  S     6.969667  3.358698  3.205064
  S     9.801393 -0.859369  0.243289
  S     9.923383  2.914586  0.404294
  S     8.664619 -0.136889  4.073158
  S     9.510620  3.806558  4.481999
