16  
    
  C    11.350748  1.034823  3.111176
  C    11.433199  4.703311  3.259722
  C    10.208390  0.337134  2.596024
  C    10.310568  4.127861  2.592561
  N    12.309748  1.245997  2.192865
  N    12.481141  4.895334  2.435315
  N    10.240935  0.109458  1.264808
  N    10.462297  3.769696  1.316856
  N     9.631339  0.907418  5.077397
  N     9.614587  4.407872  5.085234
  S     8.902723  0.311254  3.726394
  S     8.987917  3.711441  3.712569
  S    11.754884  0.601509  0.762828
  S    11.970917  4.309671  0.915447
  S    11.239426  1.235686  4.954629
  S    11.151849  5.076709  4.901839
