16  
    
  C    10.055792 -0.041739  2.653481
  C     9.879031  3.940420  2.737302
  C     8.840514 -0.479730  2.033679
  C     9.003196  2.939034  2.230039
  N    11.002889  0.262052  1.823492
  N    10.874591  4.223849  1.916298
  N     8.896211 -0.683921  0.762157
  N     9.235114  2.550928  0.966300
  N     8.339262 -0.449610  4.591678
  N     8.345398  3.449866  4.735066
  S     7.556921 -0.750974  3.157652
  S     7.809713  2.467705  3.468988
  S    10.438012 -0.228785  0.306586
  S    10.639186  3.396157  0.556541
  S     9.858969  0.155760  4.372445
  S     9.514640  4.575600  4.293143
