16  
    
  C     8.941240 -0.348338  2.586432
  C     8.877879  3.340656  2.634414
  C     7.749454 -0.796145  1.898728
  C     7.645976  2.940188  2.026839
  N     9.924307 -0.111569  1.748695
  N     9.825517  3.705276  1.772735
  N     7.808725 -0.833213  0.591150
  N     7.607969  2.901266  0.694172
  N     7.250036 -0.606106  4.462252
  N     7.235519  3.032673  4.635898
  S     6.425398 -1.042757  3.030828
  S     6.385218  2.750092  3.232006
  S     9.389546 -0.368571  0.206564
  S     9.171012  3.432700  0.292129
  S     8.931084 -0.300467  4.287909
  S     8.834060  3.437894  4.376850
