16  
    
  C     6.184905 -1.439365  1.519061
  C     6.387331  2.189050  1.837217
  C     5.086713 -2.104293  0.892635
  C     5.217847  1.610971  1.246010
  N     7.299917 -1.491129  0.796488
  N     7.470054  2.307654  1.081677
  N     5.280978 -2.424109 -0.390985
  N     5.375090  1.288059 -0.016319
  N     4.468024 -1.858471  3.443477
  N     4.620307  1.737638  3.730332
  S     3.777068 -2.529827  1.990383
  S     3.837224  1.404226  2.292094
  S     6.880799 -2.003455 -0.729844
  S     6.954465  1.730944 -0.455315
  S     5.991521 -1.142243  3.194909
  S     6.187903  2.387756  3.583953
