16  
    
  C     4.734933 -1.957953  1.743467
  C     4.330425  1.355276  1.391934
  C     3.470481 -2.365821  1.141766
  C     3.149753  0.880320  0.684077
  N     5.744707 -1.926293  0.905316
  N     5.353472  1.522862  0.546439
  N     3.554242 -2.601458 -0.151100
  N     3.266150  0.809924 -0.664632
  N     3.023504 -1.858295  3.629051
  N     2.524602  0.825401  3.209223
  S     2.157785 -2.242183  2.259234
  S     1.715287  0.740484  1.732342
  S     5.115645 -2.263945 -0.609019
  S     4.783292  1.249409 -1.030918
  S     4.698802 -1.817762  3.466736
  S     4.116318  1.348849  3.163342
