16  
    
  C    10.960054  0.732365  2.848706
  C    11.119453  4.137061  3.301844
  C     9.859001 -0.091979  2.373652
  C     9.837241  3.999268  2.653726
  N    11.891745  0.912324  1.965331
  N    12.165785  4.241644  2.486504
  N     9.988258 -0.442483  1.095925
  N     9.924529  3.897967  1.343181
  N     9.447501  0.633977  4.854494
  N     9.369091  4.372318  5.110428
  S     8.641947 -0.210049  3.605564
  S     8.513476  3.843649  3.765966
  S    11.479863  0.124690  0.590087
  S    11.505256  4.199633  0.951882
  S    11.047834  1.067423  4.533995
  S    11.017832  4.415165  4.978442
