16  
    
  C     3.250096 -2.986010  1.569113
  C     3.574243  0.540018  1.441179
  C     2.058940 -3.159688  0.745409
  C     2.342639  0.274871  0.760807
  N     4.395222 -2.819759  0.899905
  N     4.575958  0.720977  0.606272
  N     2.271967 -3.056969 -0.581272
  N     2.366232  0.403800 -0.567768
  N     1.393728 -3.553382  3.181852
  N     1.865116  0.139795  3.310050
  S     0.654589 -3.611952  1.619740
  S     1.025039  0.002750  1.863502
  S     3.951503 -2.853838 -0.729529
  S     3.948603  0.717516 -0.973860
  S     3.017494 -3.145170  3.224697
  S     3.408932  0.686346  3.141945
