16  
    
  C     9.055532 -0.390235  2.555518
  C     9.216146  3.479736  2.746175
  C     7.807565 -0.812318  1.981918
  C     7.926358  3.142154  2.187503
  N    10.033246 -0.137446  1.643872
  N    10.260810  3.610769  1.889509
  N     7.819851 -0.904700  0.661178
  N     7.950966  3.056027  0.876407
  N     7.336855 -0.905675  4.508377
  N     7.388160  3.334543  4.673190
  S     6.517983 -1.045176  3.048433
  S     6.536588  2.864367  3.272055
  S     9.314995 -0.396521  0.138864
  S     9.558121  3.252361  0.406903
  S     8.908341 -0.338047  4.263295
  S     9.025525  3.673540  4.478721
