16  
    
  C     4.631083 -2.036959  1.554756
  C     4.723361  1.540369  1.737671
  C     3.343389 -2.358864  0.976306
  C     3.471895  1.342455  1.062540
  N     5.650922 -1.927287  0.703550
  N     5.786323  1.627664  0.968649
  N     3.400283 -2.639529 -0.313175
  N     3.597353  1.114990 -0.258373
  N     2.902290 -2.264959  3.498863
  N     2.894936  1.422087  3.699729
  S     2.017602 -2.491098  2.073134
  S     2.146289  1.178008  2.212551
  S     4.988767 -2.377675 -0.807429
  S     5.236865  1.383527 -0.576976
  S     4.562059 -2.063717  3.289210
  S     4.536052  1.685290  3.435534
