16  
    
  C     4.677622 -2.043317  1.633784
  C     4.385148  1.550687  1.426015
  C     3.382926 -2.171814  1.062353
  C     3.250654  0.976714  0.787239
  N     5.670209 -2.137922  0.725595
  N     5.432024  1.802187  0.651144
  N     3.345317 -2.176317 -0.287382
  N     3.368012  0.957850 -0.554803
  N     3.013812 -1.765027  3.587207
  N     2.781684  0.881149  3.278050
  S     2.102402 -2.167416  2.251402
  S     1.964468  0.630518  1.894254
  S     4.932623 -2.354464 -0.773894
  S     4.904206  1.362190 -0.849410
  S     4.683304 -1.782386  3.359533
  S     4.297632  1.557779  3.122341
