16  
    
  C     6.218178 -1.784863  2.326161
  C     6.610174  2.118368  2.201833
  C     5.008243 -2.153292  1.657022
  C     5.410831  1.540191  1.591063
  N     7.172230 -1.294854  1.531222
  N     7.529280  2.488731  1.308132
  N     5.130180 -2.167287  0.317795
  N     5.475291  1.521524  0.251110
  N     4.492959 -2.027160  4.124670
  N     4.938563  1.704534  4.111588
  S     3.741229 -2.543602  2.731077
  S     4.176532  1.219303  2.750088
  S     6.676264 -1.592438  0.013829
  S     6.913611  2.110840 -0.186353
  S     6.074555 -1.692675  4.045739
  S     6.508905  2.270685  3.978871
