16  
    
  C     3.790335 -2.766153  1.372419
  C     4.089041  1.223110  1.476299
  C     2.684173 -3.466480  0.796667
  C     2.849465  0.650543  0.952814
  N     4.885975 -2.631058  0.599252
  N     5.105122  1.324734  0.607997
  N     2.985899 -3.883777 -0.468230
  N     2.902044  0.473173 -0.371038
  N     2.058707 -2.807532  3.202712
  N     2.358905  1.085664  3.433868
  S     1.349367 -3.513806  1.864547
  S     1.553850  0.538515  2.037288
  S     4.465470 -3.343671 -0.831516
  S     4.456298  0.854560 -0.810657
  S     3.686473 -2.458530  3.061550
  S     4.008261  1.382688  3.210849
