16  
    
  C    11.647974  1.080775  3.312553
  C    12.035800  4.980302  3.194987
  C    10.456301  0.689296  2.608066
  C    10.816171  4.329190  2.795727
  N    12.679474  1.244641  2.476477
  N    13.035358  5.087682  2.318105
  N    10.620243  0.301618  1.334246
  N    10.817165  4.059899  1.485275
  N     9.879401  1.208611  5.084426
  N    10.217087  5.188423  5.084220
  S     9.101531  0.518536  3.736612
  S     9.475143  4.323087  3.872100
  S    12.227351  0.701921  0.977067
  S    12.341632  4.506612  0.915247
  S    11.544730  1.285765  5.038150
  S    11.835240  5.551923  4.856543
