16  
    
  C     7.060315 -1.560244  2.217905
  C     7.093549  2.190432  2.091952
  C     5.896517 -1.897610  1.471033
  C     5.920201  1.710113  1.372719
  N     8.132244 -1.301143  1.454024
  N     8.193241  2.359466  1.368447
  N     6.033261 -1.833728  0.118003
  N     6.086093  1.608962  0.071739
  N     5.147783 -1.653768  3.932404
  N     5.143006  1.946724  3.810530
  S     4.503635 -2.109397  2.514158
  S     4.502671  1.633155  2.342877
  S     7.640434 -1.553017 -0.120950
  S     7.701203  1.921159 -0.235697
  S     6.798164 -1.514984  3.923590
  S     6.742895  2.456312  3.803968
