16  
    
  C     5.620908 -2.041299  2.019878
  C     5.860423  1.787545  2.018960
  C     4.506827 -2.663815  1.391287
  C     4.709589  1.235592  1.338805
  N     6.688096 -1.887218  1.229995
  N     6.928579  2.005194  1.267495
  N     4.752770 -3.031944  0.123718
  N     4.892919  1.085310  0.026342
  N     3.945397 -2.481853  3.947114
  N     4.195290  1.203631  3.851068
  S     3.199711 -3.015730  2.520892
  S     3.404693  0.966971  2.384098
  S     6.224090 -2.416017 -0.243081
  S     6.451061  1.624616 -0.307567
  S     5.495610 -1.772184  3.727865
  S     5.764102  1.724076  3.768960
