16  
    
  C     7.224099 -1.348912  2.257391
  C     7.226284  2.206790  2.037303
  C     6.062043 -1.966920  1.689272
  C     5.995084  1.749797  1.485817
  N     8.235803 -1.307017  1.358500
  N     8.225473  2.349667  1.161325
  N     6.106601 -2.171971  0.356126
  N     6.153302  1.409793  0.199732
  N     5.339062 -1.198320  4.025276
  N     5.501458  2.036320  4.051442
  S     4.669899 -2.047752  2.751880
  S     4.665672  1.590206  2.664526
  S     7.641141 -1.701765 -0.136034
  S     7.668119  1.817340 -0.253413
  S     7.029699 -1.014554  3.964105
  S     7.136247  2.453901  3.770096
