16  
    
  C     4.719202 -2.520531  1.546462
  C     5.225713  1.622083  1.855094
  C     3.506457 -2.964868  0.864074
  C     3.900002  1.446384  1.316088
  N     5.678671 -2.122410  0.708309
  N     6.185050  1.586675  0.949578
  N     3.617441 -2.972331 -0.468184
  N     3.853080  1.172736  0.040686
  N     2.865041 -3.038356  3.366286
  N     3.640107  1.583692  3.919842
  S     2.152381 -3.448367  1.898999
  S     2.664792  1.348515  2.540733
  S     5.056707 -2.273411 -0.805137
  S     5.450492  1.277960 -0.511156
  S     4.388210 -2.363741  3.280861
  S     5.263194  1.770024  3.501760
