16  
    
  C     4.204398 -2.253499  1.811251
  C     4.035424  1.209357  1.205174
  C     3.089214 -2.988563  1.248591
  C     3.031089  0.269829  0.658868
  N     5.204692 -2.040874  0.954149
  N     4.976024  1.462270  0.315178
  N     3.253838 -3.307209 -0.041809
  N     3.190555 -0.105501 -0.593187
  N     2.579421 -2.639579  3.770810
  N     2.251315  0.922393  3.051362
  S     1.782232 -3.156923  2.393905
  S     1.679751  0.029640  1.741117
  S     4.688035 -2.655590 -0.541016
  S     4.536122  0.732389 -1.098184
  S     4.112345 -1.993855  3.508564
  S     3.775267  1.687424  2.847223
