16  
    
  C     7.833530 -0.700888  2.149026
  C     8.327212  2.813126  2.428695
  C     6.764910 -1.499401  1.516539
  C     7.000638  2.618734  1.885501
  N     8.860202 -0.406122  1.386369
  N     9.304024  2.910009  1.519166
  N     6.961409 -1.661243  0.230867
  N     7.029453  2.551497  0.562570
  N     6.089859 -1.257641  3.920543
  N     6.644600  3.046702  4.328949
  S     5.386394 -1.712736  2.534013
  S     5.721299  2.466834  3.110219
  S     8.408662 -0.930519 -0.100469
  S     8.554935  2.836416  0.010692
  S     7.634514 -0.581163  3.816838
  S     8.295833  2.976099  4.147912
