16  
    
  C     9.715172  0.079810  2.773304
  C     9.909954  3.488895  2.668016
  C     8.576327 -0.561880  2.158430
  C     8.613296  3.153928  2.080552
  N    10.665892  0.468568  1.969039
  N    10.823845  3.881039  1.764785
  N     8.643911 -0.463116  0.874614
  N     8.638738  3.178679  0.742958
  N     8.222890 -0.785927  4.703007
  N     8.128234  3.182112  4.648143
  S     7.294154 -1.015495  3.339876
  S     7.273918  2.863351  3.255431
  S    10.108093  0.161973  0.437793
  S    10.129923  3.680410  0.319668
  S     9.677448  0.097822  4.537935
  S     9.700371  3.694782  4.341495
