16  
    
  C    12.082038  1.428027  3.353679
  C    12.285204  5.144758  3.755366
  C    10.953377  0.902460  2.658280
  C    11.009984  4.890946  3.228197
  N    13.157990  1.572663  2.594723
  N    13.224204  5.296142  2.830454
  N    11.134318  0.592670  1.380111
  N    10.952601  4.756339  1.878071
  N    10.310779  1.144497  5.197571
  N    10.579631  4.863658  5.664164
  S     9.608412  0.699680  3.763111
  S     9.703743  4.608385  4.290444
  S    12.682817  1.146475  1.017166
  S    12.533815  4.925014  1.360481
  S    11.858483  1.720761  5.016148
  S    12.137838  5.318327  5.490096
