16  
    
  C    12.327310  1.575731  3.339405
  C    12.279345  5.348178  3.623945
  C    11.168673  1.034873  2.617124
  C    11.205263  4.686309  2.986264
  N    13.342108  1.840967  2.493354
  N    13.310282  5.628482  2.857208
  N    11.374792  0.808812  1.314912
  N    11.310416  4.605904  1.632026
  N    10.421964  1.394763  5.011745
  N    10.565071  4.813882  5.457487
  S     9.693451  0.854764  3.630102
  S     9.918204  4.307237  4.000972
  S    12.893993  1.385045  0.972356
  S    12.919704  5.187529  1.319269
  S    12.004921  1.858020  4.986344
  S    12.000238  5.660346  5.363709
