16  
    
  C     9.726641  0.141501  2.736286
  C     9.736290  3.748361  2.628837
  C     8.519768 -0.324184  2.164018
  C     8.634993  3.102164  1.973252
  N    10.660308  0.550557  1.836893
  N    10.662982  4.040866  1.732493
  N     8.529040 -0.444162  0.804042
  N     8.675405  2.937229  0.642932
  N     8.171898 -0.637619  4.681980
  N     8.158705  3.274052  4.546604
  S     7.456200 -1.041619  3.258524
  S     7.351119  2.759633  3.175194
  S    10.003722  0.156276  0.346319
  S    10.155708  3.606049  0.262078
  S     9.750561 -0.067628  4.486274
  S     9.735875  3.876139  4.410194
