16  
    
  C     6.580821 -1.756495  1.909396
  C     6.611511  2.187298  2.093487
  C     5.361891 -2.160312  1.288983
  C     5.457182  1.557713  1.463232
  N     7.585461 -1.519996  1.033697
  N     7.453097  2.636557  1.163991
  N     5.360120 -2.042978 -0.055306
  N     5.562586  1.406862  0.147782
  N     4.983955 -2.246620  3.821490
  N     4.994386  1.515718  4.025122
  S     4.081485 -2.511907  2.390483
  S     4.217857  1.077200  2.614118
  S     6.994494 -1.790332 -0.462900
  S     6.969334  2.092167 -0.278555
  S     6.586849 -1.805096  3.639803
  S     6.465466  2.373031  3.852308
