16  
    
  C     4.155578 -2.619975  1.572506
  C     4.254198  1.365380  1.684072
  C     2.993672 -3.269113  1.072509
  C     2.955784  1.242041  1.117981
  N     5.182734 -2.573519  0.716746
  N     5.272966  1.175286  0.850848
  N     3.071814 -3.794822 -0.159112
  N     2.971461  0.981073 -0.189975
  N     2.489722 -2.542010  3.463367
  N     2.558618  1.625597  3.607900
  S     1.654161 -3.090621  2.121392
  S     1.625720  1.584649  2.189622
  S     4.569465 -3.201668 -0.726269
  S     4.500397  0.966509 -0.664703
  S     4.128011 -2.251983  3.226529
  S     4.220065  1.486952  3.387109
