16  
    
  C    12.868009  1.528917  3.363243
  C    12.475338  5.170399  3.297485
  C    11.602049  1.136551  2.781848
  C    11.238924  4.693521  2.667051
  N    13.761485  1.767796  2.419694
  N    13.485534  5.357889  2.449703
  N    11.613966  0.974242  1.453079
  N    11.353315  4.628923  1.357287
  N    11.258943  1.368952  5.347505
  N    10.731574  4.882081  5.160634
  S    10.315699  0.952118  4.003454
  S     9.900847  4.454416  3.783006
  S    13.113838  1.370115  0.924115
  S    12.920060  5.150442  0.934231
  S    12.858655  1.959629  5.031195
  S    12.277035  5.304893  4.991890
