16  
    
  C    12.918087  1.741220  3.716180
  C    12.946009  5.483742  3.700472
  C    11.683401  1.441043  3.094181
  C    11.644895  5.022005  3.271292
  N    13.882537  1.818934  2.834485
  N    13.898681  5.525055  2.714363
  N    11.692351  1.188434  1.763629
  N    11.700258  4.658861  1.973582
  N    11.213589  1.530698  5.648973
  N    11.305074  5.580451  5.691712
  S    10.370845  1.254484  4.254871
  S    10.379451  5.038418  4.371589
  S    13.241817  1.481022  1.307578
  S    13.189872  4.931816  1.370724
  S    12.865753  1.898949  5.472518
  S    12.867204  5.991145  5.361946
