16  
    
  C     8.673907 -0.986466  2.344394
  C     8.319210  3.170029  2.201803
  C     7.530644 -1.612044  1.749619
  C     7.157910  2.502819  1.604329
  N     9.658662 -0.659413  1.467369
  N     9.254947  3.438341  1.306943
  N     7.659706 -1.832843  0.410974
  N     7.275946  2.224324  0.293694
  N     6.950620 -1.464667  4.266872
  N     6.712349  2.807750  4.073586
  S     6.211318 -1.910203  2.862502
  S     5.960774  2.211298  2.758552
  S     9.142077 -1.178917 -0.049056
  S     8.761185  2.789903 -0.175280
  S     8.551784 -0.889810  4.123723
  S     8.284419  3.374750  3.957240
