16  
    
  C     5.393252 -2.147081  1.492847
  C     5.075857  1.725524  1.583044
  C     4.277817 -2.775042  0.829308
  C     4.069351  0.883817  1.033166
  N     6.460959 -1.990524  0.785739
  N     6.169902  1.839861  0.840628
  N     4.516480 -2.984350 -0.429561
  N     4.439127  0.210937 -0.073311
  N     3.531444 -2.460290  3.264049
  N     3.090912  1.837559  3.186166
  S     2.855191 -2.883013  1.808459
  S     2.570591  0.883893  1.992469
  S     6.064538 -2.453600 -0.762298
  S     5.908741  0.836202 -0.449849
  S     5.066467 -1.861092  3.187736
  S     4.687128  2.391349  3.171994
