16  
    
  C    12.867248  1.657455  3.334806
  C    12.462925  5.094715  3.383776
  C    11.631447  1.096862  2.818404
  C    11.252917  4.685064  2.668985
  N    13.844743  1.659932  2.407758
  N    13.441105  5.377804  2.544063
  N    11.616785  0.850340  1.518204
  N    11.344125  4.627434  1.312088
  N    11.332801  1.346939  5.313181
  N    10.508494  4.930628  5.088906
  S    10.393556  1.100799  4.009221
  S     9.875590  4.429200  3.627905
  S    13.150400  1.296577  0.989551
  S    12.875649  5.038373  0.997771
  S    12.786930  1.990818  5.043171
  S    12.175277  5.160605  5.104242
