16  
    
  C    11.105165  0.512175  3.117015
  C    11.103480  4.279330  2.969045
  C     9.872579 -0.002560  2.484332
  C     9.913649  3.724845  2.330749
  N    12.062652  0.793588  2.269240
  N    12.130225  4.520013  2.111695
  N     9.926165 -0.239709  1.191231
  N    10.080712  3.459192  1.051420
  N     9.308082  0.383369  4.992116
  N     9.153895  4.166692  4.729585
  S     8.599817 -0.180976  3.582081
  S     8.576755  3.402154  3.361768
  S    11.448143  0.368449  0.737787
  S    11.621760  3.981584  0.639668
  S    10.930346  0.674532  4.908828
  S    10.789615  4.525172  4.736881
