16  
    
  C     7.175087 -1.323483  2.305983
  C     7.801488  2.829957  2.348828
  C     6.116926 -1.881249  1.524728
  C     6.602359  2.352292  1.682425
  N     8.194005 -0.788377  1.602919
  N     8.854784  3.064275  1.577024
  N     6.427030 -2.009728  0.213383
  N     6.693919  2.282050  0.354219
  N     5.365875 -2.067086  3.967791
  N     5.996737  2.437077  4.170423
  S     4.798424 -2.564845  2.437714
  S     5.239453  2.024419  2.712310
  S     7.902392 -1.269819  0.049422
  S     8.330363  2.692001 -0.003743
  S     6.842282 -1.345401  3.979108
  S     7.541658  2.945983  4.036880
