16  
    
  C    11.502260  1.133906  3.145317
  C    11.392921  4.949322  3.013554
  C    10.384799  0.443942  2.587963
  C    10.304544  4.238241  2.367734
  N    12.298341  1.638444  2.212661
  N    12.449609  5.268175  2.264973
  N    10.332495  0.330417  1.281637
  N    10.493610  4.108135  1.048301
  N     9.863624  0.837011  5.122589
  N     9.553559  4.619132  4.722194
  S     9.202085  0.095575  3.770159
  S     8.944001  3.871330  3.365939
  S    11.676291  1.089782  0.739783
  S    11.933775  4.802664  0.683058
  S    11.415813  1.438289  4.863087
  S    11.148987  5.095899  4.697644
