16  
    
  C    12.163808  1.489138  3.319682
  C    12.219841  5.177743  3.624206
  C    10.965116  0.929600  2.691470
  C    10.969849  4.836467  3.056221
  N    13.203130  1.596635  2.469633
  N    13.275562  5.139139  2.822503
  N    11.128772  0.620419  1.421898
  N    11.046254  4.679322  1.693548
  N    10.299334  1.180360  5.115670
  N    10.543649  5.032687  5.610682
  S     9.513361  0.770022  3.692617
  S     9.730937  4.677717  4.196636
  S    12.693542  0.933366  1.031930
  S    12.605521  4.878233  1.287361
  S    11.911005  1.647883  5.028618
  S    12.167056  5.444105  5.435873
