16  
    
  C    11.610426  1.403928  2.882472
  C    11.497881  5.012506  3.121830
  C    10.459681  0.641392  2.370861
  C    10.371379  4.469361  2.392670
  N    12.542515  1.492589  1.927351
  N    12.551850  5.383531  2.350141
  N    10.434547  0.421589  1.037340
  N    10.609978  4.441585  1.101605
  N    10.192444  0.653186  4.946179
  N     9.719525  4.461228  4.892182
  S     9.397576  0.028993  3.628797
  S     9.087192  4.021634  3.400306
  S    11.921394  0.972126  0.463655
  S    12.179577  4.960206  0.838849
  S    11.520818  1.603144  4.585969
  S    11.281706  4.978022  4.893676
