16  
    
  C    10.257200  0.523856  2.933826
  C    10.809997  4.197990  2.909927
  C     9.116926 -0.072498  2.280890
  C     9.569372  4.111734  2.209597
  N    11.226442  0.849500  2.102195
  N    11.805466  4.565762  2.096686
  N     9.111260  0.049705  0.955256
  N     9.594657  4.386511  0.905191
  N     8.683114 -0.231223  4.841233
  N     8.979888  3.640044  4.678820
  S     7.890442 -0.608515  3.416727
  S     8.238508  3.830033  3.207249
  S    10.568225  0.724352  0.587988
  S    11.197048  4.737144  0.597396
  S    10.175323  0.491678  4.744113
  S    10.551173  4.262943  4.766788
