16  
    
  C     5.834585 -2.145703  1.830495
  C     6.127352  1.778483  1.957675
  C     4.581274 -2.424691  1.178780
  C     4.753653  1.679058  1.423414
  N     6.891139 -2.116287  1.048238
  N     7.048652  1.379665  1.102126
  N     4.725888 -2.635584 -0.101715
  N     4.645356  1.327369  0.137993
  N     3.991236 -2.361714  3.739387
  N     4.527736  2.023528  3.967002
  S     3.304054 -2.755892  2.228083
  S     3.571782  2.047262  2.611926
  S     6.315028 -2.328738 -0.473049
  S     6.249315  1.107054 -0.365548
  S     5.651464 -2.004109  3.574802
  S     6.177856  2.107538  3.648105
