16  
    
  C    11.293599  0.645920  3.045079
  C    11.121389  4.417378  3.573371
  C    10.295739 -0.082657  2.281787
  C     9.837824  4.151906  2.972846
  N    12.444887  0.766611  2.346228
  N    12.099337  4.383427  2.660779
  N    10.598091 -0.336469  1.004500
  N     9.812509  3.878490  1.671834
  N     9.312955  0.387225  4.508696
  N     9.349895  4.727068  5.473417
  S     8.846265 -0.364240  3.101381
  S     8.491266  4.222343  4.138850
  S    12.215256  0.079510  0.840232
  S    11.385568  4.119407  1.184090
  S    10.937844  0.792218  4.751120
  S    10.989357  4.851583  5.231152
