16  
    
  C     9.004455 -0.339132  2.535586
  C     9.253786  3.473550  2.823857
  C     7.797170 -0.840216  1.940397
  C     7.991633  3.153987  2.158915
  N     9.990601 -0.152704  1.678319
  N    10.268900  3.615713  1.986493
  N     7.819792 -0.888437  0.595667
  N     8.105873  3.042923  0.836527
  N     7.422146 -0.916440  4.434679
  N     7.482197  3.396462  4.689458
  S     6.481459 -1.086547  3.052216
  S     6.695999  2.951697  3.295095
  S     9.336145 -0.442833  0.175140
  S     9.702858  3.201121  0.474882
  S     8.999564 -0.345702  4.279999
  S     9.076564  3.759581  4.467934
