16  
    
  C     8.421463 -0.884842  2.453461
  C     8.250893  2.508562  2.087116
  C     7.139873 -1.203552  1.872786
  C     7.080646  2.140759  1.340101
  N     9.430094 -0.913886  1.636194
  N     9.397595  2.583708  1.430009
  N     7.211915 -1.496479  0.601879
  N     7.322818  1.926241  0.043781
  N     6.615961 -0.559471  4.295178
  N     6.314357  2.080273  3.785018
  S     5.764027 -1.236103  3.040763
  S     5.607014  1.882785  2.304284
  S     8.823878 -1.404532  0.163658
  S     9.006418  2.172978 -0.107209
  S     8.325879 -0.494414  4.132130
  S     7.878998  2.627750  3.762529
