16  
    
  C    11.899922  1.104199  3.363673
  C    11.898789  4.999428  3.423378
  C    10.688693  0.633097  2.736603
  C    10.718901  4.608609  2.714281
  N    12.985027  1.227819  2.613752
  N    12.944522  5.049874  2.595260
  N    10.876424  0.440719  1.440818
  N    10.843733  4.211549  1.480624
  N    10.034494  1.022613  5.175472
  N    10.031413  4.840764  5.211102
  S     9.288974  0.535823  3.777611
  S     9.309070  4.433729  3.747810
  S    12.492243  0.712468  1.103368
  S    12.473856  4.515451  1.115388
  S    11.547194  1.625660  4.958133
  S    11.665113  5.218827  5.108258
