16  
    
  C     5.854280 -2.257030  1.981388
  C     5.722274  1.331177  1.766167
  C     4.587752 -2.563413  1.356198
  C     4.530377  0.834399  1.083286
  N     6.881915 -2.134364  1.102872
  N     6.777106  1.598379  0.988031
  N     4.689079 -2.583829  0.020940
  N     4.726670  0.525741 -0.193387
  N     4.160742 -2.508955  3.831656
  N     3.958195  1.056833  3.605773
  S     3.302500 -2.606145  2.481390
  S     3.209348  0.572461  2.186409
  S     6.266888 -2.317083 -0.388370
  S     6.336273  1.006434 -0.541959
  S     5.750854 -2.106203  3.738490
  S     5.570798  1.340485  3.498127
