16  
    
  C    11.083069  0.593779  2.861393
  C    11.062160  4.258948  3.310270
  C     9.816036 -0.003746  2.370457
  C     9.867187  3.820810  2.619683
  N    11.966669  0.902298  1.935024
  N    12.061214  4.448656  2.451080
  N     9.863043 -0.386038  1.117310
  N     9.925597  3.804845  1.286714
  N     9.423308  0.526346  4.876400
  N     9.240996  4.269751  5.156853
  S     8.600003 -0.151214  3.615952
  S     8.488445  3.755096  3.748071
  S    11.313490  0.267326  0.517352
  S    11.547806  4.195568  0.927258
  S    10.945143  1.067832  4.487449
  S    10.875995  4.442922  5.048761
