16  
    
  C     6.235900 -1.677158  1.572876
  C     6.408443  1.977586  1.852308
  C     5.043166 -2.268315  0.992110
  C     5.168917  1.699670  1.218452
  N     7.233338 -1.455923  0.698210
  N     7.492026  2.002519  1.080159
  N     5.244286 -2.665434 -0.275966
  N     5.286861  1.698730 -0.105412
  N     4.387955 -1.837563  3.434447
  N     4.542485  1.997719  3.685738
  S     3.674003 -2.438077  2.057285
  S     3.765114  1.573948  2.235370
  S     6.699063 -2.115881 -0.741124
  S     6.902742  1.853625 -0.492913
  S     6.007655 -1.282649  3.288363
  S     6.211591  2.106387  3.591113
