16  
    
  C    11.451400  0.720456  3.054230
  C    11.076804  4.794245  3.463147
  C    10.368829  0.152287  2.311798
  C     9.885913  4.116183  3.019767
  N    12.539836  0.842083  2.349568
  N    12.123752  4.817426  2.660444
  N    10.578246 -0.118024  1.056145
  N    10.025383  3.701701  1.761597
  N     9.418450  0.501152  4.631930
  N     9.428648  4.472427  5.491060
  S     8.934779 -0.101659  3.190997
  S     8.597912  3.983761  4.118640
  S    12.131929  0.351304  0.776026
  S    11.574766  4.033945  1.276897
  S    10.985050  1.069378  4.667724
  S    10.951992  5.144308  5.216261
