16  
    
  C     5.677142 -2.075917  2.062258
  C     5.913041  1.617634  2.015825
  C     4.483687 -2.658136  1.455755
  C     4.725289  1.176345  1.286771
  N     6.733407 -1.841048  1.262601
  N     6.896357  1.966557  1.197345
  N     4.683824 -2.989918  0.168005
  N     4.927759  1.109117 -0.032810
  N     3.925309 -2.373100  3.938929
  N     4.153451  1.040619  3.814612
  S     3.191342 -2.994849  2.543826
  S     3.392965  0.751319  2.371770
  S     6.239160 -2.455008 -0.235636
  S     6.451717  1.621133 -0.328754
  S     5.504683 -1.801244  3.756038
  S     5.719987  1.663955  3.722110
