16  
    
  C    11.549874  1.223300  3.012619
  C    11.407306  4.878612  3.103124
  C    10.473270  0.415812  2.539390
  C    10.321258  4.335158  2.338550
  N    12.367451  1.735614  2.060851
  N    12.423109  5.266831  2.327415
  N    10.547271  0.175191  1.236658
  N    10.478362  4.236714  1.003454
  N     9.989762  0.756538  5.078127
  N     9.562666  4.484867  4.834995
  S     9.194058  0.084076  3.802143
  S     8.964264  3.903163  3.359498
  S    11.779405  1.150659  0.615606
  S    12.018464  4.904483  0.774166
  S    11.448619  1.500461  4.784113
  S    11.087720  5.118742  4.779923
