16  
    
  C    11.440297  0.763366  3.034772
  C    11.094646  4.723082  3.448936
  C    10.276439  0.329366  2.308288
  C     9.981792  4.002487  2.937789
  N    12.491342  0.897921  2.258386
  N    12.131241  4.957119  2.651826
  N    10.492014  0.109713  1.030067
  N    10.183577  3.581859  1.693768
  N     9.461359  0.708318  4.769785
  N     9.459411  4.516474  5.361494
  S     8.886966 -0.089153  3.425768
  S     8.705256  3.892669  4.041160
  S    12.077460  0.422016  0.698233
  S    11.690443  4.117097  1.230029
  S    11.079990  1.242228  4.712953
  S    10.994026  5.145531  5.147640
