16  
    
  C    11.266007  0.408695  3.026748
  C    11.139835  4.495463  3.420847
  C    10.096295 -0.165621  2.338356
  C     9.859496  4.204416  2.794314
  N    12.273005  0.641022  2.237721
  N    12.140413  4.336728  2.559391
  N    10.335295 -0.447185  1.067487
  N     9.877561  3.944386  1.502582
  N     9.446438  0.378593  4.780842
  N     9.475492  4.074381  5.296873
  S     8.735635 -0.328907  3.422758
  S     8.543138  4.338129  3.968789
  S    11.849451  0.095353  0.752446
  S    11.455705  4.037494  1.060082
  S    10.971641  1.067923  4.639407
  S    11.080845  4.583077  5.090869
