16  
    
  C     4.212864 -2.687425  1.566318
  C     4.195221  1.372958  1.635100
  C     2.974777 -3.178973  1.003170
  C     2.899270  1.281178  0.980240
  N     5.174210 -2.570871  0.654193
  N     5.185237  1.387458  0.757303
  N     3.033737 -3.582310 -0.263578
  N     2.934840  0.981112 -0.324304
  N     2.352831 -2.586073  3.467709
  N     2.547485  1.531361  3.615770
  S     1.584432 -3.142169  2.086190
  S     1.668961  1.492524  2.197284
  S     4.629360 -3.336510 -0.721638
  S     4.546018  1.005308 -0.732693
  S     3.993901 -2.309743  3.308060
  S     4.162419  1.556144  3.338289
