16  
    
  C    11.737183  0.843034  3.137174
  C    11.914016  5.092911  3.100317
  C    10.459003  0.622940  2.570963
  C    10.795354  4.355736  2.688142
  N    12.731153  1.100660  2.269582
  N    12.886510  5.151359  2.200018
  N    10.471150  0.595906  1.233185
  N    10.889622  3.889275  1.408238
  N     9.927810  0.854003  5.029533
  N    10.254019  5.123291  5.108280
  S     9.089228  0.456817  3.637912
  S     9.519746  4.245023  3.901080
  S    12.023608  0.892654  0.751649
  S    12.362517  4.449482  0.835723
  S    11.507005  1.339631  4.821231
  S    11.812401  5.574877  4.764658
