16  
    
  C    12.408834  1.558858  3.311546
  C    12.348232  5.420277  3.623890
  C    11.247989  1.161067  2.632219
  C    11.181978  4.821596  3.006388
  N    13.399007  1.804480  2.497728
  N    13.323950  5.672128  2.757926
  N    11.332306  0.872955  1.334784
  N    11.257699  4.622095  1.709864
  N    10.588320  1.404330  5.177788
  N    10.587278  4.945312  5.429638
  S     9.881932  0.849821  3.749502
  S     9.922901  4.303848  4.049214
  S    12.880906  1.338621  0.940903
  S    12.792585  5.205571  1.254742
  S    12.215830  1.860977  5.015397
  S    12.103240  5.549243  5.342988
