16  
    
  C    12.970288  1.800130  3.712979
  C    12.961384  5.521934  3.672233
  C    11.629708  1.486611  3.112231
  C    11.725160  5.021276  3.211218
  N    13.914102  1.880132  2.794760
  N    13.899510  5.525193  2.704312
  N    11.692974  1.211370  1.826535
  N    11.694385  4.659108  1.970441
  N    11.229215  1.514257  5.673273
  N    11.270044  5.591546  5.726560
  S    10.381090  1.256504  4.246512
  S    10.381551  5.046242  4.322561
  S    13.251923  1.470840  1.304006
  S    13.188464  4.946366  1.356754
  S    12.888981  1.877970  5.459731
  S    12.880054  5.949679  5.375828
