16  
    
  C    11.343956  0.986765  3.243744
  C    11.519942  4.706010  3.071669
  C    10.068109  0.440764  2.683314
  C    10.350618  4.158198  2.384496
  N    12.351593  1.023595  2.378451
  N    12.558989  4.970316  2.254545
  N    10.139310  0.329781  1.377776
  N    10.508935  3.946254  1.105206
  N     9.708710  0.723897  5.182248
  N     9.780858  4.331925  4.903536
  S     8.744551  0.322310  3.870686
  S     9.074039  3.852497  3.465239
  S    11.687225  0.690764  0.909572
  S    12.071421  4.381312  0.763136
  S    11.268795  1.293423  4.926208
  S    11.362400  4.956154  4.764680
