16  
    
  C    11.339645  0.640565  2.996125
  C    11.070058  4.404047  3.587930
  C    10.289825  0.059415  2.192044
  C     9.764811  4.018543  3.049506
  N    12.521807  0.861595  2.330100
  N    12.098409  4.469406  2.739718
  N    10.765691 -0.415162  1.014766
  N     9.841893  3.897184  1.734795
  N     9.307378  0.363646  4.593257
  N     9.370656  4.692056  5.449939
  S     8.831817 -0.260718  3.123652
  S     8.489173  4.171490  4.146853
  S    12.284791  0.153862  0.865563
  S    11.382578  4.119777  1.261859
  S    10.897803  0.743010  4.636191
  S    11.004430  4.999022  5.215032
