16  
    
  C     7.588013 -1.209495  1.873846
  C     7.677494  2.835237  2.205279
  C     6.326858 -1.628646  1.305674
  C     6.515128  2.323857  1.578095
  N     8.552413 -1.008892  0.974573
  N     8.665285  3.048365  1.326945
  N     6.316623 -1.645748 -0.047192
  N     6.662117  2.012649  0.267469
  N     5.881326 -1.161356  3.771669
  N     5.952755  2.630685  4.090459
  S     5.031956 -1.722307  2.451253
  S     5.206608  2.204086  2.669190
  S     7.866366 -1.230985 -0.511768
  S     8.169179  2.450041 -0.149000
  S     7.550028 -0.864076  3.604934
  S     7.524867  3.285582  3.877589
