16  
    
  C     8.368495 -0.969131  2.501881
  C     8.168911  2.631049  2.120149
  C     7.130533 -1.345191  1.961429
  C     7.043210  2.179613  1.346065
  N     9.341495 -0.971637  1.591183
  N     9.303692  2.642636  1.395553
  N     7.137901 -1.758309  0.679909
  N     7.280427  1.928441  0.038771
  N     6.752713 -0.649183  4.393545
  N     6.292337  2.181405  3.880114
  S     5.894086 -1.311490  3.141513
  S     5.609486  2.054114  2.332100
  S     8.704989 -1.480884  0.189732
  S     8.930007  2.180375 -0.093789
  S     8.371798 -0.420089  4.131392
  S     7.914884  2.759982  3.874936
