16  
    
  C     8.199211 -0.854795  2.462727
  C     8.205067  2.995335  2.357233
  C     7.005106 -1.359553  1.850851
  C     7.083511  2.340805  1.719743
  N     9.244910 -0.692124  1.689821
  N     9.195990  3.253939  1.532904
  N     7.159909 -1.662327  0.579520
  N     7.139380  2.165416  0.419630
  N     6.372364 -0.844488  4.361500
  N     6.391330  2.825192  4.184409
  S     5.665943 -1.458086  2.943215
  S     5.719488  2.117600  2.807454
  S     8.730690 -1.279593  0.195955
  S     8.718266  2.707394  0.005378
  S     7.943181 -0.433182  4.161055
  S     7.986175  3.292714  4.083868
