16  
    
  C    10.168320  0.513162  2.913387
  C    10.675621  4.468111  2.874865
  C     8.971144 -0.030174  2.277106
  C     9.529536  4.006943  2.104519
  N    11.053722  0.966644  2.024318
  N    11.753552  4.705778  2.141789
  N     9.053179 -0.152171  0.955900
  N     9.702347  4.063003  0.770833
  N     8.472901  0.129043  4.767030
  N     8.905456  3.879814  4.622111
  S     7.800762 -0.552193  3.384317
  S     8.224749  3.693881  3.121351
  S    10.476590  0.628998  0.481118
  S    11.312329  4.411278  0.504153
  S    10.131448  0.413478  4.677880
  S    10.534250  4.276982  4.661841
