16  
    
  C    12.039180  1.621785  3.495895
  C    12.165960  5.001340  3.792320
  C    10.980833  0.854716  2.833086
  C    10.877003  4.545045  3.260170
  N    13.034061  1.866613  2.612826
  N    13.036825  5.474065  2.900473
  N    11.082193  0.711222  1.508190
  N    10.812505  4.633498  1.920965
  N    10.296020  1.052875  5.324889
  N    10.579659  4.604177  5.838285
  S     9.754431  0.350317  3.905774
  S     9.655440  4.278409  4.494362
  S    12.526989  1.423455  1.127919
  S    12.268666  5.208844  1.409386
  S    11.819159  1.710040  5.190625
  S    12.149795  4.995155  5.515157
