16  
    
  C    12.812076  1.683640  3.315836
  C    12.472812  5.202848  3.262327
  C    11.571341  1.171198  2.768949
  C    11.208760  4.767422  2.605445
  N    13.777380  1.839285  2.441959
  N    13.498887  5.488343  2.448828
  N    11.523282  1.052703  1.439063
  N    11.357334  4.676722  1.304653
  N    11.170145  1.502890  5.293267
  N    10.909825  4.771352  5.260850
  S    10.340460  0.873402  4.025346
  S    10.039759  4.453586  3.856703
  S    13.083931  1.470321  0.953217
  S    12.891475  5.138539  0.903127
  S    12.750859  1.749728  5.018701
  S    12.467359  5.469439  4.971243
