16  
    
  C     9.049941 -0.486860  2.406933
  C     9.660067  3.345326  2.751660
  C     7.906921 -0.982379  1.700883
  C     8.317679  3.006383  2.205988
  N    10.181082 -0.381458  1.682981
  N    10.647038  3.353562  1.832306
  N     8.178232 -1.239213  0.447421
  N     8.333468  2.681025  0.906583
  N     6.956938 -0.215075  3.925181
  N     7.772105  3.473872  4.659375
  S     6.409159 -1.084475  2.644314
  S     6.930070  3.299030  3.246583
  S     9.736591 -0.836255  0.125066
  S     9.883184  2.961871  0.406978
  S     8.614104 -0.045780  4.058401
  S     9.396117  3.726612  4.399489
