16  
    
  C     4.829503 -2.049798  1.823400
  C     4.257021  1.122334  1.342417
  C     3.568458 -2.452003  1.190010
  C     3.008003  0.848605  0.648968
  N     5.757283 -1.777379  0.938540
  N     5.272707  1.446451  0.563198
  N     3.638085 -2.657009 -0.100469
  N     3.121422  0.813880 -0.676874
  N     2.959672 -1.930199  3.637795
  N     2.405722  1.063246  3.120604
  S     2.174545 -2.383829  2.240342
  S     1.680876  0.714883  1.713068
  S     5.193197 -2.313813 -0.541653
  S     4.759101  1.183925 -0.961312
  S     4.622847 -1.811541  3.558342
  S     4.055677  1.261511  3.017788
