16  
    
  C     8.818386 -0.147824  2.555856
  C     8.570424  3.177537  2.551359
  C     7.596316 -0.551446  1.911067
  C     7.448431  2.580082  1.897104
  N     9.766108  0.203798  1.707119
  N     9.599123  3.452113  1.736371
  N     7.680577 -0.721610  0.626756
  N     7.559365  2.398718  0.587494
  N     7.134684 -0.760707  4.366998
  N     6.722479  2.908678  4.316561
  S     6.316007 -0.968024  2.953448
  S     6.050017  2.247731  2.940927
  S     9.183441 -0.193810  0.191575
  S     9.098537  2.960963  0.237145
  S     8.678475 -0.145771  4.240255
  S     8.302477  3.309976  4.261982
