16  
    
  C     3.806731 -2.768533  1.381477
  C     4.097906  1.236527  1.483971
  C     2.695612 -3.455467  0.805770
  C     2.853418  0.675973  0.946126
  N     4.902551 -2.651033  0.627104
  N     5.114842  1.318015  0.615689
  N     2.981969 -3.876676 -0.451834
  N     2.909903  0.489918 -0.374630
  N     2.057652 -2.797868  3.204969
  N     2.348355  1.102453  3.436062
  S     1.362574 -3.511314  1.859296
  S     1.545430  0.547202  2.049189
  S     4.465520 -3.334558 -0.824968
  S     4.457219  0.862624 -0.817598
  S     3.693505 -2.452190  3.071195
  S     4.020348  1.393717  3.208868
