16  
    
  C     9.958463 -0.045362  2.975825
  C    10.245290  3.478946  2.892309
  C     8.809290 -0.602600  2.270958
  C     8.894389  3.650939  2.377580
  N    11.029960  0.122532  2.234693
  N    11.208449  3.510352  1.961766
  N     8.948766 -0.673454  0.984657
  N     8.853747  3.747893  1.055232
  N     8.045137 -0.648748  4.662946
  N     8.547333  3.368070  4.862351
  S     7.420051 -0.993791  3.186416
  S     7.614172  3.601273  3.567261
  S    10.507211 -0.206590  0.643138
  S    10.420129  3.640412  0.513531
  S     9.658517 -0.209060  4.711190
  S    10.163424  3.431631  4.599011
