16  
    
  C     6.103584 -2.119292  1.740782
  C     6.194506  1.781824  1.853768
  C     4.832192 -2.442861  1.113383
  C     4.882297  1.875791  1.170199
  N     7.135794 -2.092799  0.888695
  N     7.215000  1.735101  1.026878
  N     4.941467 -2.563663 -0.224928
  N     4.884163  1.728166 -0.146043
  N     4.313519 -2.128376  3.549804
  N     4.412504  1.800107  3.694794
  S     3.469581 -2.508824  2.208556
  S     3.555591  1.980958  2.280199
  S     6.548641 -2.548815 -0.585462
  S     6.548226  1.533168 -0.535407
  S     5.933713 -1.780877  3.445276
  S     6.046352  1.864071  3.564628
