16  
    
  C     4.644538 -2.543112  1.601020
  C     5.072920  1.243381  1.759982
  C     3.397024 -2.763731  0.914134
  C     3.774984  1.060446  1.154816
  N     5.725879 -2.659706  0.803051
  N     6.062973  1.543579  0.955937
  N     3.480907 -2.889728 -0.428009
  N     3.839775  1.195077 -0.168199
  N     2.831948 -2.520514  3.426332
  N     3.391850  0.893038  3.706619
  S     2.033768 -2.855857  1.970532
  S     2.547884  0.742556  2.331982
  S     5.109275 -2.870235 -0.716299
  S     5.464024  1.618410 -0.601914
  S     4.526815 -2.302312  3.331399
  S     4.936871  1.432626  3.524107
