16  
    
  C     7.126837 -1.605407  1.986357
  C     7.063438  2.116834  1.988906
  C     5.931307 -1.942815  1.263278
  C     5.880747  1.688532  1.325462
  N     8.190683 -1.351454  1.246521
  N     8.119512  2.302489  1.160905
  N     6.130558 -2.149461 -0.004593
  N     6.014008  1.659047 -0.015081
  N     5.246876 -1.730809  3.729690
  N     5.232324  1.812792  3.816993
  S     4.547037 -2.124877  2.278393
  S     4.470081  1.530510  2.379335
  S     7.760808 -1.780197 -0.260548
  S     7.570985  1.989825 -0.323331
  S     6.841945 -1.389988  3.684299
  S     6.792812  2.191877  3.734461
