16  
    
  C    12.426362  1.587078  3.320388
  C    12.333834  5.430750  3.631560
  C    11.201081  1.170960  2.666952
  C    11.176200  4.785051  3.007550
  N    13.438170  1.784865  2.452898
  N    13.280687  5.668275  2.746741
  N    11.354083  0.879459  1.375585
  N    11.242358  4.620607  1.639541
  N    10.654745  1.374820  5.169488
  N    10.595537  4.965314  5.438315
  S     9.875112  0.836074  3.774861
  S     9.919402  4.332823  4.062011
  S    12.887787  1.338313  0.954868
  S    12.798501  5.201613  1.253117
  S    12.246529  1.862304  5.027001
  S    12.126257  5.536793  5.335641
