16  
    
  C     9.103814 -0.445555  2.546737
  C     9.141302  3.506452  2.762208
  C     7.839915 -0.762600  1.941345
  C     7.839683  3.105118  2.163147
  N    10.016439 -0.113774  1.648547
  N    10.117305  3.554992  1.861321
  N     7.815225 -0.917260  0.617141
  N     7.898723  3.006919  0.839670
  N     7.309572 -0.847848  4.503801
  N     7.345154  3.271894  4.634470
  S     6.517406 -1.031436  3.076421
  S     6.503261  2.834405  3.251058
  S     9.313489 -0.378347  0.139472
  S     9.438297  3.314235  0.339408
  S     8.858036 -0.333173  4.290313
  S     8.978939  3.611004  4.501242
