16  
    
  C     7.081655 -1.200390  2.314897
  C     7.772438  2.827484  2.343117
  C     6.105639 -1.878612  1.535470
  C     6.622444  2.347072  1.625796
  N     8.208047 -0.888105  1.642378
  N     8.793327  3.099114  1.536237
  N     6.344560 -1.839760  0.208036
  N     6.819126  2.203740  0.299788
  N     5.279738 -1.994891  3.900234
  N     5.951987  2.492084  4.153334
  S     4.846446 -2.529763  2.441266
  S     5.284479  2.053997  2.726863
  S     7.883453 -1.259165  0.077272
  S     8.358988  2.679146 -0.000829
  S     6.818102 -1.301781  4.021814
  S     7.582459  2.944161  4.103073
