16  
    
  C    10.962920  0.534963  2.990327
  C    10.740000  4.464453  2.793673
  C     9.694386  0.186212  2.345756
  C     9.746573  3.610632  2.161937
  N    11.998957  0.496557  2.155348
  N    11.871572  4.600503  2.103490
  N     9.750588 -0.079959  1.052682
  N    10.078922  3.205785  0.938558
  N     9.209076  0.484963  4.877651
  N     8.891508  4.181506  4.542936
  S     8.371271  0.113253  3.479879
  S     8.353781  3.427840  3.191101
  S    11.363119  0.099433  0.652142
  S    11.614304  3.796210  0.607831
  S    10.721965  1.115398  4.622966
  S    10.390210  4.912132  4.444482
