16  
    
  C    12.062576  1.347400  3.491705
  C    12.257669  5.140203  3.420738
  C    10.995121  0.697048  2.761461
  C    11.019058  4.707621  2.708605
  N    13.111009  1.607698  2.703410
  N    13.323405  5.176420  2.684117
  N    11.201750  0.599427  1.445760
  N    11.258680  4.325435  1.426186
  N    10.099017  1.131923  5.220494
  N    10.366084  5.377294  5.122337
  S     9.534339  0.551181  3.735333
  S     9.612608  4.677307  3.796054
  S    12.750438  1.162490  1.185600
  S    12.881670  4.699888  1.168585
  S    11.672563  1.732424  5.141482
  S    11.987447  5.704310  4.999700
