16  
    
  C     4.631367 -2.125805  1.548337
  C     4.565018  1.651841  1.518329
  C     3.292579 -2.200866  1.009302
  C     3.384087  1.053046  0.889924
  N     5.616878 -2.259146  0.659087
  N     5.591078  1.885861  0.700415
  N     3.275500 -2.333611 -0.314544
  N     3.539788  0.940751 -0.420034
  N     3.026389 -2.024313  3.563562
  N     2.779223  1.246704  3.366327
  S     2.073864 -2.126792  2.216511
  S     2.074144  0.785728  2.000386
  S     4.864338 -2.297285 -0.832909
  S     4.992777  1.518530 -0.830875
  S     4.647742 -1.846228  3.253404
  S     4.374366  1.676037  3.319792
