16  
    
  C     9.614573  0.034322  2.849203
  C     9.730129  3.523629  2.745841
  C     8.487949 -0.646781  2.184677
  C     8.455680  3.371732  2.070257
  N    10.679937  0.281537  2.085702
  N    10.697167  3.836383  1.887908
  N     8.662191 -0.766618  0.868340
  N     8.495199  3.318053  0.703658
  N     7.898112 -0.273004  4.709247
  N     8.039294  3.221014  4.666232
  S     7.243632 -0.925509  3.354358
  S     7.120461  3.110992  3.206814
  S    10.219505 -0.213430  0.567529
  S    10.088410  3.719244  0.404339
  S     9.507150  0.037182  4.565935
  S     9.709620  3.429884  4.487337
