16  
    
  C     7.284954 -1.570877  2.157174
  C     7.577260  2.700198  2.188734
  C     6.105013 -1.983791  1.451097
  C     6.368962  2.230351  1.550475
  N     8.301219 -1.215193  1.345775
  N     8.539519  2.935354  1.306170
  N     6.272994 -2.024021  0.118043
  N     6.418008  2.005686  0.237659
  N     5.540563 -2.138732  4.012162
  N     5.909401  2.296179  4.109512
  S     4.925639 -2.628371  2.578769
  S     5.101288  1.960568  2.712093
  S     7.825290 -1.440248 -0.215345
  S     7.966053  2.555753 -0.157733
  S     7.095895 -1.523405  3.877775
  S     7.554680  2.673939  3.941396
