16  
    
  C     3.684422 -2.836608  1.133126
  C     3.963882  0.877054  1.462169
  C     2.487915 -3.510134  0.606874
  C     2.762115  0.371033  0.869065
  N     4.677807 -2.750265  0.284725
  N     4.974471  1.162499  0.659006
  N     2.588850 -3.980176 -0.606836
  N     2.920745  0.103346 -0.406513
  N     1.896790 -2.981491  2.969201
  N     2.259720  0.578838  3.346597
  S     1.233051 -3.772371  1.686429
  S     1.465660  0.153371  2.009554
  S     4.096877 -3.426988 -1.123540
  S     4.406618  0.668165 -0.868362
  S     3.443846 -2.387230  2.817162
  S     3.823074  1.159706  3.164914
