16  
    
  C     8.761725 -0.946456  2.385567
  C     8.494653  3.258014  2.518568
  C     7.572415 -1.185115  1.628015
  C     7.336398  2.629484  1.888382
  N     9.822405 -0.835708  1.655743
  N     9.488246  3.474530  1.674613
  N     7.754608 -1.365510  0.350211
  N     7.434892  2.473627  0.564848
  N     6.851603 -0.733609  4.084716
  N     6.782139  2.840568  4.468253
  S     6.193154 -1.305783  2.672662
  S     6.058173  2.206437  3.064220
  S     9.382529 -1.094524  0.113484
  S     8.940032  3.085463  0.193578
  S     8.566143 -0.600002  4.072825
  S     8.371368  3.467479  4.295857
