16  
    
  C     5.509145 -2.300262  1.674089
  C     5.184870  1.615595  1.534913
  C     4.330349 -2.659956  0.860935
  C     4.154133  1.002432  0.753249
  N     6.577561 -2.080527  0.977002
  N     6.343784  1.616276  0.859431
  N     4.519486 -2.741314 -0.434791
  N     4.426408  0.824017 -0.530089
  N     3.522276 -2.486190  3.346581
  N     3.122381  1.601172  3.080388
  S     2.891870 -2.923278  1.851500
  S     2.761052  0.712382  1.719581
  S     6.130027 -2.409370 -0.648603
  S     6.039310  1.211564 -0.697579
  S     5.141036 -2.112429  3.383130
  S     4.766488  2.137108  3.158720
