16  
    
  C    12.967921  1.791901  3.714926
  C    12.956419  5.515403  3.677506
  C    11.636039  1.482695  3.109128
  C    11.714067  5.021247  3.219588
  N    13.906061  1.871285  2.801611
  N    13.899775  5.524230  2.700859
  N    11.693555  1.207210  1.817065
  N    11.696932  4.660766  1.975589
  N    11.225384  1.516141  5.670778
  N    11.275460  5.591188  5.724398
  S    10.379678  1.255657  4.247637
  S    10.380584  5.044833  4.328083
  S    13.250148  1.472085  1.303453
  S    13.188766  4.944265  1.359164
  S    12.886529  1.880957  5.461921
  S    12.878278  5.955811  5.373832
