16  
    
  C    12.957658  1.775116  3.716726
  C    12.949251  5.503228  3.687591
  C    11.652355  1.472747  3.103830
  C    11.689203  5.021623  3.238951
  N    13.892684  1.853527  2.814991
  N    13.900404  5.523364  2.698199
  N    11.694009  1.199535  1.797425
  N    11.700836  4.662244  1.980241
  N    11.219337  1.520377  5.664444
  N    11.286225  5.589153  5.716718
  S    10.376626  1.254507  4.250241
  S    10.379543  5.042347  4.340586
  S    13.246702  1.474821  1.303446
  S    13.189414  4.940064  1.363408
  S    12.880803  1.886969  5.466016
  S    12.874569  5.967898  5.369813
