16  
    
  C    11.978200  1.490019  3.576200
  C    11.904234  5.066069  3.754392
  C    10.908309  0.861879  2.903458
  C    10.708540  4.525587  3.193796
  N    12.877963  2.056412  2.793940
  N    12.836193  5.381502  2.845849
  N    11.081312  0.635169  1.616471
  N    10.668118  4.569783  1.895466
  N    10.505438  0.650610  5.399479
  N    10.493724  4.288719  5.831453
  S     9.714066  0.254175  4.030945
  S     9.596736  3.916117  4.468288
  S    12.422835  1.563491  1.237100
  S    12.210459  5.039990  1.378037
  S    11.905671  1.490177  5.286875
  S    11.957281  4.997022  5.469511
