16  
    
  C     4.284790 -2.474535  1.745475
  C     4.065553  1.283889  1.405759
  C     3.068451 -3.035443  1.124756
  C     2.844153  0.682524  0.838839
  N     5.312243 -2.302898  0.954830
  N     5.084658  1.421073  0.553979
  N     3.250237 -3.278648 -0.137431
  N     3.029097  0.232214 -0.405463
  N     2.538405 -2.700773  3.665239
  N     2.309495  1.024486  3.308847
  S     1.893337 -3.504929  2.343160
  S     1.672401  0.276933  1.959790
  S     4.777493 -2.677362 -0.626549
  S     4.490384  0.751400 -0.858811
  S     4.088414 -2.105391  3.440030
  S     3.826553  1.686468  3.090414
