16  
    
  C     5.592998 -2.031600  1.853769
  C     5.170377  1.573262  1.714652
  C     4.448769 -2.628009  1.240713
  C     4.106947  0.847450  1.100433
  N     6.538614 -1.835629  0.974708
  N     6.111739  2.003559  0.890357
  N     4.528089 -2.847143 -0.034907
  N     4.132524  0.766608 -0.233439
  N     3.893712 -2.404979  3.725302
  N     3.557210  0.892960  3.644813
  S     3.053852 -2.756264  2.323124
  S     2.874790  0.390918  2.215595
  S     6.030570 -2.292963 -0.515825
  S     5.575524  1.591156 -0.672333
  S     5.426838 -1.810612  3.581563
  S     5.144095  1.516646  3.509335
