16  
    
  C     6.240348 -1.718011  2.105005
  C     6.526925  2.169285  2.074368
  C     5.160781 -2.359216  1.387487
  C     5.365905  1.633078  1.465090
  N     7.279549 -1.459844  1.323434
  N     7.555737  2.298800  1.221619
  N     5.335099 -2.529722  0.091379
  N     5.492197  1.456983  0.134209
  N     4.373688 -2.070735  3.863331
  N     4.774732  1.908736  3.984018
  S     3.817749 -2.795870  2.465109
  S     3.975103  1.492813  2.536531
  S     6.901809 -1.840560 -0.241960
  S     6.978832  1.905960 -0.250622
  S     5.959231 -1.532636  3.790639
  S     6.397286  2.342146  3.826367
