16  
    
  C     5.567754 -2.117642  1.871480
  C     5.261550  1.606254  1.734406
  C     4.374062 -2.639789  1.235391
  C     4.108907  1.009157  1.121466
  N     6.591416 -1.823982  1.076625
  N     6.180342  2.050942  0.863186
  N     4.521037 -2.906181 -0.041952
  N     4.219128  0.950888 -0.201708
  N     3.736739 -2.438697  3.803106
  N     3.586151  0.862782  3.562982
  S     3.034123 -2.801211  2.338020
  S     2.942419  0.237950  2.140266
  S     5.979935 -2.219314 -0.463922
  S     5.588044  1.660115 -0.615767
  S     5.328649 -1.850006  3.581716
  S     5.077487  1.530302  3.469931
