16  
    
  C     3.223807 -2.693388  1.662684
  C     3.575291  0.900435  1.426051
  C     2.193959 -3.374037  0.889564
  C     2.396679  0.397456  0.802243
  N     4.223368 -2.303374  0.891024
  N     4.578564  1.172832  0.590225
  N     2.435844 -3.469847 -0.391008
  N     2.439044  0.368536 -0.521982
  N     1.353142 -3.482608  3.331424
  N     1.961001  0.166570  3.389040
  S     0.762249 -3.829861  1.785174
  S     1.153531 -0.014419  1.955140
  S     3.827905 -2.641705 -0.674754
  S     3.937447  0.877714 -0.948220
  S     2.961502 -2.876271  3.390873
  S     3.557035  0.662019  3.155104
