16  
    
  C     5.710658 -2.116531  2.023027
  C     6.004809  1.735528  2.049639
  C     4.587685 -2.727259  1.378492
  C     4.760610  1.356541  1.427052
  N     6.694287 -1.748370  1.181226
  N     6.990634  2.025430  1.188828
  N     4.673982 -2.950659  0.047457
  N     4.922163  1.179997  0.118691
  N     3.937890 -2.500819  3.859888
  N     4.175774  1.535234  3.909228
  S     3.244519 -3.016291  2.470435
  S     3.368146  1.270483  2.480474
  S     6.241563 -2.416424 -0.319859
  S     6.437961  1.555526 -0.282511
  S     5.447352 -1.816981  3.694476
  S     5.803313  1.847792  3.783368
