16  
    
  C     4.802637 -2.040908  1.805662
  C     4.267497  1.167571  1.323037
  C     3.548663 -2.438900  1.191827
  C     3.025570  0.833099  0.642992
  N     5.760342 -1.787746  0.943688
  N     5.313174  1.474566  0.562981
  N     3.608698 -2.648492 -0.104033
  N     3.142240  0.819391 -0.666415
  N     2.973827 -1.909700  3.627851
  N     2.434473  1.016769  3.137365
  S     2.172883 -2.351085  2.239625
  S     1.692908  0.727221  1.719613
  S     5.181838 -2.304020 -0.561967
  S     4.763235  1.196361 -0.972722
  S     4.648346 -1.814868  3.541809
  S     4.058935  1.273288  3.054151
