16  
    
  C     7.293909 -1.676925  2.247728
  C     7.426557  2.407454  2.144156
  C     6.072649 -1.957023  1.579613
  C     6.222938  1.866042  1.558183
  N     8.359812 -1.605819  1.442939
  N     8.430087  2.416743  1.270943
  N     6.215787 -2.171551  0.250098
  N     6.254437  1.599288  0.258405
  N     5.528027 -2.012886  4.088515
  N     5.782545  2.272613  4.069805
  S     4.756255 -2.272539  2.629910
  S     4.951737  1.677119  2.761864
  S     7.814140 -1.899604 -0.089683
  S     7.831849  1.991452 -0.167343
  S     7.071635 -1.576204  3.962301
  S     7.349117  2.579732  3.913783
