16  
    
  C     3.444832 -3.059346  1.058284
  C     3.737381  0.638165  1.424998
  C     2.218054 -3.508010  0.449250
  C     2.604937  0.145370  0.732415
  N     4.452358 -2.908405  0.163290
  N     4.783117  0.819791  0.637197
  N     2.212698 -3.632106 -0.887048
  N     2.697247  0.065508 -0.593445
  N     1.685681 -3.234190  2.904427
  N     1.948979  0.333393  3.235326
  S     0.876231 -3.685616  1.512348
  S     1.208524  0.099670  1.780353
  S     3.821485 -3.374367 -1.319286
  S     4.282052  0.448281 -0.911207
  S     3.325743 -2.887331  2.785187
  S     3.560098  0.909874  3.082592
