16  
    
  C    12.051171  1.304777  3.457637
  C    12.212835  5.228264  3.413198
  C    10.937776  0.824755  2.704878
  C    11.074958  4.710052  2.775280
  N    13.123121  1.670257  2.774475
  N    13.386987  5.282260  2.714846
  N    11.200110  0.628819  1.393984
  N    11.362668  4.357753  1.536602
  N    10.119709  1.172199  5.151969
  N    10.325021  5.328627  5.138887
  S     9.623424  0.527772  3.709114
  S     9.626331  4.635325  3.831448
  S    12.741272  1.210786  1.195851
  S    12.896482  4.730015  1.200447
  S    11.667662  1.750461  5.120596
  S    11.946059  5.658820  5.060046
