16  
    
  C     9.623592  0.019780  2.815411
  C     9.701792  3.510999  2.736935
  C     8.473761 -0.639262  2.159196
  C     8.457993  3.343642  2.051600
  N    10.681378  0.262461  2.109801
  N    10.684540  3.839922  1.922442
  N     8.659788 -0.799178  0.872700
  N     8.470935  3.289366  0.706155
  N     7.909860 -0.286214  4.728238
  N     8.026917  3.218627  4.663394
  S     7.235886 -0.908564  3.339401
  S     7.146225  3.147723  3.188411
  S    10.227933 -0.227179  0.569630
  S    10.077577  3.738533  0.402361
  S     9.499922  0.039663  4.572653
  S     9.696506  3.441448  4.499932
