16  
    
  C     7.098680 -1.569026  2.194042
  C     7.075845  2.171726  2.073093
  C     5.909613 -1.841262  1.436495
  C     5.928921  1.691062  1.365418
  N     8.114201 -1.288167  1.410621
  N     8.173560  2.317720  1.325289
  N     6.042460 -1.877331  0.115849
  N     6.110382  1.615148  0.027087
  N     5.168388 -1.644044  3.921670
  N     5.178487  1.941744  3.785033
  S     4.503244 -2.115157  2.480703
  S     4.483203  1.619959  2.340253
  S     7.668876 -1.580934 -0.145398
  S     7.691785  1.943257 -0.216457
  S     6.780666 -1.525838  3.929711
  S     6.751422  2.439228  3.813940
