16  
    
  C     6.348860 -1.736057  1.636417
  C     6.424113  2.170903  1.976869
  C     5.178539 -2.293325  0.989766
  C     5.337093  1.465756  1.391647
  N     7.320723 -1.339437  0.857766
  N     7.462026  2.373666  1.178747
  N     5.429389 -2.543994 -0.272107
  N     5.405906  1.204211  0.086050
  N     4.515988 -1.814618  3.416266
  N     4.544359  2.002166  3.763745
  S     3.815441 -2.516054  2.072827
  S     3.948376  1.255425  2.404065
  S     6.915071 -1.917680 -0.652241
  S     6.968285  1.775766 -0.359755
  S     6.098018 -1.413524  3.364499
  S     6.109976  2.586013  3.607686
