16  
    
  C     8.407122 -0.936039  2.453681
  C     8.154212  2.939637  2.346731
  C     7.135078 -1.385830  1.990058
  C     7.024379  2.334155  1.708542
  N     9.400575 -0.899888  1.535228
  N     9.200822  3.115800  1.573753
  N     7.142874 -1.842631  0.733447
  N     7.217371  2.070214  0.439196
  N     6.723622 -0.789657  4.494268
  N     6.265863  2.601455  4.159583
  S     5.845919 -1.435067  3.216730
  S     5.620412  2.059487  2.663660
  S     8.675674 -1.591676  0.160384
  S     8.759053  2.466126  0.026225
  S     8.260578 -0.392481  4.144539
  S     7.843755  3.228703  4.038729
