16  
    
  C     8.627619 -1.117059  2.355850
  C     8.347078  2.793131  2.082356
  C     7.431690 -1.602428  1.764816
  C     7.150294  2.328780  1.501707
  N     9.612656 -0.726786  1.510019
  N     9.369625  3.034080  1.256692
  N     7.522545 -1.667064  0.417577
  N     7.207790  2.265412  0.164636
  N     6.780711 -1.268298  4.196140
  N     6.563296  2.611977  3.977065
  S     6.061796 -1.889828  2.847235
  S     5.793021  2.125647  2.634554
  S     9.026079 -1.092630 -0.001401
  S     8.730291  2.693879 -0.284376
  S     8.444335 -0.929949  4.040623
  S     8.100401  3.143518  3.740470
