16  
    
  C    10.342452  0.442130  2.991921
  C    10.828747  4.301589  2.961651
  C     9.124642 -0.040463  2.331815
  C     9.564011  4.191473  2.243197
  N    11.265035  0.884948  2.103208
  N    11.818093  4.632119  2.128791
  N     9.090524  0.006444  0.995357
  N     9.596299  4.357327  0.925702
  N     8.680595 -0.225292  4.859673
  N     9.006197  3.628184  4.696126
  S     7.943591 -0.591277  3.414122
  S     8.212653  3.857445  3.259037
  S    10.582350  0.710682  0.581471
  S    11.133826  4.699511  0.562169
  S    10.153710  0.527849  4.742546
  S    10.580381  4.234254  4.730410
