16  
    
  C    10.986000  0.762868  3.330659
  C    11.288495  4.203077  3.231063
  C     9.846519  0.236839  2.568181
  C    10.005726  3.851760  2.685704
  N    12.088457  0.850662  2.563295
  N    12.171086  4.505802  2.260603
  N     9.964130  0.143899  1.242721
  N     9.924125  3.771428  1.351079
  N     9.190450 -0.011566  5.038257
  N     9.572851  3.778823  5.204582
  S     8.534333 -0.336823  3.505361
  S     8.718245  3.492464  3.806594
  S    11.589501  0.545863  0.966265
  S    11.474296  4.141777  0.834441
  S    10.742496  0.640513  5.060921
  S    11.152696  4.284088  4.998342
