16  
    
  C    10.719392  0.705745  2.923106
  C    10.678533  4.464102  2.797931
  C     9.502168  0.211413  2.306265
  C     9.665589  3.612319  2.255893
  N    11.779524  0.737730  2.137923
  N    11.774450  4.587532  2.067360
  N     9.609393 -0.274436  1.071558
  N     9.874170  3.261252  0.979888
  N     9.001253  0.756294  4.817179
  N     8.736284  4.458071  4.462547
  S     8.215663  0.269200  3.439923
  S     8.351386  3.303996  3.335076
  S    11.228987  0.151297  0.670421
  S    11.456096  3.747336  0.643020
  S    10.574373  1.231748  4.610315
  S    10.277564  5.067760  4.392018
