16  
    
  C    10.175018  0.521859  2.593897
  C    10.583119  4.260849  2.870957
  C     9.040537 -0.163491  1.995949
  C     9.363667  3.827952  2.277686
  N    11.235557  0.621736  1.831125
  N    11.591897  4.284348  2.011510
  N     9.222116 -0.468369  0.731979
  N     9.395822  3.573316  0.976159
  N     8.333356  0.570317  4.381896
  N     8.960371  4.150078  4.816742
  S     7.662301 -0.251259  3.070725
  S     8.143610  3.777732  3.458271
  S    10.804321  0.053498  0.302663
  S    10.954426  3.757120  0.533315
  S     9.969195  0.888906  4.301617
  S    10.556301  4.665417  4.616349
