16  
    
  C     6.132067 -1.533255  2.384096
  C     6.620137  2.157931  2.229317
  C     4.981529 -2.149199  1.767086
  C     5.397386  1.605069  1.646883
  N     7.205267 -1.319822  1.605616
  N     7.599299  2.430658  1.382307
  N     5.150457 -2.220684  0.447146
  N     5.441843  1.449265  0.322814
  N     4.361657 -2.102563  4.254963
  N     4.988125  1.638615  4.203397
  S     3.708646 -2.653090  2.843756
  S     4.135438  1.329515  2.775207
  S     6.592017 -1.620523  0.073383
  S     6.960095  2.103700 -0.172343
  S     5.973387 -1.606498  4.154881
  S     6.518670  2.249229  3.911774
