16  
    
  C    11.010454  0.673298  3.301583
  C    11.212257  4.247315  3.235405
  C     9.827324  0.292466  2.568669
  C     9.930960  3.867259  2.715543
  N    12.083619  0.932303  2.555853
  N    12.171983  4.560408  2.354206
  N    10.011167  0.178982  1.266434
  N     9.935897  3.762706  1.405365
  N     9.128587  0.052066  4.996751
  N     9.576726  3.805554  5.228836
  S     8.515245 -0.359996  3.509580
  S     8.728726  3.505450  3.835723
  S    11.572267  0.554953  0.998773
  S    11.434932  4.146548  0.865803
  S    10.724936  0.612802  5.031218
  S    11.169552  4.253592  5.017420
