16  
    
  C     9.707055 -0.102971  2.892428
  C     9.711822  3.539731  2.765915
  C     8.510238 -0.574214  2.182800
  C     8.498889  3.155117  2.086803
  N    10.688188  0.159110  2.049771
  N    10.681328  3.864019  1.927956
  N     8.742780 -0.860843  0.902891
  N     8.520946  3.275028  0.748387
  N     7.890499 -0.424490  4.718735
  N     7.949457  3.217406  4.595287
  S     7.144311 -0.847354  3.254835
  S     7.165094  3.286382  3.183822
  S    10.249624 -0.301930  0.545605
  S    10.028562  3.798436  0.375853
  S     9.512943  0.079706  4.593090
  S     9.572983  3.510840  4.482949
