16  
    
  C    10.984045  0.749834  3.310194
  C    11.297688  4.216494  3.236651
  C     9.839013  0.210892  2.553927
  C    10.023274  3.823826  2.657678
  N    12.059959  0.827128  2.555465
  N    12.168301  4.455632  2.260740
  N     9.983595  0.131698  1.253038
  N     9.938820  3.773630  1.310013
  N     9.222901 -0.034902  5.050727
  N     9.575113  3.776494  5.184460
  S     8.545880 -0.318143  3.519497
  S     8.710977  3.484691  3.794772
  S    11.595781  0.544324  0.954336
  S    11.486503  4.143668  0.811260
  S    10.744834  0.654409  5.065286
  S    11.144941  4.304971  4.981544
