16  
    
  C    11.421259  1.378751  2.929439
  C    11.442498  4.966344  3.154660
  C    10.423867  0.513596  2.485707
  C    10.375310  4.450907  2.379915
  N    12.357665  1.743099  2.062002
  N    12.475282  5.287252  2.353561
  N    10.473532  0.280933  1.179967
  N    10.541403  4.408977  1.070306
  N    10.169354  0.652268  4.987723
  N     9.611537  4.330510  4.862579
  S     9.325483  0.068951  3.666173
  S     8.948903  3.942949  3.371795
  S    11.886872  1.024555  0.655892
  S    12.075832  4.954916  0.791034
  S    11.516891  1.580413  4.650636
  S    11.090529  5.064156  4.823478
