16  
    
  C     3.650704 -2.725876  1.165840
  C     4.010122  1.017081  1.491721
  C     2.558692 -3.480076  0.638814
  C     2.842269  0.349481  0.899567
  N     4.695327 -2.685958  0.297560
  N     4.986218  1.174034  0.593372
  N     2.738903 -4.017341 -0.579569
  N     2.944680  0.092105 -0.417335
  N     1.941785 -2.982941  3.043627
  N     2.308363  0.648180  3.437838
  S     1.253929 -3.708290  1.713348
  S     1.430662  0.235732  2.009064
  S     4.159594 -3.441616 -1.062788
  S     4.438478  0.728176 -0.892529
  S     3.488398 -2.418537  2.861840
  S     3.857812  1.200620  3.202253
