16  
    
  C    10.320213  0.133358  2.689053
  C    10.241452  4.198670  3.096508
  C     9.119884 -0.361928  1.981975
  C     8.964466  3.820000  2.481262
  N    11.375720  0.136890  1.913675
  N    11.292974  4.057508  2.319805
  N     9.347961 -0.823821  0.766867
  N     9.085913  3.450835  1.213900
  N     8.496755  0.449120  4.333925
  N     8.694661  4.176243  5.082096
  S     7.823434 -0.409221  3.086965
  S     7.766516  3.969889  3.722178
  S    10.979262 -0.552380  0.448408
  S    10.772467  3.564761  0.859278
  S    10.111724  0.812135  4.228001
  S    10.262486  4.755998  4.725687
