16  
    
  C     4.504188 -2.595986  1.530470
  C     5.190837  1.501208  1.696403
  C     3.251121 -2.809886  0.857882
  C     3.852809  1.343037  1.112238
  N     5.600969 -2.620881  0.715270
  N     6.148666  1.589568  0.814284
  N     3.385722 -2.911031 -0.485983
  N     3.851088  1.286423 -0.204210
  N     2.735771 -2.808135  3.429187
  N     3.468527  1.145784  3.569760
  S     1.887536 -2.813322  1.963379
  S     2.636584  0.770639  2.206203
  S     4.991930 -2.674214 -0.806504
  S     5.439903  1.418123 -0.704406
  S     4.356744 -2.520256  3.258569
  S     5.097319  1.391444  3.392415
