16  
    
  C     7.105141 -1.568567  2.186432
  C     7.072139  2.163990  2.073904
  C     5.903508 -1.825537  1.426101
  C     5.928116  1.691898  1.359066
  N     8.118698 -1.285551  1.396282
  N     8.163811  2.303475  1.310324
  N     6.046932 -1.894493  0.118667
  N     6.117640  1.612933  0.016831
  N     5.172825 -1.641554  3.917990
  N     5.189998  1.940716  3.780996
  S     4.502812 -2.117542  2.466976
  S     4.476726  1.614541  2.337966
  S     7.677291 -1.589515 -0.153624
  S     7.689012  1.951880 -0.211284
  S     6.779214 -1.527900  3.930923
  S     6.755544  2.432903  3.814687
