16  
    
  C    10.194537  0.558994  2.659823
  C    10.759923  4.294838  2.833339
  C     8.977897  0.057189  2.019138
  C     9.484591  3.922607  2.279981
  N    11.200037  0.741029  1.812979
  N    11.738963  4.235880  1.902040
  N     9.124009 -0.246210  0.743508
  N     9.447860  3.671477  0.983977
  N     8.333763  0.481957  4.465839
  N     8.963022  4.179244  4.747667
  S     7.754246 -0.382392  3.162040
  S     8.144717  3.648553  3.383989
  S    10.662254  0.081330  0.400018
  S    10.997841  3.860680  0.471405
  S     9.954458  0.829536  4.381657
  S    10.555795  4.665018  4.538093
