16  
    
  C     4.297700 -2.344749  1.834793
  C     4.081203  1.132060  1.196675
  C     3.153655 -3.026046  1.274722
  C     2.997619  0.338170  0.636846
  N     5.182854 -1.891447  0.940239
  N     4.951485  1.495917  0.279333
  N     3.323592 -3.263940 -0.029739
  N     3.156712  0.005039 -0.615696
  N     2.555763 -2.413378  3.706193
  N     2.263927  0.955986  3.006538
  S     1.811922 -3.104598  2.381992
  S     1.633974  0.108447  1.704952
  S     4.781842 -2.618603 -0.436579
  S     4.588529  0.701257 -1.140979
  S     4.158358 -2.004970  3.511881
  S     3.746954  1.589190  2.831908
