16  
    
  C     4.211325 -2.759275  1.588456
  C     4.242292  1.209817  1.735165
  C     3.005597 -3.298496  1.069535
  C     2.976637  1.210654  1.101253
  N     5.176749 -2.546668  0.689162
  N     5.214987  1.040915  0.846332
  N     3.080598 -3.617401 -0.234302
  N     2.897558  1.030050 -0.240012
  N     2.551069 -2.504501  3.481446
  N     2.523333  1.449858  3.661433
  S     1.673498 -3.182709  2.256514
  S     1.704487  1.514671  2.274431
  S     4.613839 -3.187544 -0.736978
  S     4.526152  0.903805 -0.657230
  S     4.158741 -2.159777  3.186559
  S     4.156305  1.542721  3.480810
