16  
    
  C     9.739959 -0.253450  2.861069
  C     9.586890  3.831745  2.749591
  C     8.591830 -0.612538  2.149186
  C     8.370178  3.472701  2.031317
  N    10.826161 -0.025298  2.073216
  N    10.645575  3.879236  1.961728
  N     8.806632 -0.865351  0.845151
  N     8.525484  3.423252  0.692550
  N     7.850147 -0.443037  4.640615
  N     7.883800  3.424457  4.551810
  S     7.257931 -0.812537  3.151388
  S     7.084272  3.249737  3.119191
  S    10.353268 -0.382629  0.552767
  S    10.111481  3.729335  0.398887
  S     9.457587  0.073672  4.556185
  S     9.520735  3.722220  4.489416
