16  
    
  C     8.950018 -0.251411  2.539604
  C     8.606520  3.444066  2.558977
  C     7.730982 -0.686123  1.897013
  C     7.368957  2.929398  1.931097
  N     9.964431 -0.068048  1.697153
  N     9.535197  3.751814  1.661458
  N     7.809508 -0.756215  0.596344
  N     7.428299  2.784904  0.620424
  N     7.144025 -0.569410  4.485519
  N     7.086231  2.753770  4.539833
  S     6.413621 -0.961080  2.998872
  S     6.263413  2.491780  3.111768
  S     9.394736 -0.378869  0.148062
  S     8.896166  3.455516  0.183513
  S     8.805114 -0.245731  4.368913
  S     8.658555  3.270700  4.321831
