16  
    
  C    12.596557  1.680599  3.373024
  C    12.810452  5.349612  3.346743
  C    11.301630  1.314456  2.764969
  C    11.642279  4.836103  2.710278
  N    13.595824  2.007516  2.551538
  N    13.842167  5.555490  2.500178
  N    11.397186  1.323972  1.440866
  N    11.638481  4.799778  1.398385
  N    10.868046  0.961915  5.283560
  N    11.069668  5.060222  5.197935
  S    10.074421  0.738106  3.801095
  S    10.338555  4.472709  3.842394
  S    12.989586  1.695476  1.045336
  S    13.129038  5.300557  0.954477
  S    12.391977  1.593985  5.094348
  S    12.651216  5.593194  5.122171
