16  
    
  C     7.192184 -1.354254  2.297423
  C     7.831454  2.754905  2.305060
  C     6.140524 -1.925612  1.523953
  C     6.609718  2.288991  1.662347
  N     8.243829 -0.948585  1.597276
  N     8.840535  3.064961  1.455374
  N     6.305127 -1.814714  0.220580
  N     6.685825  2.099100  0.328786
  N     5.321836 -1.803277  3.954836
  N     6.035136  2.482083  4.213128
  S     4.724470 -2.235216  2.425753
  S     5.262762  2.061958  2.717732
  S     7.808132 -1.162949  0.011735
  S     8.314075  2.594962 -0.041442
  S     6.847439 -1.233475  3.963742
  S     7.581782  3.080911  4.032739
