16  
    
  C     8.608921 -1.106088  2.349708
  C     8.343362  2.766736  2.071966
  C     7.429175 -1.605004  1.765093
  C     7.136608  2.322671  1.485664
  N     9.612034 -0.741672  1.508106
  N     9.371759  3.020645  1.249742
  N     7.523928 -1.646606  0.412888
  N     7.201199  2.265324  0.141332
  N     6.775616 -1.259325  4.199475
  N     6.566031  2.598052  3.965742
  S     6.046543 -1.883712  2.852702
  S     5.787438  2.119180  2.626396
  S     9.032906 -1.088538 -0.010196
  S     8.732511  2.686072 -0.277844
  S     8.433320 -0.931693  4.043352
  S     8.092226  3.133796  3.743214
