16  
    
  C     3.222427 -2.781814  1.606705
  C     3.634324  0.676679  1.458108
  C     2.110170 -3.202591  0.786507
  C     2.380098  0.391767  0.816202
  N     4.302417 -2.404262  0.945693
  N     4.568961  1.003629  0.576173
  N     2.368709 -3.316070 -0.492381
  N     2.365203  0.356078 -0.506441
  N     1.390771 -3.523415  3.303080
  N     1.958596  0.142194  3.292280
  S     0.720748 -3.729944  1.796298
  S     1.078700 -0.024632  1.916002
  S     3.952669 -2.736849 -0.684167
  S     3.925559  0.847868 -0.940291
  S     2.926815 -3.012248  3.327610
  S     3.520185  0.659023  3.166853
