16  
    
  C     4.242330 -2.409158  1.796621
  C     3.984719  1.249487  1.242840
  C     3.079298 -2.974218  1.220023
  C     2.907133  0.466265  0.702063
  N     5.282120 -2.193148  0.958923
  N     4.993739  1.500807  0.395412
  N     3.133632 -3.042517 -0.126579
  N     3.052943  0.182613 -0.585473
  N     2.634174 -2.820171  3.722966
  N     2.320418  0.969722  3.260582
  S     1.866525 -3.375616  2.341567
  S     1.687532  0.046671  1.956932
  S     4.690685 -2.756213 -0.538121
  S     4.609912  0.702477 -0.996957
  S     4.050303 -1.970002  3.453000
  S     3.772446  1.719238  2.922856
