16  
    
  C     4.629573 -2.082185  1.587325
  C     4.756349  1.525367  1.778522
  C     3.350138 -2.374545  0.988895
  C     3.506550  1.353968  1.081392
  N     5.638697 -1.904062  0.708180
  N     5.818862  1.602555  0.965388
  N     3.421347 -2.615832 -0.343175
  N     3.614642  1.169026 -0.250994
  N     2.903684 -2.243391  3.476457
  N     2.914880  1.377846  3.690539
  S     2.014643 -2.558817  2.074056
  S     2.159039  1.201386  2.239060
  S     5.028393 -2.380923 -0.801368
  S     5.219214  1.341078 -0.555560
  S     4.541954 -2.065852  3.290380
  S     4.556142  1.686800  3.459373
