16  
    
  C     5.708903 -2.060674  1.966098
  C     6.001112  1.756395  2.078568
  C     4.599264 -2.689576  1.360024
  C     4.771285  1.383651  1.437757
  N     6.723078 -1.845234  1.108987
  N     7.040260  1.829316  1.268009
  N     4.760042 -2.929549  0.055098
  N     4.797292  1.227808  0.109038
  N     3.909905 -2.408900  3.819669
  N     4.226477  1.844348  3.914992
  S     3.215146 -3.040036  2.385119
  S     3.400061  1.477605  2.526540
  S     6.228927 -2.350833 -0.372616
  S     6.441428  1.495502 -0.307053
  S     5.497536 -1.860958  3.693286
  S     5.896882  1.944255  3.802426
