16  
    
  C     6.322187 -1.621916  1.822329
  C     6.414522  2.251576  1.970967
  C     5.137241 -2.135991  1.119261
  C     5.269863  1.613127  1.386400
  N     7.353893 -1.503151  1.033036
  N     7.526550  2.337034  1.224699
  N     5.355202 -2.536047 -0.112473
  N     5.456475  1.330247  0.103424
  N     4.549746 -2.161850  3.613632
  N     4.687401  1.859381  3.878974
  S     3.823181 -2.621108  2.203372
  S     3.913735  1.371646  2.466659
  S     6.910820 -1.991018 -0.518740
  S     7.036572  1.816255 -0.300988
  S     6.042554 -1.458384  3.539095
  S     6.229748  2.513347  3.684324
