16  
    
  C     7.868779 -0.957827  1.961476
  C     8.000812  2.949917  2.469331
  C     6.665352 -1.449910  1.320644
  C     6.848249  2.490218  1.725817
  N     8.922371 -0.840422  1.122286
  N     9.065942  3.268673  1.707472
  N     6.794718 -1.640968 -0.009342
  N     7.079854  2.291517  0.421033
  N     6.018749 -0.838441  3.698884
  N     6.229470  2.382541  4.245548
  S     5.375260 -1.669344  2.454018
  S     5.482986  2.305123  2.767395
  S     8.366866 -1.243351 -0.382811
  S     8.648399  2.851290  0.170733
  S     7.665303 -0.550371  3.597019
  S     7.789268  3.055069  4.182650
