16  
    
  C    11.701078  1.091524  2.836320
  C    11.752506  4.828988  3.144235
  C    10.562785  0.445038  2.311455
  C    10.578958  4.339177  2.486905
  N    12.576206  1.453873  1.912813
  N    12.782314  5.184525  2.375181
  N    10.515295  0.293246  1.001617
  N    10.704884  4.213114  1.178266
  N    10.118544  0.882888  4.855393
  N     9.930045  4.670114  4.955366
  S     9.277031  0.228040  3.597979
  S     9.286931  4.067164  3.524910
  S    11.874355  1.088194  0.429564
  S    12.225026  4.786143  0.815816
  S    11.659725  1.312982  4.566067
  S    11.517868  5.304396  4.857224
