16  
    
  C    12.869069  1.518248  3.739749
  C    12.832609  5.519741  3.677607
  C    11.675958  1.226678  3.103815
  C    11.555947  4.958522  3.233756
  N    13.902401  1.688229  2.883817
  N    13.840727  5.466017  2.828117
  N    11.673382  1.146575  1.772942
  N    11.651748  4.624626  1.903407
  N    11.111483  1.609307  5.609435
  N    11.326600  5.549939  5.814134
  S    10.271390  1.272310  4.214287
  S    10.403966  4.960663  4.487670
  S    13.287040  1.477787  1.362162
  S    13.224635  4.928452  1.438112
  S    12.740063  1.962644  5.368264
  S    12.843583  6.096062  5.333562
