16  
    
  C     6.088364 -1.555982  2.450311
  C     6.584096  2.107282  2.214131
  C     5.035903 -2.270281  1.796733
  C     5.350031  1.725545  1.591856
  N     7.065556 -1.143603  1.657043
  N     7.548603  2.432711  1.369330
  N     5.138367 -2.336404  0.489508
  N     5.400770  1.571347  0.269782
  N     4.454211 -2.370727  4.298928
  N     5.033946  1.642919  4.167471
  S     3.769079 -2.724449  2.828632
  S     4.114907  1.393750  2.774690
  S     6.626297 -1.737816  0.152394
  S     7.016088  1.990409 -0.140995
  S     5.915882 -1.476701  4.196355
  S     6.562728  2.258980  3.969929
