16  
    
  C    10.347654  0.112042  2.676524
  C    10.190350  4.139430  3.115185
  C     9.199622 -0.486912  2.113743
  C     8.951154  3.851924  2.468673
  N    11.429292  0.069213  1.904200
  N    11.249482  4.079986  2.338996
  N     9.327459 -0.893395  0.847032
  N     9.090031  3.473482  1.180938
  N     8.506983  0.351068  4.389468
  N     8.734404  4.160171  5.041557
  S     7.781981 -0.416284  3.107249
  S     7.767798  3.960395  3.728844
  S    10.941326 -0.545056  0.419300
  S    10.695239  3.532403  0.878335
  S    10.137242  0.774970  4.289589
  S    10.244063  4.762760  4.756257
