16  
    
  C    11.969130  1.260199  3.330559
  C    11.832853  4.917015  3.662800
  C    10.770736  0.738366  2.568352
  C    10.642700  4.431411  2.965473
  N    12.965131  1.556514  2.523426
  N    12.897078  5.064434  2.898513
  N    11.085527  0.428615  1.309237
  N    10.794571  4.292048  1.641484
  N    10.287180  0.828420  5.112849
  N     9.904225  4.447510  5.483956
  S     9.495470  0.513079  3.704214
  S     9.257867  4.035108  3.994247
  S    12.556677  1.146142  0.991718
  S    12.381051  4.594998  1.323535
  S    11.823590  1.493377  5.087953
  S    11.473430  5.048545  5.384048
