16  
    
  C     6.065155 -1.511911  2.471214
  C     6.585186  2.163382  2.207669
  C     5.071656 -2.314039  1.801294
  C     5.342877  1.736871  1.601713
  N     7.069971 -1.150281  1.641613
  N     7.591415  2.393603  1.390054
  N     5.212633 -2.415568  0.441399
  N     5.381383  1.590016  0.295435
  N     4.488096 -2.402528  4.304733
  N     4.988073  1.657134  4.189344
  S     3.761571 -2.748013  2.841702
  S     4.135887  1.408648  2.760701
  S     6.646012 -1.735922  0.162618
  S     7.014121  1.971419 -0.165685
  S     5.898678 -1.475047  4.156678
  S     6.550350  2.251929  3.953029
