16  
    
  C    10.062391  0.045786  2.691113
  C     9.882785  3.983647  2.745015
  C     8.889333 -0.538699  2.107664
  C     8.914804  3.057217  2.229765
  N    11.035532  0.254577  1.756622
  N    10.870982  4.336009  1.923887
  N     8.949759 -0.676092  0.759415
  N     9.272025  2.660217  1.014513
  N     8.325046 -0.416479  4.563433
  N     8.228823  3.488156  4.703381
  S     7.547671 -0.802882  3.127860
  S     7.812076  2.478493  3.429432
  S    10.434673 -0.222516  0.291608
  S    10.652110  3.337318  0.573599
  S     9.826030  0.164634  4.383269
  S     9.477310  4.551514  4.303859
