16  
    
  C    11.619590  1.164037  2.920575
  C    11.782567  5.136176  3.078666
  C    10.374265  0.812514  2.394044
  C    10.676897  4.435037  2.562963
  N    12.623893  1.357361  2.072992
  N    12.797438  5.194460  2.234242
  N    10.434225  0.556688  1.067261
  N    10.827225  4.004751  1.306040
  N    10.102903  0.622673  4.949939
  N    10.251635  4.788620  5.071603
  S     9.171039  0.363574  3.622680
  S     9.462642  4.175808  3.713393
  S    11.991481  0.869813  0.599034
  S    12.333296  4.436637  0.851538
  S    11.613706  1.232038  4.639433
  S    11.712939  5.536444  4.793125
