16  
    
  C     4.639741 -2.412775  1.558297
  C     5.138851  1.592797  1.832310
  C     3.539154 -3.010600  0.866888
  C     3.817838  1.462808  1.320559
  N     5.649955 -2.057777  0.741769
  N     6.165736  1.529077  0.997015
  N     3.690625 -3.052226 -0.446292
  N     3.843813  1.178111 -0.002451
  N     2.860435 -3.071854  3.369832
  N     3.655011  1.537201  3.892901
  S     2.219100 -3.471129  1.880288
  S     2.657744  1.392332  2.577889
  S     5.109405 -2.280008 -0.824059
  S     5.414015  1.280071 -0.439552
  S     4.394539 -2.320190  3.307623
  S     5.274835  1.763175  3.535123
