16  
    
  C    10.297300  0.241830  2.544571
  C    10.381379  4.257695  3.056192
  C     9.139974 -0.250416  1.915235
  C     9.126247  3.810398  2.552117
  N    11.433631  0.184323  1.866940
  N    11.426575  4.069720  2.259185
  N     9.377028 -0.702136  0.683988
  N     9.157979  3.431138  1.264367
  N     8.414913  0.541982  4.291210
  N     8.659818  4.269199  5.080216
  S     7.828159 -0.384608  3.092511
  S     7.731979  3.958354  3.704927
  S    10.991522 -0.541675  0.477570
  S    10.782942  3.593925  0.802795
  S    10.054202  0.830844  4.175882
  S    10.254839  4.710891  4.710775
