16  
    
  C     4.520108 -2.530747  1.501056
  C     5.231673  1.502346  1.701808
  C     3.253019 -2.743445  0.843209
  C     3.977863  1.087409  1.177959
  N     5.591594 -2.402444  0.684068
  N     6.221511  1.627619  0.832702
  N     3.342364 -2.776009 -0.493053
  N     3.981421  0.983659 -0.165165
  N     2.747102 -2.763932  3.333053
  N     3.635517  1.394960  3.682835
  S     1.955760 -3.176314  1.942242
  S     2.682640  1.195129  2.361012
  S     4.951861 -2.425363 -0.888159
  S     5.489526  1.452576 -0.615646
  S     4.400641 -2.694104  3.249630
  S     5.232043  1.694790  3.381092
