16  
    
  C    12.055761  1.363660  3.438840
  C    12.192065  5.229455  3.116652
  C    10.845210  0.878349  2.717659
  C    10.966761  4.773969  2.562123
  N    13.125540  1.472763  2.672866
  N    13.229036  5.015429  2.389761
  N    11.094943  0.494260  1.464439
  N    11.103424  4.353449  1.302357
  N    10.168830  1.280439  5.173635
  N    10.500895  5.330926  5.065162
  S     9.409787  0.705350  3.815901
  S     9.642595  4.867151  3.705474
  S    12.715243  0.734149  1.190315
  S    12.689191  4.428880  0.929715
  S    11.780238  1.608198  5.131372
  S    12.145578  5.635515  4.839921
