16  
    
  C     4.081448 -2.874140  1.582970
  C     4.191958  1.255871  1.562716
  C     2.854695 -3.218027  0.915200
  C     2.872632  1.081887  0.996943
  N     5.172064 -2.888390  0.852605
  N     5.214528  1.293267  0.718347
  N     2.976221 -3.447644 -0.373131
  N     2.928625  0.931192 -0.311590
  N     2.181297 -2.626703  3.361792
  N     2.498478  1.312536  3.503448
  S     1.520444 -3.370419  2.025498
  S     1.599197  1.053970  2.096991
  S     4.659133 -3.271636 -0.706713
  S     4.457354  1.054121 -0.789973
  S     3.834662 -2.307138  3.217041
  S     4.123621  1.670788  3.248386
