16  
    
  C     6.965874 -1.934819  1.651251
  C     6.669957  2.160006  1.990008
  C     5.682495 -2.275397  1.086454
  C     5.508224  1.507986  1.352468
  N     7.909268 -1.609781  0.764531
  N     7.558535  2.624466  1.136963
  N     5.709008 -2.273169 -0.249225
  N     5.632217  1.354900  0.030425
  N     5.236767 -1.981117  3.597167
  N     5.105659  1.640594  3.931965
  S     4.416002 -2.434540  2.233603
  S     4.310717  1.068992  2.560099
  S     7.219559 -1.883946 -0.732985
  S     7.086217  2.081188 -0.425335
  S     6.891453 -1.690064  3.431054
  S     6.593075  2.326993  3.729230
