16  
    
  C     8.738203 -0.985150  2.390054
  C     8.367066  3.273564  2.417461
  C     7.558565 -1.347303  1.665676
  C     7.248609  2.572240  1.783710
  N     9.805963 -0.808424  1.588299
  N     9.337853  3.498627  1.545352
  N     7.700106 -1.597713  0.341326
  N     7.380559  2.352605  0.480703
  N     7.032963 -1.299108  4.201150
  N     6.824317  2.823005  4.301968
  S     6.249995 -1.683399  2.717112
  S     6.047636  2.212563  2.940456
  S     9.285633 -1.215028  0.067075
  S     8.855640  3.011679 -0.009126
  S     8.599807 -0.724642  4.082289
  S     8.308774  3.578458  4.132487
