16  
    
  C    12.918493  1.495152  3.731994
  C    12.815312  5.524718  3.702677
  C    11.602238  1.235500  3.096834
  C    11.612564  5.004854  3.195700
  N    13.904549  1.674478  2.900261
  N    13.815063  5.480006  2.832599
  N    11.736577  1.117497  1.786130
  N    11.668723  4.631106  1.958813
  N    11.056670  1.630429  5.579855
  N    11.306539  5.540463  5.825874
  S    10.235714  1.266777  4.177682
  S    10.404991  4.913503  4.488965
  S    13.278401  1.439671  1.368496
  S    13.226793  4.924329  1.431168
  S    12.709409  1.975552  5.361351
  S    12.826887  6.094633  5.341204
