16  
    
  C    11.962461  1.636758  3.512204
  C    12.016516  5.018085  3.797410
  C    10.980168  0.817936  2.893872
  C    10.749439  4.623580  3.232760
  N    12.881352  2.112141  2.697050
  N    12.914648  5.394589  2.869784
  N    11.095402  0.720642  1.565805
  N    10.745301  4.557046  1.910237
  N    10.408012  0.804959  5.429197
  N    10.560791  4.417907  5.773707
  S     9.670722  0.231846  4.027679
  S     9.665473  4.057113  4.417714
  S    12.506385  1.487942  1.192953
  S    12.143273  5.157000  1.408786
  S    11.890110  1.609134  5.251225
  S    12.119036  4.985500  5.577312
