16  
    
  C    12.868649  1.697772  3.712926
  C    12.947049  5.469580  3.699848
  C    11.665639  1.360247  3.075178
  C    11.635622  5.011843  3.250132
  N    13.900233  1.772347  2.843414
  N    13.886600  5.529086  2.780296
  N    11.686550  1.183941  1.743637
  N    11.672831  4.646395  1.956501
  N    11.214221  1.549930  5.629597
  N    11.320017  5.561537  5.652906
  S    10.365377  1.259195  4.255175
  S    10.379419  5.032984  4.429010
  S    13.244491  1.490908  1.321890
  S    13.188310  4.921889  1.383622
  S    12.834031  1.915945  5.473899
  S    12.859116  6.023543  5.351076
