16  
    
  C     9.900768 -0.124990  2.787557
  C     9.727487  3.907003  2.807215
  C     8.745568 -0.667129  2.032704
  C     8.559122  3.413943  2.062566
  N    10.973173  0.083075  2.066476
  N    10.773414  4.035456  1.997433
  N     8.927205 -0.779762  0.750403
  N     8.677199  3.186211  0.763633
  N     7.949818 -0.312084  4.492907
  N     7.832822  3.597269  4.522550
  S     7.402293 -0.917473  3.026360
  S     7.180536  3.181570  3.046256
  S    10.513013 -0.335689  0.493775
  S    10.284236  3.678658  0.469806
  S     9.535857  0.026038  4.502455
  S     9.383032  4.173977  4.543771
