16  
    
  C    11.073070  0.594125  2.850875
  C    11.057376  4.253043  3.316618
  C     9.817812 -0.016958  2.373360
  C     9.874275  3.824611  2.613779
  N    11.962421  0.914616  1.940721
  N    12.061924  4.422596  2.455615
  N     9.868206 -0.390885  1.112342
  N     9.923844  3.812789  1.278072
  N     9.428265  0.536623  4.866344
  N     9.247914  4.288866  5.152476
  S     8.603846 -0.152511  3.617860
  S     8.490326  3.758265  3.752027
  S    11.322849  0.256991  0.533516
  S    11.547444  4.199208  0.925437
  S    10.953786  1.067981  4.481934
  S    10.891036  4.437111  5.045284
