16  
    
  C     9.764204 -0.184500  2.512230
  C     9.854584  3.578192  2.553481
  C     8.518255 -0.610950  2.028645
  C     8.591847  3.122213  1.968098
  N    10.676247  0.076593  1.529840
  N    10.760528  3.913127  1.648357
  N     8.447704 -0.673783  0.676997
  N     8.547837  3.136596  0.638112
  N     8.274766 -0.662920  4.551800
  N     8.218647  2.979743  4.504542
  S     7.295020 -0.981924  3.198487
  S     7.363953  2.692110  3.118204
  S     9.917891 -0.279844  0.086264
  S    10.025672  3.693056  0.174951
  S     9.816780 -0.103528  4.264016
  S     9.660719  3.644994  4.213231
