16  
    
  C    12.078324  1.113830  3.421017
  C    12.281132  5.173422  3.166743
  C    10.898780  0.757360  2.714183
  C    10.966818  4.708348  2.715155
  N    13.183013  1.088434  2.687104
  N    13.295371  5.100567  2.341971
  N    10.995757  0.561018  1.424404
  N    11.102972  4.340960  1.441270
  N    10.202960  1.439033  5.106169
  N    10.523219  5.303267  5.161279
  S     9.552888  0.764761  3.757911
  S     9.628920  4.895815  3.795182
  S    12.608536  0.805405  1.128149
  S    12.626065  4.506255  0.912746
  S    11.821551  1.707742  5.083561
  S    12.161120  5.524119  4.871592
