16  
    
  C    11.005664  0.564016  3.185768
  C    11.060606  4.309195  3.406299
  C     9.848387 -0.017907  2.529041
  C     9.867873  3.757398  2.811989
  N    11.988013  1.003553  2.407689
  N    12.024240  4.550492  2.503296
  N     9.949800 -0.046610  1.205483
  N     9.857027  3.729555  1.484141
  N     9.143378  0.135361  4.935607
  N     9.301272  4.030966  5.298718
  S     8.429944 -0.136920  3.453645
  S     8.559932  3.499170  3.893838
  S    11.427059  0.678420  0.837196
  S    11.399258  4.231406  1.041241
  S    10.726470  0.629388  4.886830
  S    10.845616  4.592902  5.128031
