16  
    
  C     7.202851 -1.354385  2.251476
  C     7.220735  2.222295  2.051215
  C     6.032338 -1.979994  1.675700
  C     5.998444  1.739459  1.485179
  N     8.234344 -1.256901  1.368117
  N     8.211230  2.356014  1.198913
  N     6.100529 -2.145460  0.337744
  N     6.130560  1.463234  0.192326
  N     5.355498 -1.201746  4.050465
  N     5.494443  2.015966  4.034934
  S     4.662313 -2.029763  2.764476
  S     4.657686  1.594554  2.662448
  S     7.645860 -1.697021 -0.149189
  S     7.641740  1.809933 -0.265200
  S     7.008766 -1.050901  3.970169
  S     7.107883  2.461991  3.749559
