16  
    
  C    11.333774  0.895307  2.999964
  C    11.231118  4.727014  3.411525
  C    10.168953  0.291679  2.326700
  C    10.141902  3.945533  2.881760
  N    12.405466  0.996986  2.276855
  N    12.222571  4.866114  2.546917
  N    10.343426  0.115102  1.037930
  N    10.332165  3.513736  1.608403
  N     9.580484  0.791355  4.833818
  N     9.445489  4.549762  5.364994
  S     8.914187  0.052666  3.511303
  S     8.749454  3.831410  4.012812
  S    12.003135  0.505043  0.767587
  S    11.777458  4.230195  1.126835
  S    11.174425  1.275774  4.699476
  S    10.973203  5.125600  5.081172
