16  
    
  C     8.428353 -0.900696  2.493158
  C     8.316060  2.264951  2.142409
  C     7.200609 -1.192541  1.807658
  C     7.167667  1.842642  1.320055
  N     9.489355 -0.887953  1.656509
  N     9.371615  2.568178  1.384499
  N     7.302780 -1.368407  0.478723
  N     7.361858  1.805309 -0.015924
  N     6.499229 -0.692262  4.201054
  N     6.244359  2.199302  3.640013
  S     5.793840 -0.993763  2.748441
  S     5.694240  1.671812  2.219483
  S     8.905225 -1.201639  0.129610
  S     8.984136  2.294905 -0.183587
  S     8.196829 -0.621796  4.180532
  S     7.857706  2.533019  3.866048
