16  
    
  C     8.839030 -0.901006  2.380090
  C     8.530036  3.216544  2.481266
  C     7.628182 -1.321542  1.732207
  C     7.341732  2.600206  1.877729
  N     9.935195 -0.886901  1.543436
  N     9.478726  3.553550  1.563824
  N     7.749948 -1.391845  0.385723
  N     7.373069  2.472915  0.541040
  N     6.884957 -1.029275  4.151358
  N     6.771333  2.818171  4.401030
  S     6.203614 -1.550647  2.755314
  S     6.099713  2.213703  3.005680
  S     9.361173 -1.186718 -0.010178
  S     8.850097  3.031619  0.128986
  S     8.525167 -0.690461  4.097935
  S     8.269725  3.548668  4.161257
