16  
    
  C    12.471725  1.668864  3.391367
  C    12.803059  5.506078  3.672608
  C    11.323920  0.917227  2.802090
  C    11.747263  5.032278  2.863563
  N    13.497558  1.794084  2.575341
  N    13.924746  5.759998  2.980047
  N    11.534705  0.691964  1.484768
  N    12.011353  4.971065  1.589068
  N    10.865555  1.274226  5.291873
  N    10.923517  5.128821  5.290843
  S    10.205841  0.505721  3.979059
  S    10.338915  4.533444  3.887488
  S    13.064789  1.211783  1.106926
  S    13.632986  5.380165  1.441029
  S    12.405909  1.845118  5.141831
  S    12.453053  5.651108  5.343897
