16  
    
  C     5.075524 -2.399562  1.585052
  C     4.903007  1.544159  2.043199
  C     3.880700 -2.967287  1.070931
  C     3.750181  1.036200  1.367016
  N     6.112038 -2.292420  0.742630
  N     5.981473  1.753183  1.276977
  N     4.010766 -3.408565 -0.212173
  N     3.998340  0.707894  0.113233
  N     3.292769 -2.461010  3.511193
  N     3.093188  1.286384  3.821557
  S     2.506928 -2.875996  2.083871
  S     2.383541  0.724588  2.383123
  S     5.540573 -2.975349 -0.701956
  S     5.524496  1.194537 -0.203305
  S     4.863082 -1.903704  3.234986
  S     4.662249  1.903458  3.746004
