16  
    
  C    11.314177  0.871271  3.279007
  C    11.600038  4.707196  3.019878
  C    10.049564  0.572145  2.682663
  C    10.440460  4.195684  2.354349
  N    12.299573  1.026627  2.406489
  N    12.590057  4.920589  2.182271
  N    10.073670  0.427221  1.372759
  N    10.539369  3.955594  1.080898
  N     9.663352  0.686043  5.284144
  N     9.835304  4.376400  4.803535
  S     8.802249  0.379528  3.893736
  S     9.076312  3.906424  3.400797
  S    11.657185  0.652910  0.876764
  S    12.045396  4.449979  0.657486
  S    11.209220  1.300690  5.023014
  S    11.410477  4.885424  4.703349
