16  
    
  C     8.973280 -0.345354  2.356297
  C     9.477063  3.344598  2.704834
  C     7.825115 -0.871108  1.721461
  C     8.171089  3.002583  2.141151
  N    10.064814 -0.230785  1.578917
  N    10.544517  3.184286  1.901276
  N     8.068767 -1.294061  0.452358
  N     8.310590  2.708350  0.838566
  N     7.163489 -0.350796  4.122521
  N     7.771504  3.289396  4.644402
  S     6.465647 -1.086052  2.835722
  S     6.862234  2.932990  3.292609
  S     9.631590 -0.905336  0.147935
  S     9.893377  2.804306  0.432917
  S     8.733075  0.147783  3.959961
  S     9.381610  3.678741  4.409273
