16  
    
  C     9.734883 -0.613398  2.710883
  C     9.659664  3.232357  2.605631
  C     8.482940 -1.021958  2.111602
  C     8.363668  3.111892  1.941344
  N    10.747761 -0.553299  1.903055
  N    10.702703  3.399385  1.759754
  N     8.515824 -1.048456  0.807584
  N     8.458128  3.063245  0.628412
  N     7.927078 -0.542859  4.573623
  N     7.729519  2.927467  4.426618
  S     7.077148 -0.954103  3.200094
  S     6.969949  3.021159  2.973420
  S    10.105179 -0.741663  0.372084
  S    10.004068  3.319148  0.246025
  S     9.578911 -0.394932  4.438659
  S     9.378252  3.258044  4.321298
