16  
    
  C     4.346525 -2.514621  1.739234
  C     4.078696  1.103413  1.554091
  C     3.238247 -3.221922  1.175586
  C     2.860810  0.621565  0.952197
  N     5.210667 -2.098863  0.834664
  N     5.038853  1.405974  0.712398
  N     3.322801 -3.531562 -0.091622
  N     2.993358  0.318367 -0.349022
  N     2.600927 -2.833973  3.591009
  N     2.346880  1.178873  3.470932
  S     1.867112 -3.395674  2.186426
  S     1.511167  0.656870  2.102788
  S     4.731918 -2.825050 -0.635951
  S     4.498634  0.864013 -0.785981
  S     4.151203 -2.190659  3.416820
  S     3.941740  1.569608  3.272255
