16  
    
  C    10.052517 -0.069223  2.910009
  C    10.256191  3.592251  3.120832
  C     8.879269 -0.392300  2.135163
  C     9.040776  3.894242  2.410193
  N    11.096254  0.148023  2.165980
  N    11.344692  3.549148  2.345597
  N     9.029170 -0.310216  0.833760
  N     9.128311  3.892283  1.086088
  N     8.156718 -0.483558  4.607743
  N     8.509736  3.589044  4.925580
  S     7.439011 -0.740040  3.111778
  S     7.730893  3.962839  3.512896
  S    10.637847 -0.030091  0.583251
  S    10.832857  3.746128  0.787831
  S     9.834039 -0.368253  4.724515
  S    10.168598  3.548040  4.899300
