16  
    
  C     7.138545 -1.643105  1.994105
  C     7.061288  2.077053  1.984170
  C     5.958021 -2.010564  1.225781
  C     5.833141  1.725982  1.314324
  N     8.196636 -1.370189  1.222587
  N     8.077209  2.338494  1.170107
  N     6.152811 -2.182362 -0.110969
  N     5.937857  1.645106  0.005230
  N     5.232079 -1.770665  3.715527
  N     5.219000  1.750823  3.817578
  S     4.544757 -2.134274  2.278165
  S     4.474612  1.510553  2.367854
  S     7.771347 -1.826766 -0.333916
  S     7.546025  1.980277 -0.391081
  S     6.864339 -1.332618  3.646541
  S     6.837522  2.161038  3.748823
