16  
    
  C     4.058191 -2.692453  1.555263
  C     4.236393  1.447606  1.557892
  C     2.857572 -3.142202  0.921382
  C     2.900453  1.179088  1.014497
  N     5.156886 -2.806032  0.856199
  N     5.242371  1.292374  0.688030
  N     3.050274 -3.515471 -0.335872
  N     2.912554  0.959746 -0.291186
  N     2.330213 -2.609912  3.370757
  N     2.499911  1.375826  3.524832
  S     1.538333 -3.263053  2.068091
  S     1.597925  1.303557  2.164474
  S     4.651580 -3.278324 -0.649818
  S     4.513174  1.065796 -0.776163
  S     3.967224 -2.318558  3.214091
  S     4.152799  1.644415  3.316838
