16  
    
  C     5.426164 -2.111067  1.879819
  C     5.293822  1.575056  1.697412
  C     4.261561 -2.621744  1.239145
  C     4.231803  0.997339  0.940699
  N     6.524847 -1.964184  1.123773
  N     6.286820  2.102934  0.980956
  N     4.414697 -2.735570 -0.084181
  N     4.405443  0.974304 -0.367865
  N     3.677271 -2.621041  3.695835
  N     3.461835  0.884646  3.366709
  S     2.942997 -3.012950  2.259060
  S     2.900750  0.337648  1.923789
  S     5.967873 -2.224546 -0.422644
  S     5.835765  1.842368 -0.638655
  S     5.210881 -2.080122  3.623817
  S     4.974623  1.573274  3.399731
