16  
    
  C    11.626717  1.063816  3.253773
  C    12.049898  4.939772  3.267611
  C    10.358815  0.651526  2.558338
  C    10.841455  4.323158  2.759080
  N    12.660129  1.173986  2.472279
  N    12.930105  5.104546  2.275784
  N    10.598708  0.335533  1.287919
  N    10.857995  4.032563  1.473690
  N     9.883021  1.197587  5.031115
  N    10.226075  5.232010  5.063282
  S     9.119436  0.508408  3.722740
  S     9.494212  4.293537  3.871380
  S    12.181062  0.759742  0.938030
  S    12.324959  4.497322  0.908229
  S    11.547982  1.270874  5.032232
  S    11.862565  5.575007  4.819284
