16  
    
  C     5.685066 -2.073155  2.050853
  C     5.927057  1.533563  1.973124
  C     4.533997 -2.715345  1.489050
  C     4.725908  1.105202  1.289839
  N     6.718409 -1.850590  1.235523
  N     6.950132  1.942601  1.217557
  N     4.664094 -2.906053  0.193297
  N     4.869403  1.109092 -0.033588
  N     3.942714 -2.300698  3.890145
  N     4.144419  0.984271  3.795110
  S     3.214196 -2.958991  2.563655
  S     3.399708  0.654635  2.353761
  S     6.245118 -2.475495 -0.222203
  S     6.455884  1.609776 -0.365151
  S     5.481901 -1.841443  3.783821
  S     5.684887  1.633530  3.695861
