16  
    
  C     7.130234 -1.631818  1.961679
  C     7.062120  2.067900  1.998555
  C     5.966111 -2.066440  1.207889
  C     5.803644  1.748216  1.306641
  N     8.210381 -1.403025  1.204366
  N     8.054269  2.345263  1.189923
  N     6.171793 -2.195779 -0.136953
  N     5.900784  1.625198 -0.002039
  N     5.239977 -1.785233  3.714574
  N     5.215287  1.714462  3.827468
  S     4.543918 -2.142342  2.269103
  S     4.474931  1.497652  2.356908
  S     7.770398 -1.847059 -0.377622
  S     7.523763  1.980864 -0.423362
  S     6.872599 -1.305142  3.635490
  S     6.866248  2.148040  3.748079
