16  
    
  C    11.560816  1.232223  3.029514
  C    11.423362  4.888949  3.113419
  C    10.465402  0.347972  2.563088
  C    10.310490  4.341965  2.349284
  N    12.358183  1.715077  2.071510
  N    12.398589  5.244189  2.291091
  N    10.511011  0.209325  1.253040
  N    10.495196  4.193895  1.014231
  N     9.960754  0.780936  5.086526
  N     9.553519  4.518250  4.820041
  S     9.193319  0.091939  3.809970
  S     8.959520  3.890834  3.350265
  S    11.765834  1.154940  0.614584
  S    11.997037  4.895498  0.779056
  S    11.428729  1.479431  4.815019
  S    11.103379  5.120436  4.750501
