16  
    
  C    12.059477  1.275577  3.378800
  C    12.205161  5.136532  3.138560
  C    10.883310  0.859577  2.757895
  C    10.925181  4.789614  2.559721
  N    13.181245  1.224466  2.656985
  N    13.216248  5.116150  2.349142
  N    11.055573  0.521868  1.507997
  N    11.011706  4.327223  1.307814
  N    10.132470  1.394818  5.190441
  N    10.566079  5.295639  5.066158
  S     9.446624  0.721952  3.804088
  S     9.642459  4.899657  3.757157
  S    12.681093  0.769615  1.153306
  S    12.695938  4.439009  0.953056
  S    11.799871  1.636772  5.077907
  S    12.161347  5.566956  4.805873
