16  
    
  C    11.025572  0.497181  3.008208
  C    10.903300  4.355928  2.835537
  C     9.757610  0.162267  2.419219
  C     9.829331  3.571512  2.251797
  N    12.082026  0.665541  2.177039
  N    11.967096  4.654427  2.127667
  N     9.850876 -0.122905  1.103159
  N    10.144920  3.238526  1.001750
  N     9.303175  0.482146  4.931992
  N     9.019148  4.139559  4.591675
  S     8.467601 -0.102582  3.598040
  S     8.407244  3.503083  3.202741
  S    11.464655  0.186070  0.693294
  S    11.637250  3.904823  0.631231
  S    10.900226  0.827619  4.707199
  S    10.611672  4.660859  4.526612
