16  
    
  C     8.726028 -0.161992  2.491190
  C     8.528042  3.146653  2.552703
  C     7.563436 -0.687073  1.795836
  C     7.414260  2.658869  1.848502
  N     9.702295  0.169881  1.696384
  N     9.607438  3.274103  1.820349
  N     7.707554 -0.809976  0.477165
  N     7.602750  2.426189  0.560106
  N     7.021934 -0.778320  4.444522
  N     6.727583  2.877452  4.365012
  S     6.252617 -0.960403  2.995099
  S     6.022352  2.411403  2.917196
  S     9.241297 -0.236790  0.131161
  S     9.202250  2.820465  0.241977
  S     8.595290 -0.102738  4.286526
  S     8.347317  3.271784  4.265182
