16  
    
  C     4.643067 -2.098475  1.589035
  C     4.490122  1.568184  1.517537
  C     3.341394 -2.088501  1.016448
  C     3.296710  1.118369  0.821674
  N     5.628041 -2.272762  0.686595
  N     5.470757  1.866638  0.683082
  N     3.259647 -2.257210 -0.319967
  N     3.434900  0.902638 -0.509781
  N     3.002399 -1.854841  3.548378
  N     2.793239  1.135461  3.396518
  S     2.103094 -2.156481  2.216793
  S     2.002065  0.641110  1.960124
  S     4.865062 -2.307754 -0.805450
  S     5.009262  1.476531 -0.873428
  S     4.667723 -1.813766  3.297744
  S     4.396488  1.658197  3.246552
