16  
    
  C     9.945438 -0.051067  2.973628
  C    10.248525  3.491011  2.893221
  C     8.810294 -0.593213  2.276753
  C     8.912618  3.629538  2.371145
  N    11.025710  0.123069  2.223308
  N    11.196473  3.502243  1.955608
  N     8.950408 -0.680091  0.980879
  N     8.856328  3.728117  1.044388
  N     8.048312 -0.657629  4.662033
  N     8.549009  3.356257  4.844345
  S     7.411830 -0.990629  3.183160
  S     7.616021  3.587037  3.560939
  S    10.507344 -0.215025  0.636634
  S    10.399727  3.640992  0.504776
  S     9.669255 -0.205671  4.723480
  S    10.164538  3.450228  4.603388
