16  
    
  C     8.943876 -0.345773  2.585389
  C     8.886720  3.343548  2.638597
  C     7.755535 -0.806720  1.895113
  C     7.643016  2.948033  2.025000
  N     9.920751 -0.115791  1.748968
  N     9.832483  3.697155  1.777087
  N     7.808302 -0.832195  0.593009
  N     7.612040  2.898765  0.692274
  N     7.252817 -0.613365  4.463420
  N     7.237749  3.040715  4.639138
  S     6.426467 -1.042155  3.031750
  S     6.398172  2.755328  3.230165
  S     9.388818 -0.368107  0.200972
  S     9.177800  3.430872  0.295074
  S     8.931825 -0.300784  4.292806
  S     8.837092  3.443330  4.385487
