16  
    
  C    10.067995  0.003510  2.678249
  C     9.872257  3.952254  2.741585
  C     8.874270 -0.507787  2.065297
  C     8.967790  3.007087  2.224424
  N    11.012229  0.260390  1.790100
  N    10.870392  4.279448  1.919395
  N     8.924001 -0.676938  0.765944
  N     9.261063  2.611458  0.990175
  N     8.341344 -0.431982  4.584984
  N     8.286206  3.467808  4.728013
  S     7.555148 -0.774241  3.140277
  S     7.811905  2.468948  3.451401
  S    10.433124 -0.227575  0.298759
  S    10.645871  3.364908  0.568685
  S     9.835305  0.159268  4.372328
  S     9.495506  4.565794  4.292375
