16  
    
  C     4.635296 -2.239319  1.611940
  C     4.887022  1.449458  1.868389
  C     3.428902 -2.581170  0.897288
  C     3.591877  1.417746  1.232523
  N     5.696760 -2.092697  0.849092
  N     5.896704  1.378765  1.015755
  N     3.555511 -2.700733 -0.403816
  N     3.615789  1.179197 -0.087635
  N     2.826396 -2.335568  3.426754
  N     3.095479  1.153386  3.753364
  S     2.121117 -2.918114  2.000824
  S     2.260725  1.359079  2.294804
  S     5.158887 -2.237017 -0.738687
  S     5.180825  1.252824 -0.485923
  S     4.448257 -1.968345  3.300241
  S     4.769938  1.675275  3.631473
