16  
    
  C     8.631013 -1.087738  2.374307
  C     8.351667  2.983536  2.114003
  C     7.484094 -1.639064  1.747609
  C     7.147928  2.412386  1.567913
  N     9.585286 -0.693849  1.519483
  N     9.345572  3.169207  1.242554
  N     7.554857 -1.789114  0.410035
  N     7.231117  2.203381  0.243409
  N     6.920495 -1.326003  4.194943
  N     6.619542  2.738562  4.064415
  S     6.207455 -1.914531  2.784928
  S     5.846679  2.158924  2.653005
  S     8.995649 -1.135284  0.040224
  S     8.724644  2.754542 -0.260850
  S     8.501598 -0.915826  4.088373
  S     8.201692  3.254003  3.846378
