16  
    
  C     6.345812 -1.729230  1.645686
  C     6.419242  2.173115  1.984738
  C     5.190911 -2.299329  1.000554
  C     5.339284  1.457594  1.388116
  N     7.308275 -1.335228  0.865975
  N     7.461195  2.371212  1.176989
  N     5.410491 -2.536020 -0.269723
  N     5.406726  1.217048  0.077698
  N     4.514679 -1.828425  3.435518
  N     4.544434  1.999335  3.774902
  S     3.820628 -2.516062  2.074788
  S     3.953597  1.259733  2.403914
  S     6.922786 -1.926564 -0.648273
  S     6.968546  1.775183 -0.353351
  S     6.100212 -1.421110  3.364032
  S     6.111708  2.588419  3.611133
