16  
    
  C    12.881195  1.630679  3.315230
  C    12.471716  5.075192  3.364333
  C    11.566498  1.074427  2.802958
  C    11.278004  4.706887  2.631351
  N    13.837762  1.670214  2.416657
  N    13.472988  5.395548  2.549147
  N    11.603995  0.859792  1.503473
  N    11.349269  4.627939  1.337705
  N    11.332465  1.336047  5.316521
  N    10.511713  4.926922  5.126424
  S    10.393608  1.072777  3.993396
  S     9.885587  4.438176  3.651105
  S    13.139570  1.317538  0.977457
  S    12.860899  5.056568  0.978482
  S    12.810356  2.004439  5.056893
  S    12.201017  5.188210  5.074327
