16  
    
  C    11.986718  1.324391  3.324419
  C    11.768805  4.952829  3.663280
  C    10.890009  0.771469  2.660687
  C    10.621312  4.391218  3.033423
  N    13.024079  1.592871  2.542455
  N    12.867691  5.116421  2.862915
  N    11.036179  0.534748  1.340406
  N    10.812116  4.287177  1.730518
  N    10.302402  0.730097  5.177398
  N     9.959845  4.424544  5.491678
  S     9.529518  0.475670  3.721165
  S     9.276565  3.986288  4.042503
  S    12.524571  1.178498  0.992246
  S    12.345159  4.599242  1.369161
  S    11.819649  1.452867  5.073674
  S    11.487856  5.026775  5.398325
