16  
    
  C    10.982787  0.741618  3.304641
  C    11.293693  4.219140  3.235079
  C     9.837885  0.207699  2.552162
  C    10.022719  3.817010  2.650339
  N    12.054472  0.824706  2.552370
  N    12.170786  4.445633  2.263595
  N     9.990015  0.128994  1.254513
  N     9.943785  3.773886  1.304371
  N     9.228990 -0.039098  5.051933
  N     9.575667  3.776767  5.179706
  S     8.547848 -0.314259  3.523859
  S     8.710212  3.483214  3.791921
  S    11.596571  0.543967  0.952595
  S    11.488431  4.144242  0.806039
  S    10.745185  0.657251  5.065116
  S    11.143577  4.309545  4.978048
