16  
    
  C    10.000055 -0.195015  2.882605
  C    10.058581  3.793389  2.685945
  C     8.765218 -0.531478  2.183291
  C     8.808588  3.196041  2.201563
  N    11.024687 -0.032796  2.043489
  N    10.996054  4.002507  1.764951
  N     8.849056 -0.677297  0.857403
  N     8.856696  2.860715  0.911270
  N     8.189693 -0.442727  4.670230
  N     8.565588  3.557274  4.803977
  S     7.394505 -0.795887  3.233320
  S     7.695525  2.867628  3.515152
  S    10.454993 -0.290574  0.467049
  S    10.401509  3.426347  0.376948
  S     9.878887 -0.180692  4.647681
  S    10.163119  3.991550  4.421933
