16  
    
  C     4.719517 -2.285319  1.626803
  C     4.920880  1.339514  1.870031
  C     3.577964 -2.852426  0.934101
  C     3.594960  1.237131  1.286881
  N     5.757622 -1.949025  0.851071
  N     5.959744  1.437898  1.023193
  N     3.661551 -2.799562 -0.393025
  N     3.674853  1.202955 -0.045748
  N     2.847350 -2.668925  3.404989
  N     3.256743  1.572839  3.887637
  S     2.203530 -3.164210  1.911202
  S     2.325733  1.414245  2.514266
  S     5.221148 -2.306183 -0.742683
  S     5.292131  1.260965 -0.479326
  S     4.350464 -1.958234  3.293442
  S     4.955198  1.489839  3.618963
