16  
    
  C     5.655231 -2.053312  1.745586
  C     5.208731  1.415092  1.702225
  C     4.442462 -2.480092  1.160398
  C     4.069144  0.770883  1.151468
  N     6.615247 -1.834466  0.861894
  N     6.084019  1.937725  0.843769
  N     4.526303 -2.773878 -0.149990
  N     4.145126  0.610549 -0.165107
  N     4.042751 -2.381382  3.776645
  N     3.576957  1.062858  3.655681
  S     3.179229 -2.706375  2.333995
  S     2.745342  0.580784  2.300450
  S     6.070528 -2.410039 -0.572976
  S     5.547669  1.400009 -0.629100
  S     5.586840 -1.814182  3.432956
  S     5.165762  1.488336  3.405402
