16  
    
  C     8.951386 -0.260039  2.541874
  C     8.594274  3.443761  2.557387
  C     7.730615 -0.679792  1.898710
  C     7.368718  2.926859  1.933524
  N     9.963963 -0.064787  1.695694
  N     9.529148  3.751203  1.662208
  N     7.809197 -0.757425  0.588469
  N     7.427595  2.789347  0.622286
  N     7.144355 -0.573459  4.486862
  N     7.082334  2.749261  4.536752
  S     6.410645 -0.959394  2.995468
  S     6.266000  2.485056  3.107500
  S     9.392710 -0.377358  0.148783
  S     8.891936  3.451817  0.180002
  S     8.805937 -0.241533  4.372774
  S     8.652036  3.269128  4.321802
