16  
    
  C     9.701461  0.136323  2.814142
  C     9.771817  3.539651  2.642634
  C     8.530736 -0.425431  2.166400
  C     8.589765  3.068139  2.008202
  N    10.645670  0.489646  1.923858
  N    10.739338  3.951511  1.849374
  N     8.599529 -0.466356  0.794003
  N     8.631235  3.061584  0.694878
  N     8.243614 -0.734093  4.706212
  N     8.146987  3.243692  4.625012
  S     7.366579 -1.031534  3.299588
  S     7.371594  2.852307  3.238028
  S    10.074440  0.170269  0.404278
  S    10.162128  3.669377  0.273356
  S     9.707790  0.025885  4.526306
  S     9.690575  3.760973  4.348350
