16  
    
  C     9.887876 -0.191324  2.926541
  C    10.188875  3.527973  2.817110
  C     8.735353 -0.590228  2.193339
  C     8.861148  3.450150  2.267620
  N    10.961942  0.121254  2.184060
  N    11.109930  3.586282  1.876969
  N     8.917382 -0.725818  0.867816
  N     8.699772  3.419686  0.947293
  N     8.171394 -0.760395  4.715183
  N     8.582322  3.269927  4.855081
  S     7.377116 -0.873405  3.238745
  S     7.630023  3.378704  3.442027
  S    10.532842 -0.283269  0.623410
  S    10.338241  3.601483  0.396583
  S     9.722511 -0.174319  4.693994
  S    10.249178  3.691405  4.627569
