16  
    
  C     8.792343 -0.763554  2.369648
  C     8.496841  3.196650  2.583239
  C     7.577285 -1.123664  1.668866
  C     7.349966  2.638546  1.955455
  N     9.898169 -0.697567  1.654052
  N     9.465349  3.544442  1.786246
  N     7.777912 -1.346716  0.391951
  N     7.470087  2.486662  0.658083
  N     6.841569 -0.747162  4.111954
  N     6.852389  2.816191  4.443803
  S     6.092757 -1.093732  2.666306
  S     6.080279  2.333618  3.070640
  S     9.386890 -1.088068  0.096251
  S     8.979090  3.052623  0.224880
  S     8.491319 -0.508784  4.087024
  S     8.377590  3.341953  4.277420
