16  
    
  C    11.767935  0.978451  2.875939
  C    11.658307  4.993437  3.094593
  C    10.578559  0.419319  2.349461
  C    10.513169  4.384453  2.487530
  N    12.545972  1.469533  1.927008
  N    12.717030  5.243674  2.377296
  N    10.485855  0.360053  1.028615
  N    10.728593  4.320774  1.179805
  N    10.134291  0.818577  4.868393
  N     9.811406  4.619447  4.901530
  S     9.300405  0.120806  3.574743
  S     9.162780  4.034619  3.496417
  S    11.863770  1.097008  0.461529
  S    12.192421  4.921508  0.790318
  S    11.632485  1.519167  4.498243
  S    11.384083  5.072442  4.862159
