16  
    
  C     7.059970 -1.725977  1.584454
  C     6.793443  2.151407  1.929588
  C     5.812947 -2.247139  1.058694
  C     5.601155  1.561812  1.359634
  N     8.048190 -1.616080  0.728385
  N     7.729180  2.469430  1.014789
  N     5.839933 -2.355391 -0.246552
  N     5.668452  1.471243  0.029223
  N     5.331095 -1.840562  3.522881
  N     5.106188  1.704061  3.878210
  S     4.547229 -2.401341  2.190416
  S     4.389250  1.086092  2.496028
  S     7.398608 -1.938761 -0.721258
  S     7.089117  2.071146 -0.417153
  S     6.973587 -1.622614  3.313845
  S     6.683708  2.255714  3.644338
