16  
    
  C    12.874633  1.534955  3.358724
  C    12.472756  5.177011  3.297672
  C    11.592432  1.133200  2.784188
  C    11.245773  4.693800  2.656135
  N    13.758855  1.770939  2.415353
  N    13.482040  5.355853  2.444249
  N    11.615308  0.983132  1.456220
  N    11.353156  4.630129  1.357317
  N    11.254527  1.373827  5.346799
  N    10.744506  4.877838  5.160181
  S    10.314186  0.947064  4.005511
  S     9.901336  4.454542  3.791023
  S    13.114689  1.373524  0.924602
  S    12.921938  5.153462  0.934614
  S    12.855802  1.952080  5.028879
  S    12.283510  5.312089  4.990050
