16  
    
  C     7.300301 -1.644932  2.259304
  C     7.459632  2.213582  2.196260
  C     6.093753 -1.949972  1.564355
  C     6.228634  1.741593  1.619941
  N     8.374233 -1.636550  1.452642
  N     8.448782  2.485228  1.346643
  N     6.179269 -2.118738  0.205590
  N     6.356144  1.467880  0.337897
  N     5.411504 -1.940361  4.118018
  N     5.733583  2.182424  4.117656
  S     4.742821 -2.295608  2.669416
  S     4.904048  1.718436  2.740278
  S     7.815253 -1.979643 -0.103278
  S     7.879568  1.948593 -0.161020
  S     7.062241 -1.514134  4.019287
  S     7.395333  2.621905  3.854328
