16  
    
  C    12.549222  1.575411  3.392612
  C    12.730934  5.548274  3.440211
  C    11.295521  1.122779  2.702252
  C    11.615068  5.018123  2.692620
  N    13.474836  1.963172  2.526979
  N    13.920547  5.712351  2.774621
  N    11.375135  1.103110  1.347163
  N    11.879925  4.890360  1.404221
  N    10.802248  1.148975  5.249568
  N    11.008948  4.909055  5.222914
  S    10.038823  0.606779  3.817954
  S    10.255428  4.532136  3.778794
  S    12.931881  1.697763  0.998311
  S    13.479438  5.275148  1.184328
  S    12.430242  1.575453  5.095472
  S    12.527903  5.558389  5.134915
