16  
    
  C    12.480531  1.563654  3.359015
  C    12.316607  5.319141  3.517655
  C    11.217842  1.117261  2.770479
  C    11.155914  4.767527  2.905876
  N    13.465924  1.821778  2.535753
  N    13.283302  5.605787  2.664403
  N    11.351978  0.914439  1.466201
  N    11.238362  4.496950  1.652188
  N    10.843830  1.142606  5.408214
  N    10.668060  4.980129  5.437571
  S    10.065415  0.853143  3.956802
  S     9.794671  4.533315  4.084235
  S    12.901708  1.302850  1.049012
  S    12.788860  5.129177  1.184266
  S    12.343797  1.850270  5.114723
  S    12.209972  5.492327  5.213667
