16  
    
  C     9.966029 -0.077709  2.759812
  C     9.749402  3.817291  2.851622
  C     8.826485 -0.600723  2.035154
  C     8.678403  3.172035  2.106949
  N    10.981765  0.105815  1.967276
  N    10.761610  4.177499  2.079068
  N     9.036762 -0.790715  0.767354
  N     8.947604  2.962484  0.817350
  N     7.991228 -0.394457  4.449561
  N     7.836357  3.629616  4.569027
  S     7.386442 -0.935720  3.020736
  S     7.233633  3.160254  3.100902
  S    10.551184 -0.263179  0.409785
  S    10.378933  3.690853  0.508159
  S     9.625507  0.069443  4.519920
  S     9.394486  4.288461  4.461219
