16  
    
  C    10.967627  0.631420  3.277281
  C    11.210242  4.222934  3.182876
  C     9.837385  0.198983  2.552792
  C     9.977846  3.768364  2.592834
  N    12.036542  0.834422  2.510619
  N    12.217187  4.376236  2.303061
  N    10.045965  0.098373  1.240892
  N     9.992320  3.766385  1.278930
  N     9.268213 -0.065782  5.050907
  N     9.577233  3.786651  5.135337
  S     8.553836 -0.285451  3.572602
  S     8.711182  3.471527  3.762097
  S    11.597593  0.539304  0.945322
  S    11.503712  4.150632  0.767154
  S    10.750749  0.679560  5.047827
  S    11.133693  4.348926  4.947513
