16  
    
  C     8.794615 -0.749425  2.422729
  C     8.540190  3.221542  2.579010
  C     7.592737 -1.042403  1.701917
  C     7.400518  2.637919  1.994499
  N     9.899087 -0.639129  1.605725
  N     9.534135  3.562610  1.730587
  N     7.786214 -1.351955  0.384983
  N     7.477384  2.495790  0.669747
  N     6.786192 -0.773503  4.151540
  N     6.834760  2.796958  4.453861
  S     6.112963 -1.043656  2.680684
  S     6.045847  2.363206  3.078887
  S     9.388705 -1.094691  0.078981
  S     8.978586  3.040502  0.249624
  S     8.450864 -0.478132  4.079751
  S     8.377325  3.304500  4.271234
