16  
    
  C     9.016825 -0.477830  2.436273
  C     9.573921  3.385411  2.727700
  C     7.909526 -1.055635  1.704609
  C     8.297000  3.115169  2.175893
  N    10.164799 -0.396584  1.748036
  N    10.598122  3.366373  1.867871
  N     8.145068 -1.228830  0.368808
  N     8.355122  2.682706  0.920691
  N     6.978859 -0.262663  3.989281
  N     7.772413  3.605048  4.627389
  S     6.434430 -1.064736  2.606674
  S     6.920375  3.333001  3.204018
  S     9.776401 -0.834557  0.191776
  S     9.899409  2.956758  0.366987
  S     8.633468 -0.108604  4.027360
  S     9.481822  3.760622  4.456058
