16  
    
  C     7.044882 -1.504329  2.281629
  C     7.027129  2.326456  2.124757
  C     5.839749 -1.845048  1.587319
  C     5.891434  1.797751  1.392348
  N     8.148152 -1.339207  1.510649
  N     8.117030  2.410719  1.399517
  N     5.965726 -1.794661  0.242918
  N     6.042709  1.533159  0.118494
  N     5.230038 -1.817043  4.084175
  N     5.237766  2.022302  3.863994
  S     4.493845 -2.066483  2.648789
  S     4.498343  1.666158  2.411453
  S     7.535185 -1.479802 -0.082702
  S     7.677249  1.901338 -0.195840
  S     6.864179 -1.364181  4.030376
  S     6.826433  2.552419  3.816462
