16  
    
  C    11.001823  0.664903  2.880853
  C    11.012138  4.486270  3.363821
  C     9.786433  0.027478  2.352661
  C     9.841036  3.912331  2.700270
  N    11.943824  0.782951  1.937098
  N    12.009528  4.674019  2.528196
  N     9.749016 -0.145353  1.023134
  N     9.995225  3.615044  1.413479
  N     9.389334  0.364290  4.895820
  N     9.212565  3.959655  5.131739
  S     8.565807 -0.170380  3.557007
  S     8.429264  3.703800  3.677879
  S    11.246526  0.349021  0.483840
  S    11.478485  4.175767  1.007338
  S    10.907823  1.051713  4.640889
  S    10.768879  4.552435  5.055580
