16  
    
  C     4.525068 -2.532373  1.522686
  C     5.234317  1.451337  1.662319
  C     3.281272 -2.810887  0.860122
  C     3.912338  1.109992  1.117914
  N     5.549152 -2.387593  0.656142
  N     6.217421  1.671386  0.816671
  N     3.342194 -2.749681 -0.462126
  N     3.987319  1.028270 -0.192246
  N     2.724693 -2.752664  3.359459
  N     3.641462  1.290157  3.630840
  S     1.922987 -3.056410  1.925703
  S     2.616315  1.115657  2.341776
  S     4.922915 -2.513512 -0.866370
  S     5.516305  1.441190 -0.686184
  S     4.364715 -2.724805  3.217529
  S     5.219728  1.628825  3.368557
