16  
    
  C     4.686398 -2.574126  1.558684
  C     5.261295  1.639474  1.810517
  C     3.490688 -2.971430  0.873218
  C     3.941377  1.369778  1.336187
  N     5.696905 -2.143819  0.723323
  N     6.210744  1.618088  0.893079
  N     3.534816 -2.898956 -0.478483
  N     3.874504  1.181050  0.020114
  N     2.874935 -2.999963  3.345488
  N     3.632205  1.609017  3.866223
  S     2.127045 -3.421875  1.907031
  S     2.667385  1.323874  2.529309
  S     5.035928 -2.287103 -0.805777
  S     5.462126  1.280938 -0.560769
  S     4.390735 -2.400937  3.254282
  S     5.252753  1.772517  3.543807
