16  
    
  C    11.663312  1.148398  2.838456
  C    11.626580  4.974462  3.178613
  C    10.466229  0.490954  2.342306
  C    10.490830  4.493702  2.412831
  N    12.580310  1.456530  1.928767
  N    12.643049  5.377606  2.389914
  N    10.452163  0.392833  1.045783
  N    10.644765  4.365614  1.086220
  N    10.192635  0.748456  4.853734
  N     9.723105  4.546667  4.940614
  S     9.394333  0.082028  3.568739
  S     9.101712  4.020398  3.476860
  S    11.866447  1.044985  0.500027
  S    12.202017  4.943058  0.778923
  S    11.570415  1.580866  4.551806
  S    11.327196  5.000930  4.862904
