16  
    
  C     5.483237 -2.335650  1.749068
  C     5.250042  1.624499  1.524739
  C     4.333814 -2.701538  0.983816
  C     4.139549  1.158088  0.761315
  N     6.576119 -2.077370  1.012076
  N     6.367806  1.880689  0.872091
  N     4.517507 -2.808190 -0.339476
  N     4.437237  0.930874 -0.510713
  N     3.554072 -2.624999  3.512705
  N     3.256990  1.315540  3.154034
  S     2.892450 -2.944904  1.976833
  S     2.723044  0.674056  1.700456
  S     6.103471 -2.318855 -0.571234
  S     6.071361  1.356282 -0.694098
  S     5.167844 -2.180749  3.437697
  S     4.806798  1.877714  3.151886
