16  
    
  C     7.297247 -1.652995  2.226054
  C     7.446784  2.386427  2.137751
  C     6.079173 -2.139171  1.545654
  C     6.159575  2.003696  1.574724
  N     8.369315 -1.524944  1.456822
  N     8.460667  2.483944  1.280414
  N     6.212255 -2.174295  0.236852
  N     6.209710  1.754149  0.280661
  N     5.522663 -2.049195  4.012876
  N     5.705601  2.274793  4.105121
  S     4.695569 -2.266248  2.602160
  S     4.966922  1.651516  2.764684
  S     7.808494 -1.826574 -0.059654
  S     7.821168  2.003176 -0.239313
  S     7.187404 -1.603877  3.937180
  S     7.366650  2.585823  3.876636
