16  
    
  C    12.755550  1.661381  3.370346
  C    12.639641  5.434453  3.217848
  C    11.486108  1.212379  2.747770
  C    11.381801  4.841222  2.717205
  N    13.638895  1.924411  2.451608
  N    13.575141  5.605781  2.290763
  N    11.509066  1.117329  1.432748
  N    11.368240  4.686808  1.427796
  N    11.062844  1.474429  5.278965
  N    11.068782  4.814203  5.202898
  S    10.252526  0.848621  3.925110
  S    10.209881  4.431794  3.901221
  S    13.045539  1.597551  0.968469
  S    12.835011  5.110230  0.864668
  S    12.726786  1.642498  5.143101
  S    12.548320  5.494226  4.997336
