16  
    
  C    11.220971  0.613926  2.967856
  C    11.158738  4.306427  3.347458
  C    10.072757 -0.128261  2.424453
  C     9.843426  4.199643  2.730014
  N    12.205170  0.768880  2.114637
  N    12.160557  4.281775  2.456700
  N    10.159925 -0.444879  1.153702
  N     9.884348  3.949138  1.411420
  N     9.410643  0.427269  4.831940
  N     9.471195  4.041905  5.288484
  S     8.755338 -0.288427  3.458648
  S     8.578729  4.241089  3.915458
  S    11.708941  0.037563  0.683162
  S    11.503989  4.062726  0.960844
  S    10.973468  1.067809  4.619100
  S    11.059284  4.548573  5.131478
