16  
    
  C     4.612704 -2.136544  1.534642
  C     4.601407  1.656326  1.569785
  C     3.297509 -2.279325  1.014398
  C     3.450041  1.046845  0.950985
  N     5.620699 -2.222241  0.625514
  N     5.598133  1.895935  0.716195
  N     3.299103 -2.352759 -0.342072
  N     3.541948  0.954593 -0.383080
  N     3.017954 -2.103428  3.572441
  N     2.768425  1.284009  3.375549
  S     2.054082 -2.115035  2.219944
  S     2.100405  0.849887  1.998813
  S     4.864281 -2.306880 -0.831547
  S     5.001773  1.525613 -0.805959
  S     4.650049 -1.857790  3.247650
  S     4.372194  1.679171  3.318332
