16  
    
  C     5.748430 -2.128828  1.961985
  C     6.002990  1.758425  2.069260
  C     4.551857 -2.703590  1.347043
  C     4.773621  1.346356  1.445150
  N     6.717102 -1.770293  1.117835
  N     7.024405  1.922358  1.230995
  N     4.754777 -2.919185  0.072796
  N     4.853110  1.226013  0.124862
  N     3.886289 -2.454905  3.880843
  N     4.208461  1.724697  3.929955
  S     3.228609 -3.037621  2.408039
  S     3.374806  1.399443  2.505445
  S     6.226515 -2.388213 -0.346447
  S     6.445532  1.518714 -0.303462
  S     5.482835 -1.836823  3.696632
  S     5.854734  1.904749  3.798299
