16  
    
  C     7.246271 -1.701963  2.267770
  C     7.481192  2.231198  2.182069
  C     6.028182 -2.021252  1.626105
  C     6.298736  1.613467  1.626010
  N     8.322051 -1.600537  1.492269
  N     8.488315  2.406737  1.310283
  N     6.180980 -2.182864  0.301695
  N     6.437652  1.386918  0.322611
  N     5.466776 -1.719988  4.022473
  N     5.791875  2.124153  4.092203
  S     4.695982 -2.296882  2.654432
  S     4.928720  1.743445  2.749083
  S     7.789830 -1.979505 -0.017177
  S     7.927274  1.892273 -0.121501
  S     7.083510 -1.449507  3.958317
  S     7.316882  2.648523  3.888492
