16  
    
  C     5.668858 -2.006997  1.707940
  C     5.204281  1.470778  1.701055
  C     4.428630 -2.462996  1.163528
  C     4.022450  0.745034  1.178804
  N     6.664307 -1.926140  0.811193
  N     6.153522  1.853659  0.845677
  N     4.539841 -2.777545 -0.134592
  N     4.108536  0.574813 -0.125209
  N     4.094817 -2.363850  3.746469
  N     3.547860  1.109146  3.650096
  S     3.212544 -2.691123  2.350764
  S     2.744347  0.613318  2.298396
  S     6.082844 -2.402953 -0.621330
  S     5.548667  1.326798 -0.637282
  S     5.632985 -1.829550  3.393362
  S     5.185720  1.494167  3.400590
