16  
    
  C    11.981855  1.565228  3.471720
  C    12.137863  5.040905  3.771185
  C    10.919268  0.918867  2.818327
  C    10.885699  4.510242  3.309437
  N    12.926045  1.951064  2.663593
  N    13.031962  5.461449  2.855276
  N    11.080836  0.658545  1.525314
  N    10.741395  4.609770  2.001305
  N    10.343712  0.992605  5.326657
  N    10.554953  4.548185  5.835988
  S     9.772268  0.313420  3.938314
  S     9.641016  4.203795  4.454275
  S    12.535879  1.451406  1.118410
  S    12.232321  5.216165  1.404257
  S    11.838593  1.692706  5.280964
  S    12.147460  4.976982  5.525331
