16  
    
  C     9.915469 -0.145187  2.896138
  C    10.167130  3.575115  2.768644
  C     8.738266 -0.669641  2.178694
  C     8.807175  3.334695  2.259855
  N    10.975266  0.031309  2.174114
  N    11.093169  3.774490  1.831875
  N     8.919136 -0.697746  0.886221
  N     8.831096  3.290362  0.913056
  N     8.181459 -0.736187  4.721240
  N     8.627384  3.353652  4.810334
  S     7.392073 -0.805223  3.313235
  S     7.615859  3.217489  3.530916
  S    10.523772 -0.286497  0.622011
  S    10.344327  3.526149  0.377141
  S     9.726601 -0.188061  4.553380
  S    10.194978  3.780218  4.483707
