16  
    
  C     7.309965 -1.526798  2.182885
  C     7.591179  2.515861  2.157442
  C     6.144841 -2.024469  1.460933
  C     6.352603  2.029828  1.592908
  N     8.343735 -1.276352  1.358945
  N     8.534365  2.850085  1.288438
  N     6.188797 -1.977884  0.115476
  N     6.336927  1.987134  0.277344
  N     5.605930 -2.124689  3.954210
  N     5.909754  2.180949  4.105460
  S     4.885218 -2.580198  2.540182
  S     5.031510  1.943760  2.731823
  S     7.769604 -1.550389 -0.167491
  S     7.891198  2.452470 -0.269299
  S     7.186745 -1.593633  3.861071
  S     7.471479  2.666181  3.881795
