16  
    
  C    11.309685  0.592618  3.057871
  C    11.106999  4.446594  3.529672
  C    10.286655 -0.088668  2.275839
  C     9.790436  4.146205  2.977631
  N    12.429770  0.741613  2.341526
  N    12.110726  4.381512  2.669649
  N    10.605148 -0.322425  1.014642
  N     9.830726  3.902110  1.650815
  N     9.311642  0.389580  4.523434
  N     9.345282  4.703603  5.479498
  S     8.838360 -0.376671  3.133743
  S     8.508681  4.239391  4.126372
  S    12.189742  0.072302  0.824821
  S    11.390396  4.101095  1.150414
  S    10.931787  0.812561  4.753735
  S    10.997284  4.817626  5.242455
