16  
    
  C     8.711944 -0.423528  2.429813
  C     8.636129  3.004264  2.591498
  C     7.509540 -0.871249  1.744027
  C     7.375254  2.738174  1.945633
  N     9.802368 -0.346022  1.687594
  N     9.681577  3.146274  1.795205
  N     7.695161 -1.012200  0.432758
  N     7.514881  2.658523  0.636194
  N     6.840132 -0.557407  4.259573
  N     6.793342  2.959934  4.412647
  S     6.155467 -0.971539  2.872331
  S     6.001213  2.484746  3.024524
  S     9.318087 -0.707069  0.134137
  S     9.093355  2.925052  0.217584
  S     8.415606 -0.125844  4.168980
  S     8.428448  3.229564  4.305059
