16  
    
  C    12.149863  1.014893  3.457806
  C    12.276749  5.155206  3.283612
  C    10.882465  0.780551  2.746616
  C    11.052080  4.702468  2.713307
  N    13.168960  1.106797  2.601531
  N    13.303005  5.080866  2.383088
  N    11.024323  0.597126  1.422124
  N    11.067584  4.296795  1.455395
  N    10.220432  1.436760  5.091569
  N    10.535108  5.326303  5.167965
  S     9.507684  0.778650  3.745549
  S     9.654819  4.874895  3.828662
  S    12.636564  0.809380  1.096284
  S    12.596908  4.572667  0.911849
  S    11.859510  1.729079  5.065434
  S    12.167200  5.529603  4.993336
