16  
    
  C     9.797549 -0.078631  2.834369
  C     9.842428  3.564836  2.738256
  C     8.601246 -0.543504  2.179666
  C     8.574569  3.229468  2.109830
  N    10.687611  0.425305  2.017199
  N    10.819617  3.709248  1.867119
  N     8.631678 -0.612351  0.877148
  N     8.524732  3.340001  0.783750
  N     8.174522 -0.715526  4.768688
  N     8.155691  3.141253  4.580406
  S     7.318844 -0.964017  3.333425
  S     7.259622  2.883406  3.186504
  S    10.098306  0.125828  0.479939
  S    10.089028  3.668511  0.278975
  S     9.566536  0.138564  4.553593
  S     9.769733  3.603045  4.486488
