16  
    
  C    12.035002  1.355301  3.501130
  C    11.890708  4.810133  3.763967
  C    10.864230  0.843480  2.852454
  C    10.727325  4.223910  3.169194
  N    13.040848  1.717146  2.703793
  N    12.781974  5.334933  2.876288
  N    10.959589  0.883721  1.513140
  N    10.748634  4.130982  1.823491
  N    10.403257  0.709765  5.374641
  N    10.147888  4.428984  5.680214
  S     9.694021  0.200758  3.971297
  S     9.423751  3.883652  4.291490
  S    12.466146  1.489582  1.188928
  S    12.140373  4.894312  1.355389
  S    11.931302  1.320274  5.192030
  S    11.696861  5.000375  5.484468
