16  
    
  C     8.283551 -0.929959  2.511790
  C     8.095458  3.070216  2.347096
  C     7.010031 -1.318625  1.901913
  C     7.015731  2.391185  1.714092
  N     9.354030 -0.904892  1.654893
  N     9.173141  3.224405  1.599231
  N     7.155674 -1.710499  0.613833
  N     7.261953  2.076451  0.440651
  N     6.531629 -0.802744  4.378054
  N     6.387661  2.511521  4.238116
  S     5.709936 -1.493633  3.056784
  S     5.673933  2.096256  2.764041
  S     8.731758 -1.418976  0.198834
  S     8.767637  2.624430  0.064545
  S     8.128606 -0.344542  4.156641
  S     7.897333  3.286590  4.000287
