16  
    
  C    10.503465  0.777914  3.006313
  C    10.601214  4.552971  2.799424
  C     9.345764  0.139490  2.456664
  C     9.439889  3.896504  2.258970
  N    11.523924  0.792733  2.161840
  N    11.596033  4.751165  1.945106
  N     9.384850 -0.132443  1.156884
  N     9.605946  3.393946  1.033413
  N     8.817335  0.577039  4.940985
  N     8.818966  4.408120  4.700140
  S     8.078499 -0.066135  3.582319
  S     8.190413  3.694613  3.326573
  S    10.922664  0.294732  0.687007
  S    11.105731  3.834929  0.540586
  S    10.373033  1.169479  4.723924
  S    10.400778  4.992829  4.542895
