16  
    
  C     9.109485 -0.426196  2.456270
  C     9.578768  3.492649  2.705243
  C     7.937365 -0.892521  1.750268
  C     8.318502  3.273072  2.159325
  N    10.294720 -0.479839  1.737416
  N    10.634821  3.346242  1.913960
  N     8.178226 -1.144476  0.434265
  N     8.400615  2.894548  0.881930
  N     7.090607 -0.672258  4.181725
  N     7.809677  3.731535  4.650218
  S     6.470646 -1.080479  2.672047
  S     6.917463  3.393840  3.282116
  S     9.816078 -0.936017  0.209877
  S     9.963336  2.860160  0.428822
  S     8.705209 -0.259911  4.160204
  S     9.448477  3.976018  4.322968
