16  
    
  C     9.941358 -0.057721  2.656330
  C     9.776634  4.084628  2.765852
  C     8.819961 -0.607391  1.983779
  C     8.857801  3.178807  2.179596
  N    10.948824  0.239352  1.901518
  N    10.803730  4.362317  1.961092
  N     9.031909 -0.749369  0.700892
  N     9.234866  2.701353  1.004606
  N     8.201783 -0.306692  4.494777
  N     7.947690  3.707046  4.544694
  S     7.533398 -0.951741  3.098639
  S     7.578249  2.725438  3.206103
  S    10.547557 -0.174087  0.370021
  S    10.589706  3.441891  0.588508
  S     9.785222  0.134077  4.400003
  S     9.461544  4.462397  4.512224
