16  
    
  C     7.127646 -1.237243  2.316145
  C     7.759035  2.836867  2.335277
  C     6.108413 -1.873594  1.501303
  C     6.619033  2.311673  1.643339
  N     8.198517 -0.837091  1.644337
  N     8.796686  3.095025  1.565721
  N     6.362128 -1.899321  0.202100
  N     6.826884  2.282225  0.334315
  N     5.333909 -2.019690  3.917229
  N     5.978533  2.482101  4.124574
  S     4.843126 -2.542798  2.435479
  S     5.269179  2.047215  2.739268
  S     7.876527 -1.273658  0.102995
  S     8.347483  2.671381 -0.017838
  S     6.821251 -1.320886  3.991454
  S     7.561962  2.936825  4.088655
