16  
    
  C    10.269329  0.093441  2.772867
  C    10.223389  4.068905  3.074146
  C     9.074233 -0.436400  2.130013
  C     8.954251  3.719265  2.520637
  N    11.324474  0.071963  1.946111
  N    11.229638  4.058061  2.224408
  N     9.215634 -0.688435  0.807783
  N     8.942647  3.426163  1.214248
  N     8.552775  0.129922  4.599947
  N     8.590972  4.431382  4.981064
  S     7.764331 -0.592312  3.294652
  S     7.753829  3.930436  3.676966
  S    10.805803 -0.456457  0.507038
  S    10.599253  3.612232  0.766182
  S    10.246460  0.287665  4.540804
  S    10.241800  4.468742  4.851404
