16  
    
  C     9.107187 -0.533254  2.526021
  C     9.540323  3.477629  2.780494
  C     7.920854 -0.943970  1.781010
  C     8.308506  3.190094  2.122911
  N    10.215884 -0.483227  1.773560
  N    10.568969  3.303736  1.954622
  N     8.089031 -1.095781  0.479879
  N     8.322468  2.817066  0.844897
  N     7.214719 -0.615468  4.220422
  N     7.852270  3.705653  4.606844
  S     6.568545 -1.175583  2.769274
  S     7.019796  3.383799  3.204187
  S     9.742431 -0.897822  0.242621
  S     9.965724  2.892182  0.468481
  S     8.849021 -0.353015  4.234802
  S     9.468143  4.136312  4.445855
