16  
    
  C     8.893332 -0.368615  2.538173
  C     8.447516  3.238203  2.537014
  C     7.647480 -0.658955  1.885118
  C     7.337634  2.673709  1.886849
  N     9.911812 -0.014391  1.724150
  N     9.462260  3.532495  1.739346
  N     7.771061 -0.704453  0.522759
  N     7.441000  2.661070  0.547848
  N     7.167418 -0.746359  4.468968
  N     6.846582  2.765502  4.417402
  S     6.336818 -0.914253  3.045271
  S     6.194661  2.154764  3.045804
  S     9.316065 -0.193706  0.170294
  S     8.911797  3.330441  0.177174
  S     8.742739 -0.135303  4.284226
  S     8.379431  3.365321  4.260273
