16  
    
  C    12.987944  1.944529  3.695078
  C    12.927949  5.523025  3.624056
  C    11.703152  1.486496  3.097950
  C    11.671027  5.047273  3.085827
  N    13.944794  2.001234  2.785326
  N    13.935198  5.585125  2.740018
  N    11.726468  1.270815  1.801509
  N    11.724647  4.662939  1.847422
  N    11.340364  1.505981  5.627609
  N    11.291925  5.519706  5.557228
  S    10.410302  1.317304  4.288315
  S    10.439654  5.082929  4.278644
  S    13.274114  1.485086  1.356444
  S    13.251169  5.007078  1.286691
  S    12.917458  1.842684  5.388408
  S    12.879101  5.817732  5.396850
