16  
    
  C     3.221621 -2.709273  1.664235
  C     3.587331  0.911870  1.439784
  C     2.219770 -3.397746  0.895130
  C     2.410771  0.412580  0.797559
  N     4.204058 -2.277434  0.884218
  N     4.561432  1.198959  0.578060
  N     2.445307 -3.472007 -0.383892
  N     2.423627  0.362964 -0.531267
  N     1.366688 -3.471054  3.324891
  N     1.958919  0.172650  3.386584
  S     0.771595 -3.845418  1.788586
  S     1.150381 -0.016714  1.962228
  S     3.801131 -2.639425 -0.664896
  S     3.954719  0.883387 -0.946870
  S     2.959827 -2.856595  3.391781
  S     3.568508  0.672690  3.159715
