16  
    
  C     4.641516 -2.199319  1.537378
  C     4.693325  1.564591  1.654207
  C     3.307752 -2.380006  0.963713
  C     3.493144  1.097908  1.007515
  N     5.600055 -2.087135  0.633972
  N     5.615904  1.943048  0.786126
  N     3.286728 -2.435635 -0.358651
  N     3.528231  0.963195 -0.292927
  N     2.999863 -2.263063  3.552887
  N     2.793796  1.383636  3.462451
  S     2.031139 -2.114301  2.211716
  S     2.102312  0.962352  1.961198
  S     4.881095 -2.338045 -0.845981
  S     5.046370  1.523929 -0.731409
  S     4.649059 -1.889770  3.250978
  S     4.418371  1.697318  3.343461
