16  
    
  C     9.548668 -0.542364  2.732382
  C     9.392158  3.340209  2.567635
  C     8.213685 -0.827097  2.128100
  C     8.113629  3.020195  1.935837
  N    10.560760 -0.473612  1.898402
  N    10.452711  3.256921  1.780796
  N     8.308253 -1.145469  0.863404
  N     8.207108  2.802867  0.647117
  N     7.713268 -0.693534  4.612438
  N     7.488558  3.310286  4.372926
  S     6.878125 -1.023034  3.207652
  S     6.748509  2.948820  2.983821
  S     9.918048 -0.967862  0.435405
  S     9.822382  2.906594  0.224465
  S     9.367983 -0.303818  4.471131
  S     9.095721  3.475935  4.183855
