16  
    
  C    11.324504  0.939048  3.293857
  C    11.643613  4.725799  2.890222
  C    10.049120  0.637719  2.719219
  C    10.434682  4.160009  2.338872
  N    12.302881  1.008036  2.378076
  N    12.655464  4.849011  2.039275
  N    10.003548  0.445643  1.370637
  N    10.545686  3.989878  1.001844
  N     9.622421  0.742413  5.333808
  N     9.816202  4.441591  4.806999
  S     8.834128  0.422362  3.897164
  S     9.083532  3.943952  3.404650
  S    11.612130  0.651608  0.921477
  S    12.055923  4.518039  0.550576
  S    11.162541  1.246000  5.058302
  S    11.428027  4.831533  4.689198
