16  
    
  C     9.814079 -0.187382  2.887655
  C     9.684531  3.644672  2.755836
  C     8.615517 -0.672681  2.171853
  C     8.447180  3.390689  2.074053
  N    10.815892  0.037866  2.091279
  N    10.708726  3.916854  1.955839
  N     8.729661 -0.846888  0.880779
  N     8.509260  3.305631  0.768780
  N     7.907905 -0.487710  4.656906
  N     7.872163  3.331101  4.600927
  S     7.217618 -0.783066  3.162178
  S     7.032870  3.290265  3.130108
  S    10.286230 -0.389903  0.548096
  S    10.085393  3.783802  0.347281
  S     9.431288  0.078421  4.568629
  S     9.543631  3.662735  4.477121
