16  
    
  C     9.892574 -0.097751  2.793746
  C     9.725591  3.867287  2.803971
  C     8.757258 -0.675785  2.041799
  C     8.559721  3.386337  2.067072
  N    10.993371  0.080483  2.048170
  N    10.772010  4.060193  2.024022
  N     8.933450 -0.784255  0.736592
  N     8.699466  3.132657  0.773157
  N     7.959083 -0.325474  4.480901
  N     7.831004  3.598335  4.528077
  S     7.410182 -0.917010  3.020306
  S     7.201746  3.185733  3.043595
  S    10.518161 -0.323867  0.478603
  S    10.300082  3.686539  0.472257
  S     9.544295  0.030856  4.514036
  S     9.384997  4.200869  4.543128
