16  
    
  C     8.704136 -1.009178  2.331376
  C     8.303505  3.202458  2.203166
  C     7.535273 -1.561098  1.736107
  C     7.193935  2.513691  1.644282
  N     9.694127 -0.632212  1.466563
  N     9.260491  3.489844  1.330736
  N     7.682900 -1.826588  0.418054
  N     7.287511  2.257443  0.349712
  N     6.977185 -1.480826  4.303179
  N     6.721107  2.814099  4.122080
  S     6.193563 -1.905600  2.873537
  S     5.975789  2.218251  2.789830
  S     9.173583 -1.191110 -0.053943
  S     8.782079  2.803534 -0.165140
  S     8.549056 -0.881450  4.106440
  S     8.280716  3.384861  3.938682
