16  
    
  C     4.257749 -2.711159  1.577938
  C     4.217808  1.205291  1.725458
  C     3.008995 -3.303209  1.078918
  C     2.880063  1.122112  1.117490
  N     5.222496 -2.576901  0.691482
  N     5.242495  1.003020  0.892005
  N     3.024321 -3.510151 -0.229057
  N     2.962747  1.086175 -0.203704
  N     2.548774 -2.499981  3.515162
  N     2.543758  1.357103  3.686249
  S     1.737825 -3.242901  2.291357
  S     1.637267  1.452208  2.269358
  S     4.637260 -3.193989 -0.774301
  S     4.509558  0.872698 -0.655598
  S     4.125584 -2.124167  3.198316
  S     4.180901  1.551554  3.475984
