16  
    
  C    10.319455  0.378873  2.573788
  C    10.479902  4.220930  3.078018
  C     9.114493 -0.098599  1.892206
  C     9.248259  3.701190  2.490547
  N    11.404320  0.340662  1.777737
  N    11.422275  4.249954  2.129896
  N     9.369582 -0.629275  0.685945
  N     9.210583  3.387185  1.211712
  N     8.352378  0.544438  4.218968
  N     8.681335  4.467556  4.924514
  S     7.742774 -0.256634  2.927197
  S     7.960272  3.914006  3.515568
  S    10.937689 -0.386138  0.352679
  S    10.812051  3.666424  0.722631
  S     9.994065  0.955574  4.215626
  S    10.370472  4.639474  4.804384
