16  
    
  C     4.474082 -2.600764  1.526502
  C     5.151260  1.577860  1.643187
  C     3.225211 -2.829996  0.849434
  C     3.893105  1.258114  1.061163
  N     5.501834 -2.544887  0.732580
  N     6.183522  1.622105  0.755031
  N     3.342015 -2.886386 -0.474645
  N     3.889133  1.254434 -0.276724
  N     2.728805 -2.812507  3.350122
  N     3.513109  1.184414  3.612982
  S     1.888782 -2.844477  1.929193
  S     2.676961  0.861140  2.231533
  S     4.963909 -2.627819 -0.833503
  S     5.449664  1.389652 -0.738848
  S     4.379133 -2.595266  3.273668
  S     5.103338  1.416340  3.443387
