16  
    
  C     3.485624 -3.099470  1.028681
  C     3.880076  0.732984  1.457911
  C     2.224869 -3.526693  0.424330
  C     2.656420  0.374411  0.770655
  N     4.524465 -3.046450  0.222413
  N     4.909639  0.862833  0.639696
  N     2.327037 -3.778048 -0.872084
  N     2.796345  0.106516 -0.535799
  N     1.766894 -2.993348  2.907034
  N     2.083888  0.405933  3.288006
  S     1.022453 -3.822987  1.673100
  S     1.297500 -0.023546  1.906930
  S     3.924591 -3.337250 -1.287353
  S     4.338795  0.496723 -0.945006
  S     3.338044 -2.621476  2.650839
  S     3.623364  1.015127  3.162478
