16  
    
  C     7.200354 -1.396122  2.210720
  C     7.191867  2.241098  2.081848
  C     5.983857 -1.948217  1.619942
  C     5.976171  1.712626  1.489932
  N     8.209519 -1.173207  1.394778
  N     8.218777  2.362550  1.247682
  N     6.100148 -2.116997  0.324444
  N     6.056890  1.519279  0.182508
  N     5.379928 -1.232583  4.082986
  N     5.507208  1.991816  3.998682
  S     4.656520 -2.005875  2.782865
  S     4.660280  1.603463  2.643986
  S     7.642990 -1.695788 -0.143868
  S     7.615790  1.807580 -0.279630
  S     6.980482 -1.099606  3.971761
  S     7.063888  2.480523  3.738052
