16  
    
  C    10.433477  0.619130  3.055072
  C    10.719835  4.357688  2.893720
  C     9.237884  0.041184  2.463324
  C     9.456097  3.928729  2.298935
  N    11.311211  0.955646  2.115694
  N    11.646429  4.480597  1.959185
  N     9.365657 -0.231905  1.169724
  N     9.389311  3.929605  0.961383
  N     8.751626  0.195748  4.965729
  N     8.980852  4.335158  4.802919
  S     7.970603 -0.316915  3.574873
  S     8.161862  3.836555  3.432772
  S    10.743536  0.421792  0.650110
  S    10.915718  4.364669  0.444286
  S    10.287326  0.850826  4.774267
  S    10.591733  4.755054  4.602729
