16  
    
  C     4.179480 -2.657005  1.555974
  C     4.245184  1.303806  1.679148
  C     2.963621 -3.288173  1.043213
  C     2.942176  1.280963  1.116607
  N     5.174447 -2.577279  0.703536
  N     5.266548  1.133066  0.832766
  N     3.094452 -3.782308 -0.168693
  N     2.950272  0.972042 -0.171058
  N     2.516808 -2.525874  3.475620
  N     2.540466  1.596482  3.639616
  S     1.647302 -3.108125  2.144989
  S     1.668921  1.575177  2.200513
  S     4.570961 -3.179351 -0.702162
  S     4.510595  0.955971 -0.660148
  S     4.155220 -2.228253  3.211340
  S     4.197694  1.498884  3.416267
