16  
    
  C     9.789698 -0.161129  2.797614
  C     9.648197  3.897230  2.756916
  C     8.631642 -0.681052  2.096314
  C     8.384653  3.708624  2.052412
  N    10.921092 -0.020766  2.114849
  N    10.735438  4.009905  1.993276
  N     8.873680 -0.783551  0.792479
  N     8.547461  3.543178  0.737405
  N     7.916744 -0.293233  4.522897
  N     7.786314  3.552187  4.582876
  S     7.188646 -0.922274  3.128842
  S     7.084940  3.150903  3.113338
  S    10.493931 -0.379539  0.541607
  S    10.199015  3.609930  0.407357
  S     9.531999  0.035885  4.513599
  S     9.440965  3.902116  4.423028
