16  
    
  C    11.239000  0.458159  3.011134
  C    11.088064  4.441516  3.395085
  C    10.179972 -0.220595  2.368547
  C     9.792755  4.245396  2.840747
  N    12.393148  0.538075  2.318482
  N    12.139894  4.442340  2.580540
  N    10.424508 -0.418558  1.065288
  N     9.857484  3.974282  1.561990
  N     9.385320  0.370174  4.770976
  N     9.447591  4.221843  5.356606
  S     8.760022 -0.331446  3.416603
  S     8.530192  4.347204  3.996961
  S    11.994085  0.139707  0.746209
  S    11.440546  4.011540  1.120143
  S    10.914152  0.975991  4.601751
  S    11.090012  4.632141  5.133526
