16  
    
  C     9.690894  0.133794  2.817532
  C     9.793586  3.521155  2.648443
  C     8.545277 -0.451312  2.173920
  C     8.609174  3.088567  2.021292
  N    10.647338  0.482345  1.926646
  N    10.746926  3.942341  1.840842
  N     8.612100 -0.459688  0.799128
  N     8.631341  3.077405  0.698051
  N     8.244081 -0.743887  4.702926
  N     8.138422  3.233149  4.632291
  S     7.351902 -1.030366  3.307106
  S     7.358705  2.855851  3.246125
  S    10.080680  0.169642  0.409121
  S    10.158047  3.672303  0.281285
  S     9.705049  0.037951  4.528219
  S     9.689252  3.749587  4.338697
