16  
    
  C     8.365922 -0.944272  2.414892
  C     8.209218  2.474438  2.041390
  C     7.186444 -1.201259  1.636415
  C     7.074524  2.001203  1.251973
  N     9.497467 -0.932040  1.674500
  N     9.309480  2.730470  1.315785
  N     7.434741 -1.317553  0.293894
  N     7.351064  1.786681 -0.064755
  N     6.510094 -1.125770  4.192942
  N     6.311522  2.253264  3.671444
  S     5.830872 -1.119742  2.702865
  S     5.662438  1.760366  2.243009
  S     9.071854 -1.091604  0.074584
  S     8.940632  2.368436 -0.201506
  S     8.123380 -0.784253  4.147209
  S     7.920144  2.537239  3.786415
