16  
    
  C     8.482923 -1.073774  2.343303
  C     8.189931  2.697693  2.066702
  C     7.283605 -1.359244  1.620526
  C     7.030540  2.283446  1.353606
  N     9.557819 -0.857916  1.577031
  N     9.259268  2.766586  1.303706
  N     7.431808 -1.497865  0.276735
  N     7.179230  2.194098  0.035210
  N     6.661982 -1.181090  4.185411
  N     6.473387  2.389907  3.890799
  S     6.012367 -1.732266  2.783863
  S     5.722873  2.008436  2.415469
  S     9.049514 -1.092389  0.006733
  S     8.781013  2.565577 -0.305643
  S     8.316028 -0.935283  4.104926
  S     8.092887  2.987522  3.763624
