16  
    
  C    12.012710  1.396222  3.416137
  C    12.224996  5.234116  3.142679
  C    10.878240  0.844368  2.711005
  C    11.000845  4.788644  2.580627
  N    13.112514  1.503473  2.689346
  N    13.245591  4.996431  2.386248
  N    11.081295  0.494286  1.465271
  N    11.087847  4.355295  1.328913
  N    10.168415  1.251617  5.181553
  N    10.477569  5.341581  5.075628
  S     9.429328  0.706948  3.803505
  S     9.635243  4.855462  3.696246
  S    12.714281  0.741917  1.206037
  S    12.699752  4.435672  0.924016
  S    11.776225  1.605692  5.142533
  S    12.129361  5.648315  4.838642
