16  
    
  C     7.952805 -0.719760  2.356379
  C     8.386364  2.961080  2.332760
  C     6.833875 -1.266733  1.697950
  C     7.045620  2.650040  1.844426
  N     9.015561 -0.425196  1.580802
  N     9.330483  2.983056  1.383213
  N     6.996592 -1.376936  0.366844
  N     6.974966  2.321085  0.570718
  N     6.064258 -1.061705  4.103277
  N     6.776668  2.834838  4.397183
  S     5.531803 -1.810083  2.686663
  S     5.766173  2.709118  3.033801
  S     8.518271 -0.828935  0.027711
  S     8.528729  2.575789 -0.004519
  S     7.603125 -0.560329  4.039245
  S     8.403532  3.181083  4.068086
