16  
    
  C    11.682611  1.112795  3.294156
  C    12.012023  5.004272  3.218314
  C    10.524268  0.656454  2.662524
  C    10.803461  4.355023  2.736385
  N    12.721042  1.275501  2.479439
  N    13.057840  5.075755  2.362477
  N    10.640335  0.316632  1.377509
  N    10.821055  4.065716  1.477871
  N     9.854630  1.190682  5.123861
  N    10.220986  5.156620  5.104568
  S     9.100990  0.531250  3.744960
  S     9.467870  4.341662  3.875809
  S    12.242760  0.668725  1.012115
  S    12.347380  4.504305  0.912364
  S    11.535916  1.301469  5.021195
  S    11.818905  5.539769  4.884253
