16  
    
  C    12.706860  1.562153  3.401499
  C    12.663120  5.354959  3.226146
  C    11.437913  1.175530  2.774234
  C    11.433690  4.811535  2.737035
  N    13.656639  1.956982  2.538256
  N    13.543915  5.625247  2.300198
  N    11.537941  1.193664  1.452710
  N    11.447715  4.630938  1.385781
  N    10.971606  1.162804  5.323604
  N    11.132616  4.960540  5.315812
  S    10.161924  0.895817  3.901304
  S    10.286448  4.437699  3.925794
  S    13.000080  1.720583  1.011768
  S    12.941528  5.205133  0.844799
  S    12.571859  1.643832  5.073002
  S    12.692239  5.526596  4.997055
