16  
    
  C     9.745947 -0.251440  2.873915
  C     9.614779  3.764109  2.763422
  C     8.605724 -0.619251  2.177847
  C     8.420068  3.437344  2.046335
  N    10.826431  0.003668  2.071432
  N    10.659503  3.884989  1.977052
  N     8.776422 -0.864152  0.856382
  N     8.516096  3.371453  0.722790
  N     7.868133 -0.467740  4.650787
  N     7.878781  3.385406  4.565718
  S     7.254122 -0.795274  3.153514
  S     7.060720  3.267814  3.122784
  S    10.322518 -0.386424  0.552813
  S    10.098933  3.754109  0.368769
  S     9.442093  0.077190  4.559521
  S     9.536117  3.696948  4.485026
