16  
    
  C     6.089293 -2.117925  1.733288
  C     6.196259  1.773444  1.856449
  C     4.824368 -2.466419  1.118783
  C     4.872937  1.872936  1.178681
  N     7.143171 -2.102149  0.883748
  N     7.209218  1.722321  1.025915
  N     4.948508 -2.561203 -0.226641
  N     4.876591  1.732825 -0.141022
  N     4.307642 -2.130910  3.561225
  N     4.414118  1.812676  3.698367
  S     3.462045 -2.507445  2.208622
  S     3.546835  1.978005  2.284503
  S     6.542576 -2.551657 -0.581078
  S     6.540073  1.526064 -0.540382
  S     5.937980 -1.794242  3.450096
  S     6.048257  1.865230  3.561214
