16  
    
  C     5.710269 -1.974564  1.637162
  C     5.200228  1.482698  1.709612
  C     4.451693 -2.493002  1.129348
  C     4.051351  0.813200  1.175002
  N     6.735327 -1.983070  0.819356
  N     6.155038  1.746326  0.830185
  N     4.517358 -2.778684 -0.138984
  N     4.105661  0.561457 -0.134551
  N     4.143707 -2.347594  3.670221
  N     3.569693  1.154949  3.654836
  S     3.227291 -2.675894  2.373892
  S     2.747956  0.626233  2.298750
  S     6.073680 -2.396496 -0.669309
  S     5.548541  1.246595 -0.644380
  S     5.683221 -1.834659  3.395547
  S     5.184221  1.505995  3.428051
