16  
    
  C     8.439102 -0.950928  2.450151
  C     8.205678  2.604937  2.209078
  C     7.181092 -1.519117  2.047859
  C     7.041932  2.231742  1.493528
  N     9.410380 -0.969075  1.520175
  N     9.317674  2.689960  1.482137
  N     7.150540 -1.909968  0.764729
  N     7.255985  1.906154  0.235449
  N     6.788427 -0.665430  4.494194
  N     6.292222  2.458593  3.861815
  S     5.878746 -1.337949  3.245481
  S     5.603029  2.094415  2.410516
  S     8.645213 -1.554230  0.104018
  S     8.826111  2.266166 -0.112174
  S     8.384367 -0.410899  4.193778
  S     7.862421  2.830954  3.859718
