16  
    
  C     7.214212 -1.664858  1.801309
  C     6.969056  2.086421  1.930269
  C     5.991281 -2.045542  1.127356
  C     5.750541  1.681206  1.311608
  N     8.256513 -1.528834  1.009990
  N     7.986557  2.285260  1.083002
  N     6.112872 -2.386640 -0.118725
  N     5.790119  1.590573 -0.010368
  N     5.330657 -1.814681  3.578080
  N     5.309992  1.571288  3.801961
  S     4.624666 -2.228346  2.169858
  S     4.450594  1.399195  2.429767
  S     7.666235 -1.938173 -0.516170
  S     7.368235  2.044367 -0.427597
  S     6.908438 -1.273231  3.457995
  S     6.857009  2.108428  3.621266
