16  
    
  C    10.999162  0.509395  3.228433
  C    11.051908  4.291401  3.375830
  C     9.834910  0.027287  2.521850
  C     9.833650  3.729143  2.801485
  N    11.963739  0.982889  2.430527
  N    12.056739  4.577603  2.502808
  N    10.016799 -0.057302  1.208893
  N     9.877187  3.764203  1.485176
  N     9.140625  0.148403  4.942924
  N     9.325781  4.012447  5.303972
  S     8.417724 -0.157818  3.467335
  S     8.575285  3.502310  3.922759
  S    11.452155  0.710623  0.852740
  S    11.406598  4.220649  1.016616
  S    10.720502  0.620782  4.906695
  S    10.882005  4.550487  5.115105
