16  
    
  C     5.232125 -2.246308  1.535197
  C     4.966223  1.594797  1.908766
  C     4.071385 -2.799801  0.931643
  C     3.848048  0.932097  1.307385
  N     6.280508 -2.176455  0.711802
  N     6.109459  1.679941  1.225107
  N     4.276316 -3.258489 -0.280621
  N     4.159635  0.449766  0.097408
  N     3.401815 -2.238783  3.370887
  N     2.994401  1.564658  3.694394
  S     2.797579 -3.134559  2.081948
  S     2.411255  0.807506  2.315940
  S     5.803704 -2.783238 -0.709879
  S     5.723408  0.939992 -0.230183
  S     5.007721 -1.795413  3.162057
  S     4.562200  2.258679  3.462790
