16  
    
  C     7.085382 -1.197057  2.316764
  C     7.776055  2.826034  2.346302
  C     6.109153 -1.869883  1.531627
  C     6.622170  2.356714  1.623464
  N     8.205845 -0.900162  1.641887
  N     8.800999  3.099860  1.530613
  N     6.342295 -1.830318  0.213584
  N     6.804858  2.179057  0.296283
  N     5.270578 -1.984289  3.907022
  N     5.951648  2.495331  4.166416
  S     4.841183 -2.528900  2.442024
  S     5.286728  2.054602  2.719231
  S     7.885503 -1.254351  0.066930
  S     8.362372  2.682418  0.003662
  S     6.815049 -1.297843  4.029396
  S     7.585877  2.946362  4.103053
