16  
    
  C    10.357730  0.111583  2.678245
  C    10.198103  4.145047  3.122604
  C     9.204141 -0.505567  2.137796
  C     8.964320  3.852429  2.469498
  N    11.449298  0.058508  1.891295
  N    11.251926  4.078869  2.331479
  N     9.333613 -0.902618  0.854185
  N     9.085616  3.479164  1.183621
  N     8.502131  0.334132  4.401562
  N     8.732661  4.162533  5.039845
  S     7.777171 -0.416169  3.115170
  S     7.760419  3.956608  3.729546
  S    10.929897 -0.542980  0.417692
  S    10.680819  3.527668  0.878330
  S    10.137382  0.763721  4.299248
  S    10.239640  4.758612  4.757975
