16  
    
  C     8.389598 -0.927512  2.471426
  C     8.116700  2.643099  2.314613
  C     7.123801 -1.541346  2.020591
  C     6.961617  2.174447  1.563644
  N     9.294701 -0.873282  1.551717
  N     9.177385  2.837701  1.577905
  N     7.118763 -2.023334  0.798768
  N     7.208557  1.984393  0.282493
  N     6.871607 -0.694519  4.455203
  N     6.236660  2.840934  3.952735
  S     5.936100 -1.383851  3.232719
  S     5.597088  2.051656  2.602361
  S     8.618122 -1.604441  0.236007
  S     8.793587  2.425523 -0.026244
  S     8.439505 -0.445643  4.117254
  S     7.888378  3.052816  3.982013
