16  
    
  C     6.726165 -1.855224  1.803434
  C     6.590799  2.226521  2.053301
  C     5.411745 -2.087281  1.200013
  C     5.493259  1.507273  1.490340
  N     7.696214 -1.589723  0.968372
  N     7.537871  2.668951  1.212558
  N     5.498153 -2.152011 -0.118939
  N     5.574268  1.333267  0.183305
  N     5.063002 -2.201254  3.739271
  N     5.070681  1.507017  3.957142
  S     4.179584 -2.508051  2.382823
  S     4.233256  1.091362  2.586366
  S     7.037121 -1.799071 -0.536148
  S     6.979191  2.094205 -0.320495
  S     6.668973 -1.780687  3.526243
  S     6.456006  2.362567  3.780055
