16  
    
  C     8.372005 -0.952872  2.487261
  C     8.165838  2.617797  2.115242
  C     7.128363 -1.350251  1.952069
  C     7.044805  2.178937  1.338852
  N     9.345540 -0.969928  1.603961
  N     9.294702  2.646189  1.402808
  N     7.139742 -1.729644  0.675856
  N     7.299994  1.939042  0.035204
  N     6.757281 -0.641053  4.386861
  N     6.303798  2.165369  3.866194
  S     5.883475 -1.309451  3.128856
  S     5.606620  2.045119  2.333287
  S     8.709690 -1.474399  0.200647
  S     8.937937  2.170344 -0.101272
  S     8.369522 -0.424786  4.124776
  S     7.914314  2.751748  3.870956
