16  
    
  C    11.780052  1.096398  3.396334
  C    11.901802  5.086627  3.331967
  C    10.569728  0.631198  2.678362
  C    10.723859  4.519342  2.684898
  N    12.849859  1.159851  2.583970
  N    12.983480  5.095877  2.532139
  N    10.804395  0.206644  1.432099
  N    10.812710  4.215513  1.382561
  N     9.991648  0.924562  5.172477
  N    10.173399  4.896608  5.188905
  S     9.244903  0.592321  3.709438
  S     9.345085  4.426329  3.823563
  S    12.372881  0.680262  1.088917
  S    12.471584  4.462381  1.060594
  S    11.552413  1.605850  5.100509
  S    11.755987  5.377766  4.986712
