16  
    
  C     5.833990 -2.134673  1.890380
  C     6.094162  1.660010  2.001956
  C     4.594511 -2.543964  1.181424
  C     4.773795  1.674291  1.436381
  N     6.869637 -2.000739  1.092393
  N     7.030162  1.392187  1.088046
  N     4.728065 -2.696676 -0.129132
  N     4.720814  1.347175  0.127009
  N     4.004369 -2.343782  3.657969
  N     4.492547  2.084824  3.978250
  S     3.218529 -2.828748  2.304738
  S     3.553640  1.966742  2.628903
  S     6.306369 -2.290948 -0.473258
  S     6.285293  1.163618 -0.341824
  S     5.602631 -1.975768  3.606808
  S     6.131834  2.147448  3.695872
