16  
    
  C     3.779516 -2.763464  1.332479
  C     4.065050  1.151135  1.481259
  C     2.676137 -3.494748  0.736273
  C     2.868959  0.597952  0.940469
  N     4.813466 -2.561561  0.509822
  N     5.050965  1.350988  0.607937
  N     2.955334 -3.908216 -0.500576
  N     2.885471  0.403670 -0.364971
  N     2.052592 -2.844211  3.196294
  N     2.390002  1.017974  3.416351
  S     1.298922 -3.526240  1.883773
  S     1.576775  0.508863  2.012617
  S     4.471433 -3.375297 -0.861228
  S     4.449699  0.822871 -0.807032
  S     3.656257 -2.476861  3.028882
  S     3.964448  1.347791  3.217627
