16  
    
  C     5.768268 -2.166175  2.094751
  C     5.895792  1.333340  1.899323
  C     4.540949 -2.574630  1.441818
  C     4.711834  0.957088  1.206387
  N     6.810348 -2.020778  1.289872
  N     6.936914  1.599902  1.122334
  N     4.677340 -2.897436  0.155924
  N     4.848346  0.954660 -0.112179
  N     3.940745 -2.169771  3.940660
  N     4.095745  0.843258  3.691657
  S     3.213714 -2.833877  2.528358
  S     3.453932  0.421911  2.223869
  S     6.242803 -2.410646 -0.257997
  S     6.374673  1.477450 -0.408450
  S     5.593859 -1.949277  3.829788
  S     5.620420  1.561844  3.644853
