16  
    
  C     6.073198 -2.141975  1.726533
  C     6.127020  1.775294  1.799997
  C     4.817167 -2.490833  1.096614
  C     4.843793  1.802189  1.216705
  N     7.120619 -2.182815  0.944714
  N     7.156706  1.575637  0.958283
  N     4.901508 -2.665292 -0.212367
  N     4.908704  1.732573 -0.100183
  N     4.272417 -2.121691  3.670518
  N     4.398811  1.922740  3.746599
  S     3.443815 -2.497752  2.198819
  S     3.498003  1.958637  2.325909
  S     6.514352 -2.535678 -0.577293
  S     6.467775  1.506289 -0.537188
  S     5.942953 -1.895778  3.450082
  S     6.078212  1.871621  3.557282
