16  
    
  C     4.256507 -2.441249  1.622062
  C     4.126697  1.216816  1.670147
  C     3.136375 -3.197230  1.089475
  C     2.877674  0.749864  1.085650
  N     5.232470 -2.248041  0.769985
  N     5.132324  1.282206  0.788446
  N     3.285685 -3.625792 -0.155680
  N     2.924937  0.528453 -0.218193
  N     2.671045 -2.884250  3.628322
  N     2.356860  1.301083  3.498413
  S     1.824143 -3.350090  2.272611
  S     1.526214  0.872192  2.146008
  S     4.785700 -2.931425 -0.697635
  S     4.437315  0.860184 -0.704653
  S     4.117368 -2.170663  3.338707
  S     4.018121  1.434557  3.342815
