16  
    
  C    10.981554  0.573695  3.278568
  C    11.172925  4.213321  3.146496
  C     9.838807  0.189882  2.546937
  C     9.945694  3.759116  2.575234
  N    12.041691  0.852562  2.491253
  N    12.233320  4.350427  2.325170
  N    10.059970  0.076620  1.223810
  N    10.009472  3.752381  1.258109
  N     9.281419 -0.073160  5.050805
  N     9.573775  3.796424  5.112271
  S     8.548464 -0.273507  3.600194
  S     8.712067  3.464672  3.743750
  S    11.596005  0.535940  0.944099
  S    11.514958  4.153913  0.755281
  S    10.756856  0.689037  5.028349
  S    11.127222  4.369024  4.926302
