16  
    
  C    12.662911  1.610637  3.778355
  C    12.283169  5.013776  3.457471
  C    11.340847  1.341180  3.114244
  C    11.176094  4.494416  2.725379
  N    13.747487  1.655745  2.981621
  N    13.404620  5.188583  2.694879
  N    11.524865  1.165605  1.805085
  N    11.344474  4.335477  1.418141
  N    10.880905  1.333744  5.618801
  N    10.497082  4.919202  5.153037
  S     9.989794  1.285047  4.234204
  S     9.799292  4.301033  3.825205
  S    13.139467  1.321641  1.393836
  S    12.920934  4.788426  1.138696
  S    12.493623  1.806795  5.517263
  S    12.131070  5.098424  5.137951
