16  
    
  C     3.665616 -2.903890  1.139710
  C     3.947311  0.831169  1.458039
  C     2.484563 -3.524643  0.610850
  C     2.728688  0.368740  0.864240
  N     4.665212 -2.772025  0.268714
  N     4.962984  1.150522  0.671551
  N     2.546558 -3.934065 -0.652353
  N     2.899187  0.118910 -0.434604
  N     1.875899 -2.966316  2.961197
  N     2.244640  0.557764  3.333855
  S     1.206522 -3.801436  1.691027
  S     1.479271  0.116906  1.996260
  S     4.079270 -3.427776 -1.162800
  S     4.394045  0.637986 -0.850090
  S     3.421910 -2.383102  2.789673
  S     3.805611  1.141611  3.154649
