16  
    
  C     6.566429 -1.742304  1.911525
  C     6.596549  2.188327  2.095300
  C     5.347453 -2.165727  1.297517
  C     5.459380  1.560025  1.468471
  N     7.575476 -1.512309  1.052078
  N     7.450897  2.627831  1.165764
  N     5.348467 -2.037251 -0.039991
  N     5.546012  1.412231  0.149910
  N     4.969789 -2.249656  3.833718
  N     4.987106  1.522974  4.037239
  S     4.072722 -2.510175  2.394527
  S     4.217750  1.075957  2.617353
  S     6.983838 -1.786215 -0.454189
  S     6.973452  2.096177 -0.277204
  S     6.568923 -1.809460  3.657175
  S     6.466413  2.370798  3.858165
