16  
    
  C     9.784031 -0.050012  2.851951
  C     9.870249  3.536927  2.662797
  C     8.565966 -0.558765  2.210470
  C     8.582408  3.175506  2.122251
  N    10.708168  0.476857  1.998733
  N    10.883078  3.777819  1.812641
  N     8.623772 -0.557904  0.842030
  N     8.577278  3.286080  0.808585
  N     8.202486 -0.767576  4.742808
  N     8.163347  3.153262  4.601766
  S     7.292360 -0.985307  3.342543
  S     7.231406  2.871813  3.211790
  S    10.113171  0.145741  0.459649
  S    10.104303  3.678465  0.292090
  S     9.611735  0.133942  4.535443
  S     9.743073  3.641954  4.434276
