16  
    
  C     4.723432 -2.034173  1.655807
  C     4.393667  1.421909  1.395603
  C     3.396548 -2.169026  1.087921
  C     3.162998  1.043804  0.755165
  N     5.733606 -2.051062  0.792849
  N     5.415172  1.688920  0.575497
  N     3.416620 -2.400576 -0.217370
  N     3.290631  0.804968 -0.553889
  N     3.027568 -1.811749  3.602482
  N     2.686633  0.730445  3.233599
  S     2.124272 -2.171198  2.292165
  S     1.862113  0.693571  1.790679
  S     5.028892 -2.297494 -0.699061
  S     4.853232  1.322045 -0.947653
  S     4.683498 -1.790052  3.391274
  S     4.199391  1.468808  3.159771
