16  
    
  C    11.315156  1.054257  3.312236
  C    11.636048  4.639761  2.874874
  C    10.074170  0.626516  2.734495
  C    10.436570  4.181795  2.242556
  N    12.303819  0.993115  2.408658
  N    12.657657  4.863888  2.034888
  N    10.014334  0.455179  1.432982
  N    10.513491  4.029608  0.948470
  N     9.593562  0.817997  5.279709
  N     9.812431  4.492399  4.819106
  S     8.782307  0.432745  3.909504
  S     9.106983  3.959677  3.407809
  S    11.571505  0.665440  0.948841
  S    12.047161  4.531983  0.464727
  S    11.190559  1.195805  5.055280
  S    11.454398  4.810836  4.663351
