16  
    
  C    11.317105  1.273076  3.188720
  C    11.398099  4.885443  2.915435
  C    10.078550  0.642736  2.662855
  C    10.288079  4.222421  2.227737
  N    12.344009  1.369713  2.332131
  N    12.343742  5.214042  2.060586
  N    10.191270  0.554550  1.341428
  N    10.442872  4.017330  0.939262
  N     9.832117  0.712501  5.239719
  N     9.627332  4.594327  4.787692
  S     8.947688  0.123152  3.934010
  S     8.990327  3.921759  3.396445
  S    11.712516  0.974355  0.807418
  S    11.927178  4.638765  0.528383
  S    11.330485  1.377592  4.902694
  S    11.228500  5.046953  4.638022
