16  
    
  C     4.273220 -2.509822  1.607536
  C     4.157361  1.264033  1.715756
  C     3.064546 -3.123877  1.077676
  C     2.885672  1.022610  1.074308
  N     5.278616 -2.504219  0.732178
  N     5.136584  1.070467  0.867374
  N     3.085479 -3.413682 -0.222857
  N     2.878481  0.842148 -0.250975
  N     2.640768 -2.703500  3.550613
  N     2.424327  1.342415  3.653068
  S     1.847930 -3.426988  2.245934
  S     1.597807  1.079883  2.246075
  S     4.665515 -3.116482 -0.683888
  S     4.478098  0.821694 -0.676361
  S     4.147767 -2.054594  3.266950
  S     4.086376  1.429921  3.445777
