16  
    
  C     5.464298 -2.263249  1.855774
  C     5.280920  1.587094  1.646769
  C     4.261519 -2.664578  1.102927
  C     4.210981  0.991972  0.842091
  N     6.503359 -1.920044  1.092322
  N     6.228785  2.124686  0.894652
  N     4.409871 -2.678808 -0.207022
  N     4.485610  0.886701 -0.457213
  N     3.613594 -2.709006  3.653111
  N     3.372348  0.948885  3.246199
  S     2.920471 -3.033801  2.127365
  S     2.844627  0.611332  1.742359
  S     6.016553 -2.307304 -0.474116
  S     5.958609  1.671577 -0.683096
  S     5.217528 -2.182274  3.624965
  S     4.907642  1.651361  3.372342
