16  
    
  C     8.397778 -0.990006  2.495383
  C     8.147114  2.628619  2.289487
  C     7.135281 -1.502405  2.046984
  C     6.982190  2.121202  1.552458
  N     9.302561 -0.853994  1.535913
  N     9.206329  2.816755  1.555175
  N     7.126605 -2.025298  0.831932
  N     7.170186  1.983393  0.243594
  N     6.860629 -0.692933  4.444033
  N     6.217849  2.841871  3.974269
  S     5.943211 -1.377824  3.230288
  S     5.577623  2.052305  2.568237
  S     8.608358 -1.602029  0.235463
  S     8.811618  2.406665 -0.036114
  S     8.442926 -0.447564  4.103533
  S     7.900433  3.022153  3.977137
