16  
    
  C     8.709016 -0.916903  2.339528
  C     8.387937  3.281463  2.313806
  C     7.533700 -1.494722  1.669454
  C     7.234526  2.613503  1.743796
  N     9.753458 -0.778949  1.585973
  N     9.358173  3.546077  1.475464
  N     7.679305 -1.641285  0.378891
  N     7.398607  2.306216  0.463644
  N     7.067666 -1.416116  4.179251
  N     6.799282  2.809793  4.250761
  S     6.270960 -1.728958  2.773463
  S     5.995582  2.209471  2.960975
  S     9.270586 -1.218008  0.081156
  S     8.841817  2.973051 -0.038376
  S     8.589625 -0.770696  4.046633
  S     8.289727  3.532432  4.045620
