16  
    
  C     7.297940 -1.487845  2.242092
  C     7.690791  2.774870  2.310110
  C     6.200077 -2.102881  1.492498
  C     6.496006  2.313012  1.629771
  N     8.210652 -0.892690  1.495595
  N     8.742546  2.951300  1.515259
  N     6.442967 -2.207990  0.202210
  N     6.534470  2.288796  0.290424
  N     5.438932 -2.107257  3.947722
  N     6.014426  2.260949  4.148475
  S     4.887322 -2.540450  2.443010
  S     5.193549  2.011082  2.724214
  S     7.815058 -1.312990 -0.054783
  S     8.200230  2.697450 -0.070864
  S     6.933042 -1.405187  3.963615
  S     7.507522  2.948391  4.051635
