16  
    
  C     4.033816 -2.847567  1.547712
  C     4.119759  1.206805  1.505395
  C     2.827196 -3.346352  0.916261
  C     2.817178  0.932184  0.913185
  N     5.088668 -2.799411  0.697262
  N     5.147314  1.281534  0.659476
  N     2.927896 -3.737941 -0.381121
  N     2.937106  0.644390 -0.385592
  N     2.059331 -2.722000  3.221049
  N     2.399763  1.241859  3.446219
  S     1.438033 -3.483890  1.871641
  S     1.543938  0.668625  2.136807
  S     4.502060 -3.283089 -0.782111
  S     4.504429  0.939357 -0.885107
  S     3.702699 -2.381096  3.185545
  S     4.044608  1.509904  3.240441
