16  
    
  C     6.328863 -1.595044  1.607361
  C     6.388989  2.147231  1.923898
  C     5.253074 -2.327166  0.971101
  C     5.283189  1.501954  1.308862
  N     7.377876 -1.469598  0.840687
  N     7.399393  2.371620  1.088536
  N     5.378043 -2.555211 -0.315218
  N     5.521762  1.136603  0.033894
  N     4.393230 -1.702076  3.378649
  N     4.571437  1.995739  3.730992
  S     3.837900 -2.515972  2.005726
  S     3.890094  1.246933  2.395091
  S     6.883331 -1.853092 -0.722684
  S     6.955763  1.766857 -0.355425
  S     6.058139 -1.325340  3.313006
  S     6.133359  2.557742  3.611328
