16  
    
  C     8.295114 -0.934444  2.512154
  C     8.092203  3.079178  2.341779
  C     7.014009 -1.329370  1.909209
  C     6.999296  2.364252  1.693572
  N     9.330869 -0.927808  1.672405
  N     9.189641  3.219673  1.583746
  N     7.142596 -1.724107  0.639273
  N     7.209695  2.048876  0.416150
  N     6.584943 -0.801045  4.387293
  N     6.406490  2.494588  4.233634
  S     5.749526 -1.497067  3.041552
  S     5.679336  2.099033  2.741826
  S     8.708993 -1.444573  0.215699
  S     8.780570  2.600996  0.075662
  S     8.172206 -0.333258  4.156641
  S     7.871089  3.285150  4.033496
