16  
    
  C    11.236261  0.459565  3.026432
  C    11.138127  4.415196  3.325008
  C    10.094481 -0.121902  2.384042
  C     9.839868  4.210407  2.773080
  N    12.245942  0.728298  2.171665
  N    12.158192  4.291963  2.485532
  N    10.216072 -0.465949  1.088599
  N     9.874017  3.934177  1.475407
  N     9.432382  0.393400  4.802451
  N     9.482078  4.034866  5.286872
  S     8.740959 -0.315356  3.428272
  S     8.563992  4.300744  3.943239
  S    11.776717  0.064038  0.729499
  S    11.491487  4.056303  1.021784
  S    10.990096  1.087456  4.638199
  S    11.067849  4.564429  5.123503
