16  
    
  C     4.402964 -2.154177  1.887516
  C     3.984666  1.186829  1.164999
  C     3.257965 -2.790789  1.275322
  C     2.835754  0.586462  0.487175
  N     5.469742 -2.015666  1.060502
  N     5.052405  1.346473  0.380965
  N     3.472523 -3.170020  0.006233
  N     3.108289  0.219223 -0.781987
  N     2.565348 -2.336448  3.696454
  N     2.258053  0.929321  3.051998
  S     1.930019 -3.063271  2.333469
  S     1.552123  0.268024  1.667313
  S     4.974992 -2.556034 -0.462239
  S     4.630208  0.731891 -1.112945
  S     4.176664 -1.896730  3.600439
  S     3.835351  1.488718  2.829194
