16  
    
  C     6.292966 -1.605411  1.666038
  C     6.410637  2.104413  1.992035
  C     5.191586 -2.311028  1.048441
  C     5.278546  1.561406  1.337431
  N     7.340402 -1.387859  0.909424
  N     7.433014  2.358334  1.167086
  N     5.360223 -2.494421 -0.244687
  N     5.470426  1.282039  0.038829
  N     4.493056 -2.018404  3.579251
  N     4.643405  1.941534  3.812033
  S     3.872477 -2.532374  2.127774
  S     3.942917  1.306273  2.433889
  S     6.916226 -1.997356 -0.573364
  S     6.998301  1.791431 -0.301465
  S     6.081126 -1.470096  3.446864
  S     6.151618  2.596588  3.679839
