16  
    
  C     8.455072 -1.029162  2.475013
  C     8.294889  2.293736  2.087013
  C     7.195769 -1.162824  1.791775
  C     7.202813  1.786315  1.316169
  N     9.501142 -0.842974  1.675210
  N     9.397509  2.618280  1.381005
  N     7.365027 -1.346529  0.506288
  N     7.415745  1.806522  0.016717
  N     6.522355 -0.826385  4.167014
  N     6.201084  2.252101  3.703785
  S     5.736526 -0.965714  2.674034
  S     5.677756  1.656440  2.225707
  S     8.936732 -1.143795  0.148998
  S     8.957839  2.324961 -0.181222
  S     8.201877 -0.662435  4.133000
  S     7.862121  2.503059  3.784767
