16  
    
  C    11.567469  1.399489  2.835808
  C    11.458083  5.075871  3.165766
  C    10.375575  0.742546  2.365421
  C    10.397162  4.496156  2.395168
  N    12.516937  1.627025  1.932869
  N    12.503018  5.332334  2.441803
  N    10.479890  0.444684  1.090743
  N    10.591376  4.437773  1.070572
  N    10.203134  0.616228  5.002502
  N     9.704959  4.390926  4.826523
  S     9.379763  0.001491  3.663923
  S     9.051291  4.008651  3.365482
  S    11.948931  0.922746  0.468930
  S    12.114826  4.964766  0.848283
  S    11.501378  1.613451  4.626849
  S    11.254561  4.988342  4.866657
