16  
    
  C    12.663847  1.585478  3.796875
  C    12.351458  5.032700  3.444757
  C    11.359359  1.354244  3.102136
  C    11.169198  4.514052  2.738697
  N    13.702191  1.685011  2.965537
  N    13.427166  5.180925  2.689162
  N    11.498510  1.144556  1.798366
  N    11.359458  4.349845  1.422923
  N    10.870926  1.275414  5.644600
  N    10.507663  4.938218  5.153742
  S     9.985202  1.270565  4.235770
  S     9.800777  4.318367  3.839770
  S    13.133937  1.314316  1.403192
  S    12.889347  4.784011  1.128129
  S    12.494645  1.807773  5.533260
  S    12.124942  5.104301  5.140349
