16  
    
  C     4.614945 -2.154149  1.530695
  C     4.666335  1.554547  1.688174
  C     3.299385 -2.358198  0.969230
  C     3.479395  1.122997  0.997202
  N     5.579288 -2.022818  0.655479
  N     5.676961  1.883544  0.857036
  N     3.298368 -2.580174 -0.325271
  N     3.607178  1.003693 -0.311085
  N     3.013441 -2.332244  3.501160
  N     2.832581  1.446760  3.426359
  S     2.059880 -2.184221  2.157077
  S     2.053697  1.054025  2.032542
  S     4.903145 -2.346671 -0.844242
  S     5.100527  1.499116 -0.656371
  S     4.609984 -1.953834  3.275956
  S     4.511081  1.712672  3.434576
