16  
    
  C     5.901420 -2.148080  1.717230
  C     5.533159  1.173379  1.756645
  C     4.581027 -2.517185  1.157604
  C     4.287974  0.731415  1.142706
  N     6.898606 -2.003598  0.875304
  N     6.543849  1.144301  0.885035
  N     4.588690 -2.530913 -0.163130
  N     4.409749  0.545834 -0.183361
  N     4.340575 -2.328500  3.726540
  N     3.739460  1.233111  3.638783
  S     3.390365 -2.575654  2.403122
  S     2.959351  0.723286  2.266072
  S     6.180229 -2.307849 -0.641822
  S     5.965311  0.781067 -0.594555
  S     5.937461 -2.065242  3.481288
  S     5.354466  1.606165  3.442114
