16  
    
  C     7.312434 -1.784286  2.226982
  C     7.456028  2.387164  2.130701
  C     6.101706 -2.104827  1.513279
  C     6.196297  2.019054  1.565286
  N     8.298289 -1.406575  1.433608
  N     8.440072  2.500138  1.231907
  N     6.254614 -2.226932  0.206961
  N     6.262136  1.921298  0.222393
  N     5.578516 -2.038426  4.062163
  N     5.787094  2.230887  4.113590
  S     4.712118 -2.280577  2.596352
  S     4.933247  1.668358  2.764690
  S     7.824051 -1.741001 -0.119610
  S     7.794685  2.059487 -0.220552
  S     7.183659 -1.652608  3.926843
  S     7.374196  2.619320  3.839657
