16  
    
  C     3.448219 -3.083208  1.037937
  C     3.720981  0.582242  1.428166
  C     2.199148 -3.486713  0.454225
  C     2.557266  0.144936  0.702629
  N     4.447530 -2.855536  0.156847
  N     4.756922  0.833040  0.648174
  N     2.202567 -3.596399 -0.880637
  N     2.713072  0.037982 -0.610555
  N     1.677096 -3.283458  2.922365
  N     1.950262  0.338896  3.195036
  S     0.856783 -3.646020  1.515295
  S     1.159832  0.114001  1.760537
  S     3.827758 -3.371848 -1.328547
  S     4.263977  0.441911 -0.925665
  S     3.279046 -2.957926  2.816478
  S     3.553008  0.890234  3.095403
