16  
    
  C     8.790774 -0.764350  2.363398
  C     8.493579  3.195374  2.584914
  C     7.573141 -1.135690  1.664705
  C     7.339046  2.637418  1.947886
  N     9.896158 -0.706604  1.660619
  N     9.458168  3.540887  1.790139
  N     7.776120 -1.345696  0.392554
  N     7.469217  2.484469  0.653764
  N     6.850918 -0.743435  4.106852
  N     6.851823  2.818248  4.444612
  S     6.091592 -1.101403  2.663452
  S     6.084324  2.328914  3.068873
  S     9.386859 -1.086955  0.098899
  S     8.978943  3.054734  0.222150
  S     8.496919 -0.512945  4.088297
  S     8.379239  3.347953  4.279964
