16  
    
  C     9.723387 -0.331478  2.534124
  C     9.733393  3.478998  2.543246
  C     8.432425 -0.708350  1.996690
  C     8.439074  3.175949  1.974496
  N    10.705343 -0.157939  1.626562
  N    10.764548  3.719737  1.725649
  N     8.495731 -0.863783  0.652833
  N     8.521157  3.198683  0.656620
  N     8.171477 -0.550492  4.550253
  N     8.128330  2.904379  4.489204
  S     7.213616 -1.051622  3.228169
  S     7.167288  2.784220  3.102407
  S    10.052664 -0.581801  0.172510
  S    10.090894  3.596543  0.197966
  S     9.760462 -0.243248  4.213431
  S     9.695552  3.282472  4.266952
