16  
    
  C     7.854182 -0.846496  2.007402
  C     8.113388  3.040973  2.463926
  C     6.674453 -1.375640  1.370081
  C     6.923126  2.546565  1.807537
  N     8.903540 -0.653494  1.180162
  N     9.188675  3.185664  1.687474
  N     6.849756 -1.686448  0.073366
  N     7.088503  2.400434  0.512093
  N     6.061613 -0.909157  3.769090
  N     6.341289  2.484143  4.290638
  S     5.373686 -1.720430  2.418695
  S     5.503833  2.326074  2.882931
  S     8.365723 -1.203037 -0.276411
  S     8.653485  2.874925  0.104468
  S     7.656837 -0.594694  3.632617
  S     7.911640  3.000900  4.202826
