16  
    
  C     4.316646 -2.266153  1.854382
  C     4.012746  1.190585  1.144475
  C     3.233061 -2.995198  1.272344
  C     2.965811  0.367154  0.623342
  N     5.273535 -1.908173  1.005887
  N     5.016661  1.448098  0.285595
  N     3.387450 -3.227700 -0.034236
  N     3.096148  0.079963 -0.689105
  N     2.551749 -2.338176  3.684725
  N     2.249950  0.955495  3.025053
  S     1.842025 -3.091556  2.369619
  S     1.620706  0.181905  1.710200
  S     4.833787 -2.605724 -0.445791
  S     4.623038  0.712845 -1.125871
  S     4.169091 -1.982347  3.548378
  S     3.750039  1.525135  2.813346
