16  
    
  C     4.676677 -2.580966  1.553317
  C     5.266798  1.640702  1.800462
  C     3.481488 -2.978864  0.868815
  C     3.947095  1.344360  1.337173
  N     5.691776 -2.153638  0.733615
  N     6.221280  1.626430  0.874173
  N     3.512225 -2.875671 -0.472752
  N     3.884377  1.182027  0.008606
  N     2.873081 -2.989327  3.339315
  N     3.630467  1.614121  3.845711
  S     2.123217 -3.412387  1.908508
  S     2.669460  1.317607  2.526469
  S     5.031844 -2.292391 -0.807088
  S     5.462537  1.283316 -0.573061
  S     4.393920 -2.412197  3.247452
  S     5.250117  1.773197  3.559701
