16  
    
  C    11.349396  0.426584  3.043964
  C    11.103488  4.463880  3.501923
  C    10.225922 -0.101161  2.300322
  C     9.826256  4.202565  2.874626
  N    12.500741  0.626337  2.312735
  N    12.059485  4.443151  2.596789
  N    10.511606 -0.406363  1.021185
  N     9.813469  3.971515  1.538093
  N     9.300146  0.391080  4.724285
  N     9.411201  4.492989  5.455338
  S     8.798531 -0.364727  3.319451
  S     8.514118  4.306211  4.066316
  S    12.110410  0.124544  0.786777
  S    11.433575  4.024245  1.128695
  S    10.878066  0.882841  4.647588
  S    11.046952  4.703552  5.219538
