16  
    
  C    10.415792  0.104050  2.692706
  C    10.257024  4.185566  3.128457
  C     9.210038 -0.545987  2.165330
  C     8.995435  3.846983  2.498489
  N    11.487037  0.037587  1.859919
  N    11.274616  4.064273  2.293631
  N     9.360804 -0.918759  0.883741
  N     9.056701  3.497804  1.213305
  N     8.485959  0.291432  4.444963
  N     8.700805  4.175634  5.049248
  S     7.772151 -0.416328  3.144045
  S     7.732482  3.943013  3.727561
  S    10.890299 -0.537561  0.417143
  S    10.648710  3.517039  0.869007
  S    10.128686  0.720605  4.322319
  S    10.227916  4.738559  4.757029
