16  
    
  C     4.636489 -2.581987  1.514282
  C     5.292043  1.609382  1.790976
  C     3.412955 -3.009550  0.841066
  C     3.968594  1.251532  1.278935
  N     5.623810 -2.217005  0.769101
  N     6.244239  1.659862  0.816308
  N     3.440981 -2.775994 -0.444082
  N     3.931132  1.162355 -0.043701
  N     2.836535 -2.944341  3.323988
  N     3.626828  1.623012  3.776345
  S     2.114508 -3.365476  1.909509
  S     2.685288  1.291830  2.502663
  S     5.017923 -2.319455 -0.812825
  S     5.454222  1.305725 -0.617530
  S     4.420795 -2.465371  3.226614
  S     5.241648  1.775347  3.613094
