16  
    
  C     7.269557 -1.429560  2.250164
  C     7.261294  2.228082  2.080712
  C     6.020752 -1.883013  1.661860
  C     6.028686  1.675377  1.484543
  N     8.286068 -1.326586  1.378894
  N     8.265761  2.346947  1.247605
  N     6.143973 -2.231347  0.391248
  N     6.135975  1.292747  0.214024
  N     5.390852 -1.238574  3.997880
  N     5.586923  2.080438  4.023720
  S     4.719774 -2.089204  2.725419
  S     4.740094  1.603074  2.649400
  S     7.619181 -1.757609 -0.077937
  S     7.720635  1.817009 -0.262802
  S     7.042330 -0.929978  3.924747
  S     7.175776  2.446611  3.816631
