16  
    
  C    12.118834  1.657097  3.302570
  C    12.270046  5.399858  3.580497
  C    11.057093  0.994197  2.580516
  C    11.150247  4.687495  2.911116
  N    13.185073  1.850431  2.580213
  N    13.376711  5.601468  2.850219
  N    11.296112  0.816241  1.294171
  N    11.443104  4.421707  1.689325
  N    10.281158  1.224876  5.027132
  N    10.443829  4.900883  5.419017
  S     9.701733  0.738274  3.586645
  S     9.755729  4.412965  3.936219
  S    12.883188  1.307065  1.087983
  S    12.993998  5.054635  1.351162
  S    11.788708  1.805006  5.037769
  S    11.961087  5.631637  5.235109
