16  
    
  C    10.050643 -0.125300  2.912786
  C    10.272356  3.663940  3.112601
  C     8.854436 -0.352287  2.134422
  C     9.024821  3.934540  2.409780
  N    11.105714  0.141116  2.144526
  N    11.359877  3.549587  2.361965
  N     9.047478 -0.310209  0.802440
  N     9.185167  3.896869  1.088988
  N     8.184479 -0.479991  4.615219
  N     8.482980  3.616748  4.944594
  S     7.438712 -0.719102  3.132578
  S     7.722243  3.943445  3.521456
  S    10.656461 -0.020447  0.575204
  S    10.834390  3.731866  0.807623
  S     9.863217 -0.361114  4.705472
  S    10.182075  3.599608  4.863881
