16  
    
  C     6.232438 -1.711772  2.272542
  C     6.577573  2.035823  2.129080
  C     5.165776 -2.362744  1.587999
  C     5.367443  1.631529  1.506684
  N     7.180892 -1.219764  1.448105
  N     7.582213  2.267956  1.318000
  N     5.376453 -2.614493  0.285636
  N     5.413581  1.510752  0.184863
  N     4.355970 -2.092298  3.922376
  N     4.860845  1.953487  4.013909
  S     3.843138 -2.844572  2.567781
  S     4.036063  1.507884  2.648776
  S     6.789947 -1.817053 -0.089596
  S     6.988660  2.000154 -0.215108
  S     5.931184 -1.560337  3.966969
  S     6.442563  2.283242  3.838808
