16  
    
  C     4.283945 -2.329908  1.799788
  C     4.024257  1.182332  1.215856
  C     3.064675 -2.883845  1.234142
  C     2.919907  0.388882  0.685592
  N     5.251295 -2.156624  0.889154
  N     4.978261  1.506659  0.364036
  N     3.140623 -3.179639 -0.064135
  N     3.154748  0.040732 -0.559764
  N     2.631179 -2.813712  3.755469
  N     2.297888  0.908207  3.151100
  S     1.813725 -3.270978  2.380301
  S     1.726090  0.047051  1.915562
  S     4.686319 -2.722972 -0.564227
  S     4.582498  0.723073 -1.062988
  S     4.031832 -1.963516  3.509306
  S     3.723619  1.684463  2.824309
