16  
    
  C    11.359533  0.441166  3.037376
  C    11.055550  4.480572  3.484191
  C    10.255551 -0.062403  2.278479
  C     9.795075  4.151031  2.903872
  N    12.463743  0.682886  2.320956
  N    12.099951  4.411852  2.643970
  N    10.582401 -0.363100  1.014836
  N     9.835711  3.962809  1.606570
  N     9.302773  0.396146  4.644100
  N     9.374963  4.597373  5.474122
  S     8.812069 -0.380764  3.243767
  S     8.524285  4.281175  4.092551
  S    12.134377  0.094851  0.804136
  S    11.412946  4.049708  1.114754
  S    10.894180  0.858638  4.705237
  S    11.026770  4.744228  5.247723
