16  
    
  C    10.462702  0.579268  3.050602
  C    10.574253  4.493878  2.801727
  C     9.269739  0.047131  2.474517
  C     9.344583  4.036366  2.236389
  N    11.414200  0.851559  2.164843
  N    11.631730  4.600698  2.007648
  N     9.355001 -0.112125  1.155302
  N     9.467878  3.755253  0.955265
  N     8.753944  0.489919  4.956619
  N     8.881745  4.552551  4.730607
  S     8.019536 -0.247272  3.673641
  S     8.119841  3.696678  3.512484
  S    10.848753  0.389548  0.685249
  S    11.050144  4.077817  0.510187
  S    10.298190  1.003491  4.691285
  S    10.516378  4.850499  4.445945
