16  
    
  C     5.135009 -2.422218  1.603458
  C     4.940803  1.538065  2.104144
  C     3.926088 -2.954747  1.012329
  C     3.809534  0.947213  1.372709
  N     6.084747 -2.252390  0.688430
  N     5.976529  1.691770  1.295641
  N     4.071545 -3.355354 -0.213540
  N     3.994443  0.679129  0.059847
  N     3.353731 -2.436963  3.498442
  N     3.036899  1.292146  3.810363
  S     2.553013 -2.928803  2.090297
  S     2.402803  0.750562  2.336288
  S     5.611532 -2.975121 -0.703952
  S     5.533545  1.139239 -0.197634
  S     4.901393 -1.851900  3.247222
  S     4.642700  2.031585  3.744525
