16  
    
  C     3.784576 -2.765165  1.367983
  C     4.084587  1.214812  1.473580
  C     2.680195 -3.471695  0.790143
  C     2.849092  0.639615  0.954625
  N     4.876931 -2.621032  0.585232
  N     5.099170  1.328326  0.605319
  N     2.985721 -3.887194 -0.475245
  N     2.898385  0.464297 -0.369282
  N     2.058858 -2.812483  3.201646
  N     2.364462  1.076903  3.432274
  S     1.342390 -3.515200  1.867409
  S     1.557956  0.534256  2.031962
  S     4.465836 -3.348245 -0.835051
  S     4.455767  0.850374 -0.808060
  S     3.682602 -2.461560  3.056785
  S     4.001903  1.377325  3.211938
