16  
    
  C     8.186442 -0.857629  2.496827
  C     8.189991  2.984586  2.374342
  C     7.001441 -1.318668  1.826349
  C     7.075608  2.334544  1.748784
  N     9.204484 -0.644892  1.691710
  N     9.185469  3.226521  1.523448
  N     7.147869 -1.691168  0.563661
  N     7.166141  2.203106  0.430707
  N     6.342304 -0.887262  4.315554
  N     6.351743  2.871071  4.195983
  S     5.649271 -1.467157  2.894637
  S     5.762506  2.144431  2.806488
  S     8.707042 -1.246521  0.216146
  S     8.691732  2.706017 -0.020494
  S     7.955473 -0.430666  4.178485
  S     8.011951  3.292929  4.086316
