16  
    
  C    10.268418  0.615526  2.982070
  C    10.662248  4.545214  2.874554
  C     9.149823 -0.002114  2.363468
  C     9.432842  4.118214  2.280556
  N    11.197557  1.021648  2.145609
  N    11.619690  4.766388  2.003334
  N     9.321256 -0.199278  1.068691
  N     9.416422  4.108274  0.934983
  N     8.717665  0.065440  4.954761
  N     9.083835  3.969079  4.821274
  S     7.973252 -0.450490  3.551956
  S     8.159744  3.937763  3.444814
  S    10.734895  0.501329  0.655588
  S    11.014060  4.454949  0.503734
  S    10.267133  0.634771  4.734099
  S    10.686773  4.395423  4.616109
