16  
    
  C    11.815657  1.150871  3.375164
  C    11.915844  5.030192  3.319953
  C    10.682763  0.556554  2.700395
  C    10.668171  4.587477  2.755158
  N    12.908163  1.142947  2.625144
  N    12.981447  5.102978  2.561137
  N    10.858027  0.325284  1.388163
  N    10.913460  4.262448  1.469317
  N    10.014528  0.931773  5.200533
  N    10.111382  4.844394  5.158196
  S     9.244630  0.575892  3.740727
  S     9.312631  4.437116  3.792142
  S    12.434449  0.701710  1.095173
  S    12.456384  4.469979  1.104505
  S    11.570262  1.654716  5.050208
  S    11.704145  5.287936  5.027198
