16  
    
  C    12.358048  1.567966  3.308652
  C    12.369190  5.397849  3.613953
  C    11.178619  1.025999  2.617132
  C    11.185984  4.857745  3.027084
  N    13.390853  1.828780  2.500033
  N    13.393545  5.673929  2.795925
  N    11.318358  0.892853  1.296402
  N    11.338979  4.631035  1.728188
  N    10.490889  1.443285  5.158963
  N    10.540983  4.885791  5.445313
  S     9.899849  0.883162  3.700259
  S     9.926725  4.266998  4.026672
  S    12.885104  1.347740  0.934574
  S    12.769968  5.198951  1.271749
  S    12.134563  1.853185  5.002438
  S    12.073202  5.587248  5.350927
