16  
    
  C     9.119050 -0.600824  2.530080
  C     9.598293  3.492991  2.760316
  C     7.917278 -0.982049  1.841816
  C     8.367042  3.142837  2.201595
  N    10.239199 -0.492300  1.741571
  N    10.657268  3.433771  1.934207
  N     8.128257 -1.136960  0.521651
  N     8.401240  2.821854  0.901682
  N     7.240410 -0.551821  4.295439
  N     7.794937  3.843021  4.634571
  S     6.527147 -1.210810  2.904868
  S     6.975096  3.358620  3.276152
  S     9.700100 -0.781083  0.201454
  S     9.991175  2.903234  0.509798
  S     8.913714 -0.395293  4.226835
  S     9.428327  4.050307  4.357499
