16  
    
  C     3.416518 -3.082271  1.016220
  C     3.842012  0.706691  1.413775
  C     2.201362 -3.496587  0.435660
  C     2.622030  0.306937  0.767043
  N     4.487799 -3.057102  0.194332
  N     4.906078  0.832379  0.596980
  N     2.339343 -3.752018 -0.871412
  N     2.747268  0.087124 -0.537180
  N     1.743410 -3.062955  2.902854
  N     2.065596  0.386726  3.307786
  S     0.976738 -3.789400  1.589536
  S     1.278585  0.015882  1.857018
  S     3.858923 -3.337495 -1.277616
  S     4.326018  0.483519 -0.917128
  S     3.364973 -2.698067  2.684756
  S     3.567114  0.969430  3.129903
