16  
    
  C    12.169747  1.045820  3.470182
  C    12.298506  5.120644  3.322085
  C    10.903233  0.764622  2.739070
  C    11.022665  4.711502  2.740859
  N    13.182519  1.116359  2.586012
  N    13.280146  5.081468  2.402288
  N    11.034191  0.614629  1.431900
  N    11.037857  4.288344  1.469294
  N    10.220260  1.437721  5.114198
  N    10.535568  5.335412  5.173976
  S     9.475322  0.785911  3.744498
  S     9.679977  4.861713  3.839683
  S    12.651901  0.809791  1.078103
  S    12.607070  4.605028  0.925467
  S    11.874219  1.721518  5.041319
  S    12.169084  5.534178  5.037276
