16  
    
  C     8.980942 -0.334950  2.353564
  C     9.488418  3.359398  2.717558
  C     7.793847 -0.853917  1.739053
  C     8.174001  2.994996  2.158555
  N    10.082968 -0.215964  1.560925
  N    10.548319  3.175853  1.904607
  N     8.057541 -1.310430  0.467596
  N     8.314854  2.715722  0.864668
  N     7.195966 -0.358222  4.144961
  N     7.758854  3.289310  4.638967
  S     6.460458 -1.094933  2.861701
  S     6.870645  2.915246  3.299327
  S     9.631131 -0.910288  0.142000
  S     9.877583  2.782168  0.421049
  S     8.744813  0.156069  3.964003
  S     9.349613  3.659983  4.380970
