16  
    
  C     8.456100 -1.024708  2.471054
  C     8.300940  2.289916  2.086890
  C     7.198990 -1.161381  1.790906
  C     7.203149  1.785739  1.313547
  N     9.496504 -0.844319  1.674666
  N     9.397880  2.615138  1.377029
  N     7.361633 -1.347451  0.512900
  N     7.408296  1.807053  0.013057
  N     6.521149 -0.814390  4.170199
  N     6.202954  2.248894  3.699550
  S     5.739356 -0.966533  2.677131
  S     5.678326  1.655897  2.225136
  S     8.933037 -1.148310  0.148623
  S     8.960529  2.322568 -0.178501
  S     8.202085 -0.658671  4.136316
  S     7.860786  2.505379  3.793609
