16  
    
  C    10.059587 -0.188202  2.921422
  C    10.312270  3.762645  3.133173
  C     8.820234 -0.322059  2.139786
  C     9.063038  3.931007  2.426416
  N    11.136717  0.119276  2.146254
  N    11.373033  3.557820  2.373662
  N     9.051066 -0.328662  0.799839
  N     9.248585  3.920700  1.100536
  N     8.213138 -0.487910  4.637815
  N     8.475722  3.657316  4.965699
  S     7.458912 -0.688630  3.159581
  S     7.695569  3.924061  3.531962
  S    10.676533 -0.003112  0.564477
  S    10.821435  3.712220  0.820047
  S     9.882063 -0.342056  4.646988
  S    10.182327  3.662279  4.812271
