16  
    
  C     5.597494 -2.022879  1.846593
  C     5.164977  1.551400  1.708153
  C     4.451590 -2.636372  1.237375
  C     4.094522  0.833830  1.101444
  N     6.545553 -1.826785  0.971059
  N     6.100011  2.003182  0.885916
  N     4.516307 -2.835323 -0.047540
  N     4.136311  0.753546 -0.231200
  N     3.908311 -2.403782  3.706596
  N     3.557769  0.901417  3.645861
  S     3.059672 -2.751173  2.326766
  S     2.868169  0.409576  2.225693
  S     6.035785 -2.306059 -0.520252
  S     5.575138  1.580669 -0.673405
  S     5.439788 -1.807417  3.581013
  S     5.147249  1.514334  3.509763
