16  
    
  C     6.884176 -1.813448  1.712020
  C     6.604868  2.204409  1.981301
  C     5.628556 -2.269702  1.119123
  C     5.512281  1.521609  1.398450
  N     7.833470 -1.699771  0.810926
  N     7.537522  2.611682  1.095633
  N     5.589249 -2.258487 -0.204567
  N     5.675167  1.307977  0.086108
  N     5.175352 -2.059476  3.690828
  N     5.053855  1.547224  3.983771
  S     4.346604 -2.456763  2.299423
  S     4.287581  1.089094  2.576573
  S     7.162078 -1.820000 -0.680283
  S     7.032996  2.105353 -0.336121
  S     6.783273 -1.745767  3.436852
  S     6.532504  2.347802  3.723313
