16  
    
  C    11.402063  0.976126  3.086839
  C    11.348767  4.660666  3.369050
  C    10.193987  0.454433  2.541783
  C    10.303843  3.916211  2.769454
  N    12.383122  1.227875  2.188621
  N    12.348128  4.892106  2.501164
  N    10.353939  0.024478  1.284556
  N    10.358451  3.702850  1.473485
  N     9.608256  0.871070  4.980527
  N     9.566851  4.478008  5.121155
  S     8.852957  0.244237  3.626939
  S     8.921412  3.721871  3.779163
  S    11.807535  0.577582  0.721117
  S    11.854014  4.263978  1.044985
  S    11.236767  1.246210  4.804247
  S    11.092245  5.143512  5.001987
