16  
    
  C     5.840042 -2.309352  1.991176
  C     5.749705  1.322816  1.766329
  C     4.592082 -2.568104  1.364843
  C     4.575995  0.852880  1.090352
  N     6.866240 -2.108563  1.126723
  N     6.786200  1.618636  0.994524
  N     4.677490 -2.588871  0.029568
  N     4.740564  0.565341 -0.205992
  N     4.144498 -2.506968  3.873791
  N     3.973051  1.026855  3.622169
  S     3.296984 -2.611249  2.481859
  S     3.218183  0.548124  2.197500
  S     6.277220 -2.331086 -0.362805
  S     6.355423  1.033091 -0.539560
  S     5.736992 -2.093726  3.735660
  S     5.571280  1.348651  3.499858
