16  
    
  C     7.041318 -1.946843  1.656934
  C     6.681012  2.174558  1.985312
  C     5.719578 -2.246815  1.048411
  C     5.552941  1.484675  1.367220
  N     7.935314 -1.575141  0.777435
  N     7.595200  2.599572  1.120277
  N     5.749656 -2.294585 -0.262535
  N     5.583117  1.390135  0.037704
  N     5.293008 -1.940162  3.554284
  N     5.114050  1.672364  3.891456
  S     4.442089 -2.427931  2.209069
  S     4.325735  1.065641  2.547270
  S     7.249864 -1.911733 -0.744785
  S     7.114049  2.077741 -0.448798
  S     6.924940 -1.667022  3.404006
  S     6.622168  2.308000  3.714465
