16  
    
  C     4.611769 -2.189989  1.542244
  C     4.682528  1.533450  1.668774
  C     3.290746 -2.362790  0.989852
  C     3.462840  1.119010  1.011626
  N     5.593941 -2.024030  0.651975
  N     5.672483  1.922520  0.835455
  N     3.283441 -2.543777 -0.342294
  N     3.590867  0.991264 -0.305370
  N     3.013451 -2.324590  3.508858
  N     2.818522  1.433624  3.439442
  S     2.052533 -2.159430  2.172462
  S     2.066568  1.032367  2.001525
  S     4.901586 -2.347259 -0.854351
  S     5.080272  1.505676 -0.670801
  S     4.622012 -1.933468  3.268526
  S     4.490281  1.712469  3.414845
