16  
    
  C    11.778670  1.134142  3.351448
  C    11.880129  4.991963  3.259557
  C    10.634470  0.632330  2.743516
  C    10.678671  4.522711  2.653289
  N    12.824511  1.252101  2.559426
  N    12.925217  5.040572  2.429594
  N    10.736338  0.259501  1.474654
  N    10.854432  4.137350  1.423893
  N     9.929617  1.012897  5.151049
  N    10.186997  4.987661  5.208468
  S     9.194127  0.587044  3.739635
  S     9.438367  4.405513  3.837936
  S    12.299210  0.631411  1.082413
  S    12.455867  4.488111  0.985947
  S    11.499283  1.457703  5.022765
  S    11.793210  5.477064  4.989873
