16  
    
  C     4.651195 -2.422086  1.553228
  C     5.144923  1.594053  1.834562
  C     3.535047 -3.005526  0.863446
  C     3.822806  1.468247  1.321766
  N     5.651082 -2.067035  0.736643
  N     6.168682  1.534457  0.994839
  N     3.687684 -3.046550 -0.444023
  N     3.845417  1.175429  0.001554
  N     2.858432 -3.071254  3.371111
  N     3.653843  1.540731  3.899951
  S     2.212711 -3.469585  1.881878
  S     2.659473  1.388283  2.573451
  S     5.104088 -2.277515 -0.822400
  S     5.417264  1.279960 -0.443957
  S     4.394314 -2.323192  3.306543
  S     5.274464  1.764315  3.528074
