16  
    
  C    11.600649  1.092687  2.972688
  C    11.892876  5.158659  3.095445
  C    10.356279  0.687674  2.402712
  C    10.761175  4.427364  2.600977
  N    12.643163  1.098483  2.171857
  N    12.874236  5.279492  2.180502
  N    10.402288  0.564902  1.075397
  N    10.789399  3.949281  1.355727
  N    10.071194  0.621583  5.014258
  N    10.275007  4.891154  5.065198
  S     9.165956  0.427867  3.602755
  S     9.470677  4.196754  3.789919
  S    12.007734  0.921484  0.658087
  S    12.342830  4.381821  0.859132
  S    11.574263  1.317597  4.763743
  S    11.774170  5.566672  4.776790
