16  
    
  C     9.743472 -0.610546  2.721337
  C     9.658003  3.231070  2.620378
  C     8.495454 -1.035735  2.111518
  C     8.343270  3.121461  1.942543
  N    10.762219 -0.551789  1.883752
  N    10.691502  3.420790  1.767133
  N     8.500647 -1.061742  0.789216
  N     8.460140  3.070650  0.624610
  N     7.924328 -0.541010  4.574858
  N     7.742840  2.919647  4.422420
  S     7.095763 -0.950799  3.194343
  S     6.986116  3.015550  2.972571
  S    10.099138 -0.721957  0.359545
  S    10.017986  3.334352  0.228304
  S     9.585791 -0.384548  4.432909
  S     9.415187  3.245117  4.348885
