16  
    
  C     4.112314 -2.917148  1.556163
  C     4.126402  1.250970  1.508351
  C     2.901349 -3.367297  0.935722
  C     2.856066  0.918313  0.913299
  N     5.146691 -2.848877  0.719219
  N     5.134013  1.252600  0.644736
  N     3.007721 -3.518254 -0.356819
  N     2.862300  0.799033 -0.421521
  N     2.090064 -2.675628  3.269330
  N     2.460128  1.298468  3.490471
  S     1.465426 -3.444701  1.938222
  S     1.614915  0.807042  2.142623
  S     4.543552 -3.298248 -0.778463
  S     4.523117  0.991513 -0.836224
  S     3.700381 -2.334843  3.254025
  S     4.029377  1.574638  3.249909
