16  
    
  C    11.179491  0.959255  3.307327
  C    11.603455  4.671199  2.789891
  C     9.982115  0.452313  2.739122
  C    10.360769  4.287742  2.177460
  N    12.196457  1.196334  2.471376
  N    12.615998  4.798696  1.960705
  N    10.026340  0.380058  1.417232
  N    10.370676  4.155802  0.890651
  N     9.560255  1.068923  5.289718
  N     9.922286  4.490201  4.698701
  S     8.747655  0.522293  3.980523
  S     9.061680  3.956094  3.341702
  S    11.596045  0.775934  0.972549
  S    11.911325  4.538231  0.428717
  S    11.198340  1.080312  5.074985
  S    11.547963  4.854700  4.460739
