16  
    
  C     5.913065 -2.142306  1.737495
  C     5.559040  1.165380  1.772610
  C     4.589611 -2.520985  1.164258
  C     4.318873  0.732356  1.142066
  N     6.892944 -1.995088  0.884434
  N     6.564272  1.175901  0.884803
  N     4.596421 -2.506466 -0.161957
  N     4.425984  0.531546 -0.177731
  N     4.345204 -2.334586  3.720778
  N     3.738335  1.232560  3.625902
  S     3.394160 -2.576840  2.409778
  S     2.969684  0.726596  2.263955
  S     6.183866 -2.316873 -0.622843
  S     5.985106  0.780167 -0.596524
  S     5.920816 -2.079649  3.491372
  S     5.365365  1.585933  3.443634
