16  
    
  C     4.680495 -2.056285  1.575077
  C     4.407634  1.549574  1.447017
  C     3.338183 -2.143880  1.008046
  C     3.228966  1.023214  0.801036
  N     5.632513 -2.211887  0.685503
  N     5.428813  1.839378  0.656660
  N     3.338592 -2.172767 -0.301240
  N     3.388909  0.957202 -0.495586
  N     2.995406 -1.777784  3.576857
  N     2.757802  0.989733  3.338452
  S     2.105729 -2.166934  2.228233
  S     1.994999  0.613177  1.928106
  S     4.881752 -2.340335 -0.771802
  S     4.977056  1.414688 -0.858951
  S     4.682700 -1.791373  3.344599
  S     4.371516  1.614374  3.164216
