16  
    
  C    10.321643  0.441628  2.547111
  C    10.484217  4.191312  3.086176
  C     9.131413 -0.177261  1.940451
  C     9.163240  3.823242  2.551113
  N    11.458518  0.213502  1.854408
  N    11.510574  4.166285  2.187150
  N     9.349285 -0.616627  0.683233
  N     9.277724  3.420641  1.307415
  N     8.383188  0.596255  4.267408
  N     8.655340  4.381923  4.980473
  S     7.779371 -0.358518  3.045822
  S     7.796160  3.937654  3.649984
  S    11.017071 -0.518367  0.398467
  S    10.752397  3.608199  0.741527
  S    10.007152  0.856687  4.150622
  S    10.260940  4.675219  4.755885
