16  
    
  C     5.569809 -2.111240  1.876091
  C     5.256788  1.621628  1.752890
  C     4.363509 -2.620899  1.255717
  C     4.112324  0.984188  1.111367
  N     6.591904 -1.828497  1.050727
  N     6.171550  2.037573  0.862466
  N     4.540847 -2.911020 -0.038974
  N     4.205187  0.918386 -0.212451
  N     3.754140 -2.433248  3.810532
  N     3.586607  0.867318  3.587188
  S     3.039819 -2.792503  2.328839
  S     2.928218  0.256490  2.149298
  S     5.985033 -2.225228 -0.473138
  S     5.580171  1.649452 -0.625372
  S     5.343811 -1.841564  3.578480
  S     5.087741  1.526774  3.476368
