16  
    
  C     8.940392 -0.369130  2.554601
  C     8.830830  3.341589  2.615482
  C     7.689515 -0.709783  1.933088
  C     7.612846  2.873229  2.059444
  N     9.968958 -0.073350  1.743962
  N     9.763653  3.755375  1.745582
  N     7.824126 -0.839276  0.579724
  N     7.610126  2.923744  0.726728
  N     7.234535 -0.556322  4.446124
  N     7.222958  2.972258  4.597086
  S     6.427720 -1.041931  3.031784
  S     6.285948  2.705052  3.240401
  S     9.386500 -0.375085  0.247900
  S     9.116788  3.446982  0.253225
  S     8.903393 -0.301327  4.257407
  S     8.811391  3.396707  4.312184
