16  
    
  C    11.889924  1.121331  3.381562
  C    11.895702  5.000586  3.421301
  C    10.678607  0.608254  2.733527
  C    10.706800  4.613810  2.717521
  N    12.978801  1.212834  2.613147
  N    12.952162  5.058412  2.576457
  N    10.875960  0.428505  1.430508
  N    10.859066  4.221385  1.490266
  N    10.033116  1.005429  5.181570
  N    10.043479  4.839431  5.202380
  S     9.279857  0.543638  3.773595
  S     9.309305  4.434686  3.753136
  S    12.485505  0.709916  1.100947
  S    12.472401  4.507933  1.114889
  S    11.549794  1.630841  4.967282
  S    11.671068  5.228293  5.092417
