16  
    
  C    12.143311  1.012953  3.450410
  C    12.275251  5.160221  3.271476
  C    10.882023  0.782235  2.746988
  C    11.052772  4.700666  2.710755
  N    13.167738  1.105069  2.608317
  N    13.305127  5.081494  2.380609
  N    11.021629  0.593565  1.421265
  N    11.074619  4.300335  1.453651
  N    10.220226  1.436553  5.088454
  N    10.534404  5.324448  5.167793
  S     9.514042  0.777460  3.746111
  S     9.650612  4.877283  3.826233
  S    12.633277  0.809281  1.099859
  S    12.595917  4.566360  0.910389
  S    11.856219  1.729530  5.069617
  S    12.166658  5.528710  4.983748
