16  
    
  C     5.916441 -2.154777  1.942275
  C     5.659946  1.359262  1.745656
  C     4.646423 -2.498366  1.304573
  C     4.495027  0.783918  1.099038
  N     6.917588 -2.166805  1.103820
  N     6.718284  1.502840  0.952075
  N     4.679202 -2.593238 -0.012144
  N     4.719190  0.466843 -0.169322
  N     4.197004 -2.495915  3.809408
  N     3.901602  1.124251  3.565328
  S     3.297025 -2.604165  2.458717
  S     3.175582  0.629381  2.171695
  S     6.230147 -2.290675 -0.453214
  S     6.265364  0.947104 -0.529840
  S     5.794314 -2.130707  3.710767
  S     5.564304  1.337721  3.488976
