16  
    
  C     7.446174 -1.159152  1.934232
  C     7.694417  2.814051  2.150213
  C     6.150375 -1.469518  1.329190
  C     6.487988  2.279268  1.598339
  N     8.473512 -1.003374  1.131530
  N     8.676931  2.933257  1.288053
  N     6.266801 -1.618442  0.037992
  N     6.640215  1.945899  0.311022
  N     5.666735 -1.418273  3.875495
  N     5.958397  2.750190  4.118232
  S     4.921285 -1.884934  2.493873
  S     5.202338  2.126514  2.771731
  S     7.825915 -1.271265 -0.373343
  S     8.079087  2.457312 -0.195130
  S     7.335551 -1.030869  3.688050
  S     7.589820  3.217933  3.788678
