16  
    
  C     8.885600 -0.350526  2.542738
  C     8.455443  3.201683  2.507485
  C     7.637284 -0.654512  1.850554
  C     7.335525  2.636339  1.853326
  N     9.856522  0.002249  1.721705
  N     9.483035  3.503564  1.737501
  N     7.751492 -0.685278  0.551087
  N     7.429534  2.593511  0.534774
  N     7.159674 -0.743525  4.443772
  N     6.814725  2.801913  4.393281
  S     6.339521 -0.922177  3.050313
  S     6.206209  2.152485  3.031070
  S     9.311416 -0.181277  0.122560
  S     8.928663  3.295858  0.197543
  S     8.731865 -0.137122  4.325193
  S     8.344321  3.368412  4.284406
