16  
    
  C     4.554393 -2.592146  1.486987
  C     5.252138  1.464344  1.774581
  C     3.269931 -2.770401  0.791606
  C     3.956270  1.171531  1.207941
  N     5.565266 -2.359337  0.688745
  N     6.194408  1.650326  0.840865
  N     3.377059 -2.755675 -0.537027
  N     3.935590  0.988306 -0.090044
  N     2.785074 -2.796956  3.367609
  N     3.604498  1.503681  3.786420
  S     2.002943 -3.261092  1.920364
  S     2.744231  1.231999  2.355842
  S     4.963425 -2.383340 -0.838192
  S     5.492320  1.425731 -0.647677
  S     4.434788 -2.625382  3.264256
  S     5.245300  1.741937  3.472701
