16  
    
  C     4.608137 -1.995118  1.551713
  C     4.642618  1.628692  1.720862
  C     3.344841 -2.353863  0.974399
  C     3.434296  1.169976  1.031809
  N     5.609731 -2.027272  0.634995
  N     5.694713  1.718791  0.931847
  N     3.370375 -2.668023 -0.355836
  N     3.602595  1.037627 -0.291676
  N     2.952931 -2.324914  3.505110
  N     2.898427  1.477657  3.517624
  S     2.054861 -2.300852  2.109533
  S     2.074227  1.115388  2.120420
  S     4.904648 -2.350358 -0.799872
  S     5.207612  1.473143 -0.635536
  S     4.589985 -2.022697  3.287664
  S     4.529036  1.697856  3.448721
