16  
    
  C     5.669811 -2.059267  2.015786
  C     5.973127  1.752937  2.052426
  C     4.579410 -2.760819  1.376665
  C     4.781289  1.354161  1.403054
  N     6.669008 -1.801802  1.204390
  N     6.975043  2.048748  1.228557
  N     4.670250 -2.961541  0.083312
  N     4.889019  1.129331  0.092106
  N     3.990860 -2.502401  3.843762
  N     4.163171  1.429346  3.877828
  S     3.246818 -3.005509  2.497842
  S     3.377271  1.190699  2.461766
  S     6.246912 -2.415802 -0.297706
  S     6.442412  1.579434 -0.287523
  S     5.431841 -1.810669  3.705314
  S     5.789761  1.812130  3.773173
