16  
    
  C    10.171398  0.564592  2.909164
  C    10.756300  4.280886  2.876023
  C     9.000683 -0.039452  2.266804
  C     9.506566  4.148340  2.151715
  N    11.124871  1.039397  2.072018
  N    11.850127  4.592881  2.181482
  N     9.052997  0.014823  0.923274
  N     9.736088  4.235975  0.828703
  N     8.542021  0.066926  4.817333
  N     8.935809  3.822578  4.652213
  S     7.832505 -0.623279  3.458016
  S     8.130374  3.685772  3.207447
  S    10.558310  0.651471  0.582749
  S    11.339613  4.626046  0.645600
  S    10.137685  0.356707  4.609145
  S    10.530259  4.268042  4.536519
