16  
    
  C    11.293775  0.637267  3.050464
  C    11.120239  4.423455  3.566010
  C    10.293225 -0.085770  2.282350
  C     9.829494  4.151547  2.973638
  N    12.442116  0.761617  2.344885
  N    12.101220  4.382222  2.662905
  N    10.598784 -0.332482  1.006096
  N     9.815665  3.882273  1.667071
  N     9.312985  0.387592  4.509331
  N     9.348479  4.723529  5.475134
  S     8.845154 -0.367165  3.106671
  S     8.494483  4.225664  4.136754
  S    12.210583  0.077331  0.836666
  S    11.386298  4.116165  1.176951
  S    10.937475  0.796261  4.752740
  S    10.990523  4.844570  5.233207
