16  
    
  C     6.122400 -1.932210  1.685314
  C     6.286917  1.830514  1.844371
  C     4.906979 -2.395066  1.076017
  C     4.970333  1.816960  1.158494
  N     7.179106 -1.910183  0.858003
  N     7.366374  1.901058  1.076110
  N     5.014633 -2.658059 -0.244017
  N     5.116757  1.655565 -0.140755
  N     4.343783 -1.883645  3.479407
  N     4.445700  1.793960  3.661331
  S     3.561733 -2.514283  2.170353
  S     3.602363  1.936821  2.234351
  S     6.630803 -2.349427 -0.655675
  S     6.774616  1.749064 -0.500074
  S     5.953000 -1.551479  3.375498
  S     6.098306  1.869091  3.575536
