16  
    
  C    10.448306  0.616843  3.041096
  C    10.600639  4.437706  2.844183
  C     9.260094 -0.001679  2.449235
  C     9.341344  4.029484  2.240205
  N    11.407145  0.843581  2.178775
  N    11.622054  4.599876  2.031514
  N     9.316505 -0.144009  1.146382
  N     9.447943  3.795086  0.920095
  N     8.750684  0.455642  4.971260
  N     8.903214  4.545569  4.738723
  S     8.026778 -0.252778  3.658287
  S     8.123930  3.709227  3.509878
  S    10.836407  0.406010  0.686127
  S    11.027099  4.118428  0.511286
  S    10.296111  0.980525  4.709284
  S    10.537316  4.842162  4.442341
