16  
    
  C     7.125861 -1.597071  1.863191
  C     7.013371  2.085837  1.996198
  C     5.971853 -2.136589  1.172521
  C     5.797459  1.756736  1.291093
  N     8.231745 -1.485974  1.142289
  N     8.039228  2.326378  1.177442
  N     6.186551 -2.236713 -0.113417
  N     5.875809  1.599962 -0.032880
  N     5.286228 -1.797259  3.705720
  N     5.244630  1.659812  3.844721
  S     4.550674 -2.161438  2.239121
  S     4.466370  1.472890  2.349779
  S     7.763620 -1.867416 -0.437450
  S     7.463516  1.992543 -0.436066
  S     6.874162 -1.270456  3.614213
  S     6.895471  2.125383  3.736287
