16  
    
  C     3.236001 -2.942647  1.551617
  C     3.564934  0.554610  1.437532
  C     2.058678 -3.190616  0.738959
  C     2.351725  0.243807  0.758286
  N     4.364678 -2.736707  0.922963
  N     4.578272  0.752409  0.612495
  N     2.278956 -3.047785 -0.556374
  N     2.385188  0.430236 -0.564531
  N     1.385890 -3.561345  3.200348
  N     1.887253  0.129095  3.332512
  S     0.661769 -3.624247  1.647988
  S     1.016404 -0.001930  1.857978
  S     3.963993 -2.856509 -0.695938
  S     3.928626  0.740029 -0.974315
  S     3.016428 -3.122731  3.228831
  S     3.439332  0.690138  3.163418
