16  
    
  C    12.089156  1.218705  3.454332
  C    12.239879  5.155527  3.183935
  C    10.879197  0.748182  2.732613
  C    10.950060  4.739739  2.679145
  N    13.186484  1.095042  2.699878
  N    13.284715  5.113895  2.309276
  N    11.002852  0.544414  1.413368
  N    11.056348  4.345562  1.427596
  N    10.176898  1.438122  5.143931
  N    10.527796  5.294555  5.140695
  S     9.540666  0.754419  3.767595
  S     9.628248  4.900445  3.781225
  S    12.616595  0.799107  1.134977
  S    12.662171  4.481201  0.923746
  S    11.810314  1.681903  5.069694
  S    12.161440  5.528749  4.822078
