16  
    
  C     5.663604 -2.052123  2.012291
  C     5.968102  1.758124  2.054660
  C     4.571823 -2.764832  1.378371
  C     4.779975  1.349835  1.396950
  N     6.667487 -1.810553  1.204799
  N     6.973476  2.049582  1.235368
  N     4.674464 -2.962932  0.089314
  N     4.883143  1.122800  0.089127
  N     3.996111 -2.501851  3.844463
  N     4.162935  1.414957  3.874037
  S     3.246679 -3.004583  2.500140
  S     3.379338  1.179062  2.458119
  S     6.247025 -2.415054 -0.293975
  S     6.443446  1.582821 -0.289104
  S     5.431453 -1.809283  3.707627
  S     5.788412  1.806887  3.771999
