16  
    
  C     5.474240 -2.263310  1.639003
  C     5.254484  1.580551  1.562400
  C     4.288271 -2.576640  0.877981
  C     4.132811  1.028669  0.798702
  N     6.628519 -2.101341  0.925744
  N     6.365770  1.612636  0.873203
  N     4.533947 -2.778703 -0.436215
  N     4.417203  0.709972 -0.466166
  N     3.487244 -2.460637  3.336590
  N     3.125137  1.692022  3.102920
  S     2.901584 -2.918874  1.809162
  S     2.721875  0.724809  1.748948
  S     6.125227 -2.416484 -0.651347
  S     6.037364  1.176418 -0.718597
  S     5.134680 -2.092179  3.327408
  S     4.725710  2.190542  3.116934
