16  
    
  C    10.068206 -0.143745  2.963820
  C    10.340741  3.502983  3.105199
  C     8.888083 -0.386340  2.214814
  C     9.055338  3.644013  2.472093
  N    11.111239  0.164884  2.239734
  N    11.394126  3.521996  2.247246
  N     9.017726 -0.452580  0.923958
  N     9.170365  3.892596  1.184080
  N     8.065484 -0.565264  4.628545
  N     8.429439  3.562662  4.931908
  S     7.471482 -0.806373  3.116309
  S     7.724478  3.997103  3.519885
  S    10.587506 -0.016460  0.640242
  S    10.687549  3.790319  0.727696
  S     9.694820 -0.306059  4.637516
  S    10.123944  3.380901  4.858262
