16  
    
  C     5.901846 -2.193335  1.637996
  C     5.373460  1.214539  1.729110
  C     4.607440 -2.539620  1.160904
  C     4.099021  0.923513  1.132214
  N     6.889718 -2.103987  0.717809
  N     6.414581  1.167895  0.912136
  N     4.599938 -2.706561 -0.168490
  N     4.175544  0.655720 -0.165988
  N     4.345020 -2.307397  3.682915
  N     3.695406  1.186893  3.621428
  S     3.380926 -2.555540  2.366677
  S     2.859367  0.655148  2.326577
  S     6.076389 -2.264313 -0.734246
  S     5.777224  0.816368 -0.563469
  S     5.906040 -1.929186  3.373835
  S     5.265492  1.690659  3.356282
