16  
    
  C    10.134532  0.659046  2.724510
  C    10.696379  4.215308  2.808894
  C     8.942984  0.033274  2.138390
  C     9.473446  3.826430  2.172228
  N    11.157920  0.690960  1.896957
  N    11.722735  4.334426  1.971708
  N     9.038832 -0.121956  0.838073
  N     9.523706  3.686991  0.859383
  N     8.407399  0.227022  4.632526
  N     8.996284  4.130795  4.736576
  S     7.712504 -0.450290  3.281250
  S     8.186643  3.662633  3.380839
  S    10.622510  0.218438  0.366122
  S    11.148657  4.017530  0.412557
  S     9.985850  0.806424  4.439744
  S    10.547165  4.619782  4.452434
