16  
    
  C     5.606574 -2.034444  2.005052
  C     5.880321  1.803278  2.034225
  C     4.497562 -2.695561  1.408262
  C     4.703140  1.246732  1.346343
  N     6.686284 -1.887941  1.212115
  N     6.942446  2.016806  1.277411
  N     4.753401 -3.017318  0.118983
  N     4.876754  1.082716  0.038940
  N     3.963573 -2.490878  3.926085
  N     4.191833  1.237370  3.853235
  S     3.212243 -3.011832  2.516176
  S     3.405694  1.007043  2.393085
  S     6.229220 -2.411813 -0.247700
  S     6.452131  1.620567 -0.307199
  S     5.482024 -1.776194  3.727909
  S     5.769147  1.736769  3.769896
