16  
    
  C    11.976023  1.606195  3.543360
  C    11.962471  5.076211  3.779631
  C    10.911506  0.764300  2.968123
  C    10.709776  4.569714  3.230128
  N    12.899482  2.112185  2.718097
  N    12.866516  5.379994  2.882319
  N    11.088173  0.702767  1.660208
  N    10.625895  4.553698  1.861042
  N    10.459041  0.702962  5.439697
  N    10.533712  4.333673  5.807732
  S     9.684895  0.240582  4.039508
  S     9.648090  3.978703  4.445693
  S    12.472233  1.540150  1.241738
  S    12.197310  5.098337  1.386546
  S    11.890454  1.536809  5.207133
  S    12.036689  4.989312  5.522708
