16  
    
  C    12.814278  1.549156  3.619387
  C    12.372650  4.995630  3.443916
  C    11.543441  1.223107  3.007019
  C    11.235899  4.538805  2.734927
  N    13.847068  1.531555  2.774356
  N    13.397096  5.178173  2.679447
  N    11.644493  1.182159  1.699531
  N    11.396128  4.316477  1.431573
  N    10.970016  1.898133  5.388742
  N    10.436909  4.396722  5.154827
  S    10.119140  1.390159  4.065146
  S     9.769555  4.212035  3.596276
  S    13.233085  1.313994  1.249271
  S    12.960983  4.818161  1.137256
  S    12.633433  1.888252  5.377397
  S    11.917741  5.154085  5.157606
