16  
    
  C     9.766603 -0.153944  2.805259
  C     9.638846  3.887198  2.753626
  C     8.635008 -0.684927  2.105836
  C     8.384677  3.713852  2.046682
  N    10.925908 -0.031453  2.119910
  N    10.723014  4.004236  1.990399
  N     8.863132 -0.792319  0.782347
  N     8.530793  3.542621  0.720267
  N     7.921607 -0.297725  4.532333
  N     7.796004  3.547176  4.585651
  S     7.182197 -0.917503  3.131880
  S     7.086025  3.154516  3.115267
  S    10.487333 -0.378975  0.538574
  S    10.194689  3.615061  0.412818
  S     9.528009  0.038903  4.521281
  S     9.445596  3.885345  4.423580
