16  
    
  C     9.985283 -0.175139  2.870934
  C    10.037200  3.788063  2.682619
  C     8.785606 -0.547542  2.200154
  C     8.806962  3.191693  2.192436
  N    11.024816 -0.037705  2.027297
  N    10.972759  4.023390  1.755912
  N     8.840579 -0.655395  0.850072
  N     8.891262  2.825418  0.921397
  N     8.192318 -0.410577  4.655140
  N     8.556699  3.563976  4.785020
  S     7.414627 -0.791469  3.226409
  S     7.714760  2.837917  3.501152
  S    10.446161 -0.292946  0.454700
  S    10.393568  3.412484  0.371419
  S     9.882751 -0.180132  4.650687
  S    10.156551  4.022412  4.445282
