16  
    
  C     8.335586 -0.874323  2.453413
  C     8.103725  2.685511  2.316734
  C     7.126674 -1.554873  2.048877
  C     6.971320  2.240589  1.596070
  N     9.315207 -0.906304  1.527026
  N     9.186115  2.864528  1.564351
  N     7.126886 -2.004455  0.764082
  N     7.237168  1.980189  0.311943
  N     6.832327 -0.713644  4.466175
  N     6.245835  2.812367  3.931735
  S     5.919369 -1.387195  3.250638
  S     5.608865  2.053966  2.644680
  S     8.645477 -1.606942  0.206504
  S     8.768293  2.448473  0.008920
  S     8.434276 -0.438376  4.137961
  S     7.867687  3.083383  3.983010
