16  
    
  C     8.891906 -0.276589  2.560815
  C     8.593205  3.326442  2.489038
  C     7.701545 -0.740217  1.954197
  C     7.363243  2.816498  1.970511
  N     9.945374 -0.083468  1.776000
  N     9.545865  3.786402  1.634332
  N     7.778239 -0.714171  0.612216
  N     7.368661  2.835676  0.636107
  N     7.211394 -0.698975  4.386181
  N     6.962813  2.690027  4.458742
  S     6.396269 -0.898676  2.996893
  S     6.106009  2.201376  3.087396
  S     9.335489 -0.269059  0.236015
  S     8.893249  3.362722  0.169276
  S     8.763377 -0.168570  4.229058
  S     8.492887  3.324614  4.254017
