16  
    
  C     5.142099 -2.418133  1.603276
  C     4.943194  1.539096  2.103957
  C     3.931414 -2.955513  1.006870
  C     3.814541  0.936434  1.375272
  N     6.083791 -2.250182  0.686526
  N     5.976814  1.685631  1.298183
  N     4.075698 -3.351474 -0.218741
  N     3.991926  0.677309  0.059809
  N     3.358779 -2.433811  3.492911
  N     3.034469  1.294178  3.808039
  S     2.557232 -2.934673  2.092059
  S     2.405678  0.753930  2.332997
  S     5.617537 -2.973876 -0.702965
  S     5.537238  1.134154 -0.199290
  S     4.905837 -1.847266  3.248956
  S     4.638083  2.042156  3.742944
