16  
    
  C     4.230821 -2.328826  1.820648
  C     4.059940  1.104735  1.185346
  C     3.111283 -3.009933  1.269145
  C     2.987102  0.308080  0.665044
  N     5.168841 -1.943821  0.966122
  N     4.980603  1.517772  0.288339
  N     3.257601 -3.306032 -0.008906
  N     3.214875 -0.066524 -0.601937
  N     2.563363 -2.527230  3.745143
  N     2.220041  0.919905  3.011186
  S     1.795916 -3.124913  2.384067
  S     1.657211  0.054818  1.708684
  S     4.737112 -2.633295 -0.497211
  S     4.543211  0.706863 -1.123787
  S     4.142882 -2.004765  3.495053
  S     3.783069  1.665555  2.857427
