16  
    
  C     4.610185 -2.602334  1.592817
  C     5.046538  1.323418  1.749964
  C     3.349588 -2.817980  0.915883
  C     3.803746  1.074404  1.066096
  N     5.637421 -2.627121  0.778595
  N     6.085554  1.506190  0.916815
  N     3.457833 -2.816865 -0.415435
  N     3.835818  1.310470 -0.256087
  N     2.835678 -2.623884  3.406159
  N     3.442061  0.959920  3.662317
  S     1.988103 -2.831669  1.963939
  S     2.544812  0.726698  2.294153
  S     5.077693 -2.843800 -0.747075
  S     5.459149  1.569846 -0.630418
  S     4.448666 -2.352397  3.305896
  S     5.019857  1.418545  3.497052
