16  
    
  C    10.335807  0.121832  2.687737
  C    10.211359  4.163499  3.096849
  C     9.152942 -0.412018  2.014690
  C     8.933984  3.834843  2.474845
  N    11.374567  0.112687  1.926104
  N    11.265443  4.068764  2.337272
  N     9.330874 -0.850861  0.808317
  N     9.088782  3.457836  1.196269
  N     8.509428  0.414569  4.353118
  N     8.713619  4.163486  5.064649
  S     7.807772 -0.413731  3.089797
  S     7.775778  3.968878  3.724533
  S    10.970342 -0.551195  0.434124
  S    10.748682  3.552518  0.869598
  S    10.124933  0.802467  4.250278
  S    10.258024  4.764153  4.739575
