16  
    
  C     5.343258 -2.211004  1.532983
  C     4.931704  1.715368  1.757051
  C     4.237632 -2.916513  0.897942
  C     3.882722  0.912595  1.163205
  N     6.327794 -2.028359  0.726025
  N     6.025006  1.819179  1.021239
  N     4.358041 -3.118718 -0.385838
  N     4.259728  0.315131  0.011649
  N     3.460230 -2.274152  3.320117
  N     3.061940  1.765090  3.401096
  S     2.844610 -3.087073  1.967171
  S     2.513886  0.826342  2.191085
  S     5.915391 -2.650539 -0.797278
  S     5.801121  0.790624 -0.217467
  S     5.040364 -1.748848  3.227470
  S     4.640836  2.340760  3.379775
