16  
    
  C    12.022394  1.217258  3.294860
  C    11.793063  4.782474  3.625126
  C    10.841405  0.726373  2.690465
  C    10.674369  4.321418  2.836668
  N    13.077544  1.522541  2.494761
  N    12.931870  4.912269  2.877844
  N    11.025036  0.484652  1.393868
  N    10.877956  4.260788  1.524005
  N    10.069744  1.163583  5.091115
  N     9.903834  4.698167  5.290052
  S     9.456954  0.479792  3.716556
  S     9.213517  4.239868  3.846803
  S    12.544093  0.930533  1.018470
  S    12.429081  4.694123  1.303128
  S    11.675402  1.517161  4.980485
  S    11.542171  5.073873  5.249846
