16  
    
  C    12.906610  1.733066  3.715833
  C    12.946684  5.480052  3.701661
  C    11.687248  1.430184  3.091443
  C    11.637954  5.021464  3.274485
  N    13.883629  1.810670  2.837324
  N    13.897280  5.525895  2.722835
  N    11.691537  1.186746  1.757539
  N    11.697831  4.657107  1.970429
  N    11.213239  1.533634  5.645101
  N    11.308807  5.577544  5.684475
  S    10.369679  1.254939  4.255578
  S    10.379512  5.037572  4.380535
  S    13.241316  1.482673  1.309376
  S    13.189731  4.929873  1.372580
  S    12.861199  1.901895  5.473607
  S    12.865517  5.996755  5.360046
