16  
    
  C    12.812709  1.536269  3.691823
  C    12.355732  5.010195  3.447445
  C    11.524897  1.219213  3.010859
  C    11.233244  4.519422  2.768931
  N    13.824795  1.533147  2.818131
  N    13.419668  5.176991  2.667633
  N    11.638596  1.199824  1.675742
  N    11.389776  4.307202  1.449652
  N    10.967950  1.895895  5.389410
  N    10.435999  4.420494  5.144439
  S    10.112809  1.390823  4.066558
  S     9.770767  4.207687  3.617294
  S    13.217433  1.321632  1.254898
  S    12.968237  4.815307  1.130064
  S    12.624993  1.888033  5.399785
  S    11.914858  5.142381  5.151827
