16  
    
  C     7.098975 -1.429081  2.115825
  C     7.047833  2.078618  2.068924
  C     5.921114 -1.838527  1.382785
  C     5.846308  1.763348  1.328332
  N     8.205244 -1.335531  1.381420
  N     8.139376  2.253351  1.356445
  N     6.114560 -2.027828  0.080805
  N     6.062577  1.553020  0.033548
  N     5.131703 -1.654546  3.821101
  N     5.175178  1.904568  3.803415
  S     4.499401 -2.128976  2.358888
  S     4.469246  1.571158  2.318003
  S     7.689641 -1.668925 -0.216097
  S     7.675135  2.016879 -0.268282
  S     6.840499 -1.516476  3.868580
  S     6.819210  2.358284  3.757113
