16  
    
  C    10.387583  0.648426  3.019530
  C    10.617844  4.344549  2.823558
  C     9.254663 -0.017803  2.446435
  C     9.381577  3.916225  2.251134
  N    11.395995  0.872864  2.164096
  N    11.619347  4.526669  1.958162
  N     9.283059 -0.237558  1.115687
  N     9.392194  3.905627  0.925936
  N     8.745758  0.319496  4.990710
  N     8.965433  4.462210  4.767049
  S     8.014116 -0.279626  3.598209
  S     8.155344  3.775858  3.466916
  S    10.783381  0.432402  0.679502
  S    10.972823  4.257792  0.514387
  S    10.304044  0.922084  4.774155
  S    10.577726  4.820361  4.544354
