16  
    
  C     8.949211 -0.342632  2.580910
  C     8.903146  3.350580  2.648303
  C     7.764307 -0.826211  1.892798
  C     7.636154  2.963362  2.024349
  N     9.917523 -0.122642  1.747543
  N     9.846437  3.680199  1.785987
  N     7.808786 -0.830692  0.594497
  N     7.623527  2.894829  0.690672
  N     7.258801 -0.628307  4.464985
  N     7.242943  3.057046  4.643985
  S     6.429799 -1.040637  3.034084
  S     6.423360  2.765444  3.226299
  S     9.386622 -0.367349  0.190180
  S     9.191429  3.427055  0.299333
  S     8.931512 -0.301718  4.302848
  S     8.843490  3.454400  4.402613
