16  
    
  C     7.776631 -0.843189  1.762873
  C     7.806093  2.941238  2.353845
  C     6.569262 -1.414970  1.219947
  C     6.692129  2.406536  1.627498
  N     8.772612 -0.849199  0.919393
  N     8.925478  3.117831  1.643666
  N     6.618517 -1.733010 -0.044323
  N     6.922284  2.191562  0.340978
  N     6.157195 -1.070383  3.695380
  N     5.914086  2.668438  4.035969
  S     5.259649 -1.455944  2.363506
  S     5.301260  2.141753  2.647860
  S     8.184961 -1.417593 -0.493313
  S     8.522077  2.703251  0.063186
  S     7.757253 -0.619099  3.472172
  S     7.460067  3.213380  4.051798
