16  
    
  C    10.282811  0.385474  2.560810
  C    10.469335  4.228974  2.986285
  C     9.162112 -0.235814  1.923977
  C     9.268911  3.696199  2.437866
  N    11.346499  0.426895  1.796817
  N    11.473673  4.285099  2.132856
  N     9.302256 -0.628901  0.679275
  N     9.335761  3.362398  1.136398
  N     8.364214  0.514097  4.258627
  N     8.766762  4.405155  4.903121
  S     7.740664 -0.171140  2.880829
  S     7.942977  3.919266  3.544702
  S    10.897667 -0.251472  0.352715
  S    10.846990  3.710210  0.700016
  S     9.968335  0.968732  4.199194
  S    10.436869  4.611699  4.728822
