16  
    
  C    12.079976  1.329479  3.368185
  C    11.708857  4.874463  3.696933
  C    10.921726  0.856265  2.763154
  C    10.557551  4.324781  3.026094
  N    13.084936  1.668285  2.548059
  N    12.755216  5.195979  2.947507
  N    10.973857  0.806888  1.427836
  N    10.748934  4.090280  1.723850
  N    10.338079  0.695092  5.246743
  N    10.022231  4.453438  5.556755
  S     9.585899  0.342190  3.831912
  S     9.326576  3.918436  4.120556
  S    12.512399  1.247464  1.027504
  S    12.283734  4.717906  1.418104
  S    11.824812  1.373730  5.099379
  S    11.614967  5.021454  5.450611
