16  
    
  C     8.997058 -0.532966  2.430143
  C     9.544539  3.453627  2.766385
  C     7.891342 -1.031237  1.656964
  C     8.257121  3.121510  2.135790
  N    10.155448 -0.390755  1.754611
  N    10.532237  3.367931  1.885292
  N     8.159463 -1.229057  0.359288
  N     8.368136  2.714692  0.857807
  N     7.003999 -0.326718  4.004824
  N     7.797161  3.672860  4.599123
  S     6.449961 -1.051970  2.600967
  S     6.942418  3.345298  3.195509
  S     9.789882 -0.843447  0.228721
  S     9.908414  2.936478  0.370776
  S     8.648558 -0.124989  4.042973
  S     9.510144  3.782617  4.479006
