16  
    
  C    11.345232  0.523262  3.043769
  C    11.074898  4.468849  3.491443
  C    10.279914 -0.076098  2.266102
  C     9.762725  4.139075  2.961908
  N    12.424097  0.717169  2.338674
  N    12.119487  4.389034  2.667398
  N    10.609432 -0.327191  1.021184
  N     9.843855  3.931781  1.637954
  N     9.307950  0.392889  4.564567
  N     9.350121  4.667051  5.480115
  S     8.826814 -0.383134  3.176731
  S     8.522874  4.257170  4.111569
  S    12.162681  0.075298  0.815179
  S    11.398118  4.079532  1.126092
  S    10.917483  0.832919  4.742415
  S    11.009023  4.785677  5.251537
