16  
    
  C     4.745730 -2.497217  1.619353
  C     5.069503  1.425192  1.887813
  C     3.505604 -2.724735  0.974233
  C     3.832395  0.978642  1.262646
  N     5.809566 -2.605249  0.814941
  N     6.087200  1.685185  1.077280
  N     3.627790 -3.035543 -0.336007
  N     3.896367  1.046997 -0.061300
  N     2.954407 -2.359939  3.431471
  N     3.312156  0.904341  3.759672
  S     2.151216 -2.863484  2.067466
  S     2.461080  0.741449  2.315632
  S     5.239317 -2.921852 -0.707560
  S     5.362817  1.565317 -0.440728
  S     4.569638 -2.236949  3.290782
  S     4.904371  1.463198  3.622696
