16  
    
  C     8.800729 -0.728616  2.423740
  C     8.583844  3.245035  2.576452
  C     7.592767 -1.013761  1.701165
  C     7.400877  2.633618  1.995662
  N     9.884205 -0.612761  1.593189
  N     9.568646  3.562556  1.698080
  N     7.783586 -1.347093  0.396310
  N     7.483686  2.495581  0.672363
  N     6.773072 -0.786017  4.175129
  N     6.815061  2.785100  4.471065
  S     6.128994 -1.018453  2.681482
  S     6.026840  2.378461  3.077265
  S     9.388686 -1.096179  0.074217
  S     8.978452  3.035587  0.260684
  S     8.428512 -0.459235  4.083773
  S     8.385651  3.287732  4.278857
