16  
    
  C     9.751124 -0.654645  2.721675
  C     9.608064  3.268734  2.622153
  C     8.487726 -1.007725  2.102503
  C     8.373470  3.123521  1.929220
  N    10.779013 -0.516749  1.823856
  N    10.625245  3.469672  1.809485
  N     8.501070 -1.097824  0.751956
  N     8.440958  3.105940  0.601625
  N     7.941718 -0.534816  4.583553
  N     7.828466  2.902548  4.418092
  S     7.159172 -0.950494  3.174816
  S     7.022825  2.994676  2.978304
  S    10.074457 -0.671756  0.319045
  S    10.065254  3.376354  0.190156
  S     9.601111 -0.346697  4.420754
  S     9.514359  3.211143  4.415973
