16  
    
  C     3.364114 -3.220492  1.407705
  C     3.549078  0.639279  1.405587
  C     2.153219 -3.306818  0.629251
  C     2.320271  0.298197  0.701513
  N     4.445956 -3.067022  0.636141
  N     4.612576  0.700872  0.613323
  N     2.231506 -3.065855 -0.665937
  N     2.460050  0.307989 -0.620724
  N     1.352703 -3.474604  3.132898
  N     1.784935  0.311220  3.240821
  S     0.714269 -3.525459  1.578571
  S     0.952259  0.008385  1.745536
  S     3.904047 -2.886558 -0.963957
  S     4.027897  0.498380 -0.982178
  S     2.969405 -3.304954  3.136816
  S     3.428259  0.664813  3.108922
