16  
    
  C     7.551638 -1.214801  1.888209
  C     7.729750  2.826558  2.150343
  C     6.289304 -1.648342  1.299292
  C     6.492832  2.211315  1.604458
  N     8.512538 -1.050698  1.015977
  N     8.694625  3.046435  1.289241
  N     6.287540 -1.583023 -0.008014
  N     6.528178  1.966218  0.298595
  N     5.794355 -1.221720  3.853048
  N     6.038598  2.676113  4.035741
  S     5.021205 -1.778975  2.524602
  S     5.150949  2.185216  2.699201
  S     7.869650 -1.224316 -0.518590
  S     8.151324  2.455969 -0.141412
  S     7.398619 -0.932033  3.637315
  S     7.558889  3.269081  3.839302
