16  
    
  C     7.061603 -1.687475  1.577788
  C     6.814229  2.125625  1.937045
  C     5.817067 -2.231607  1.044259
  C     5.610403  1.603126  1.347924
  N     8.070612 -1.622584  0.727855
  N     7.761420  2.447295  1.036144
  N     5.881744 -2.369516 -0.253395
  N     5.683389  1.469241  0.018905
  N     5.331565 -1.821148  3.532659
  N     5.126150  1.708281  3.880009
  S     4.566310 -2.395459  2.196042
  S     4.400176  1.095064  2.482926
  S     7.424964 -1.946362 -0.717441
  S     7.082472  2.069909 -0.427792
  S     6.978050 -1.609311  3.306123
  S     6.693718  2.247338  3.634510
