16  
    
  C     9.959403 -0.158939  2.990047
  C    10.214085  3.563983  2.860215
  C     8.742066 -0.531222  2.198546
  C     8.855265  3.484886  2.313001
  N    10.941138  0.135535  2.158714
  N    11.156797  3.485822  1.909956
  N     8.967719 -0.725853  0.908167
  N     8.778141  3.556244  0.999909
  N     8.128012 -0.723852  4.705098
  N     8.563685  3.277980  4.829159
  S     7.364482 -0.938351  3.186508
  S     7.640865  3.479177  3.457610
  S    10.516770 -0.265330  0.622620
  S    10.326369  3.636219  0.430194
  S     9.719521 -0.177481  4.761315
  S    10.224116  3.593457  4.655272
