16  
    
  C    10.413510  0.651186  3.008098
  C    10.765347  4.341689  2.869987
  C     9.256551 -0.001735  2.488746
  C     9.475469  4.042694  2.322177
  N    11.320894  1.043356  2.101185
  N    11.726324  4.541259  1.959708
  N     9.313838 -0.220232  1.194358
  N     9.430205  3.932622  1.008787
  N     8.751224  0.118441  4.954740
  N     8.991677  4.213616  4.834021
  S     7.944079 -0.348242  3.569675
  S     8.156452  3.876705  3.422462
  S    10.747926  0.423992  0.641050
  S    10.881736  4.419744  0.428217
  S    10.264022  0.773504  4.752165
  S    10.598864  4.668365  4.621202
