16  
    
  C     7.073828 -1.438558  2.307876
  C     7.037290  2.257342  2.115705
  C     5.884798 -1.846999  1.588253
  C     5.851625  1.807308  1.412502
  N     8.127989 -1.291585  1.496348
  N     8.108241  2.425608  1.367253
  N     5.939239 -1.776318  0.248659
  N     6.067998  1.567064  0.113826
  N     5.268263 -1.834136  4.153142
  N     5.249458  2.016968  3.926256
  S     4.522268 -2.043346  2.666493
  S     4.517839  1.672544  2.438600
  S     7.535110 -1.523640 -0.097900
  S     7.661391  1.900179 -0.192549
  S     6.843695 -1.355310  4.031953
  S     6.828612  2.563790  3.791228
