16  
    
  C     6.601025 -1.771643  1.904779
  C     6.622036  2.188121  2.089986
  C     5.373791 -2.151139  1.277367
  C     5.455068  1.553386  1.462293
  N     7.594969 -1.528403  1.018303
  N     7.459468  2.645277  1.166721
  N     5.375122 -2.052260 -0.069401
  N     5.575944  1.400147  0.147232
  N     4.996494 -2.242931  3.808893
  N     5.003385  1.510208  4.012406
  S     4.091433 -2.513294  2.388088
  S     4.218636  1.078791  2.610745
  S     7.003424 -1.793628 -0.471577
  S     6.966051  2.088948 -0.281706
  S     6.603120 -1.800756  3.622034
  S     6.464009  2.374183  3.844986
