16  
    
  C     5.750472 -2.134118  1.965683
  C     6.004779  1.756611  2.068257
  C     4.548533 -2.705291  1.348786
  C     4.769432  1.344185  1.442994
  N     6.717032 -1.762334  1.121648
  N     7.022146  1.933236  1.223664
  N     4.749773 -2.920467  0.070707
  N     4.862882  1.224974  0.127753
  N     3.886126 -2.460384  3.883804
  N     4.206230  1.709089  3.930868
  S     3.230707 -3.036346  2.412270
  S     3.372961  1.389244  2.503029
  S     6.227164 -2.392086 -0.343902
  S     6.445007  1.521594 -0.301563
  S     5.480429 -1.834279  3.696465
  S     5.849273  1.900012  3.797417
