16  
    
  C    12.529604  1.605386  3.376889
  C    12.893925  5.440276  3.604560
  C    11.390252  0.906371  2.762887
  C    11.826732  4.890667  2.861550
  N    13.454797  1.880249  2.483599
  N    13.972913  5.789750  2.896519
  N    11.458623  0.798398  1.428167
  N    12.076218  4.813941  1.589809
  N    10.916666  1.024712  5.251362
  N    10.857028  4.953485  5.165021
  S    10.089413  0.569976  3.877898
  S    10.313473  4.650850  3.682698
  S    12.875356  1.442780  0.962092
  S    13.586412  5.436721  1.301472
  S    12.416165  1.732020  5.098638
  S    12.363157  5.560214  5.329639
