16  
    
  C     4.576962 -2.685540  1.554779
  C     5.098977  1.408842  1.687496
  C     3.304187 -2.761229  0.871306
  C     3.803412  1.231654  1.108046
  N     5.645456 -2.594909  0.781948
  N     6.122828  1.534040  0.851242
  N     3.393409 -2.864057 -0.421724
  N     3.854034  1.337812 -0.213680
  N     2.742037 -2.746766  3.413949
  N     3.453226  1.060914  3.648277
  S     1.939234 -2.811010  1.988159
  S     2.563646  0.718710  2.207182
  S     5.042085 -2.769106 -0.792935
  S     5.446974  1.488465 -0.645339
  S     4.380704 -2.423022  3.252508
  S     5.098486  1.400996  3.424137
