16  
    
  C     5.672788 -2.058799  2.062942
  C     5.856863  1.709971  2.009237
  C     4.505879 -2.622484  1.380203
  C     4.742803  1.218778  1.299236
  N     6.703152 -1.864228  1.270861
  N     6.890162  1.979352  1.221155
  N     4.721179 -3.041896  0.142408
  N     4.934053  1.099812 -0.002837
  N     3.916760 -2.438291  3.971023
  N     4.181627  1.117535  3.838352
  S     3.181027 -3.016303  2.532492
  S     3.395334  0.857509  2.375843
  S     6.223870 -2.433476 -0.239215
  S     6.447415  1.627092 -0.309219
  S     5.514302 -1.776494  3.732210
  S     5.746774  1.693414  3.752429
