16  
    
  C    11.940390  1.274894  3.295095
  C    11.820110  4.841134  3.676589
  C    10.816217  0.664634  2.614880
  C    10.620853  4.461149  2.909543
  N    12.976747  1.543984  2.525927
  N    12.888181  5.006036  2.893190
  N    11.056053  0.431840  1.319296
  N    10.761253  4.250890  1.606149
  N    10.238450  0.921502  5.124283
  N     9.907018  4.499257  5.439424
  S     9.466128  0.524518  3.699244
  S     9.259295  4.081240  3.944662
  S    12.582538  1.102343  0.992683
  S    12.424905  4.629843  1.307300
  S    11.798727  1.497714  5.039471
  S    11.480524  5.066791  5.376809
