16  
    
  C     9.727186 -0.118850  2.861706
  C     9.788459  3.506243  2.715697
  C     8.584897 -0.689581  2.250703
  C     8.501444  3.227604  2.108461
  N    10.811200  0.114525  2.053312
  N    10.741272  3.937274  1.853515
  N     8.723830 -0.819299  0.923074
  N     8.550141  3.261851  0.784008
  N     7.900933 -0.498088  4.644565
  N     7.903947  3.244350  4.628415
  S     7.131877 -0.802319  3.205085
  S     7.057453  3.318496  3.171930
  S    10.255457 -0.359759  0.531500
  S    10.041210  3.808772  0.380109
  S     9.488036  0.090691  4.605161
  S     9.529341  3.575347  4.471354
