16  
    
  C     4.544313 -2.123480  1.915062
  C     4.083484  1.201757  1.206230
  C     3.386133 -2.687733  1.253070
  C     2.868233  0.696199  0.547198
  N     5.640194 -1.988043  1.168749
  N     5.170767  1.223932  0.414286
  N     3.560832 -2.831508 -0.055276
  N     2.976352  0.576376 -0.796800
  N     2.742212 -2.442835  3.718028
  N     2.254344  0.915808  2.982939
  S     2.045727 -2.935458  2.286874
  S     1.541348  0.431723  1.601965
  S     5.175930 -2.540860 -0.365653
  S     4.623393  0.792779 -1.087752
  S     4.244672 -1.746550  3.572908
  S     3.863147  1.421545  2.902242
