16  
    
  C     9.242406 -0.478555  2.555943
  C     9.326306  3.165505  2.585640
  C     8.025183 -1.100278  2.023460
  C     8.030433  2.761624  2.020712
  N    10.227338 -0.345494  1.689975
  N    10.342275  3.277744  1.753189
  N     8.134834 -1.412331  0.761920
  N     8.189123  2.445079  0.733215
  N     7.532684 -0.442771  4.516734
  N     7.578516  3.285094  4.544905
  S     6.678669 -1.115099  3.192370
  S     6.727129  2.976061  3.166288
  S     9.624180 -0.894573  0.242852
  S     9.717878  2.791286  0.316702
  S     9.111593 -0.018051  4.214526
  S     9.177092  3.520977  4.234547
