16  
    
  C    12.562491  1.651843  3.777392
  C    12.479632  5.006656  3.450794
  C    11.333630  1.160023  3.134222
  C    11.199039  4.637046  2.832659
  N    13.615859  1.739798  2.982927
  N    13.420360  5.129787  2.561165
  N    11.442680  1.025497  1.839685
  N    11.236197  4.456651  1.507048
  N    10.912725  1.145908  5.624097
  N    10.501458  5.005285  5.282692
  S    10.072857  1.161862  4.225653
  S     9.829000  4.417453  3.839894
  S    12.991213  1.331214  1.465242
  S    12.833355  4.781905  1.056622
  S    12.424902  1.756783  5.509380
  S    12.186831  5.215718  5.184702
