16  
    
  C    12.694476  1.625813  3.314533
  C    12.578104  5.362362  3.263046
  C    11.476139  1.262861  2.764469
  C    11.362432  4.827830  2.723642
  N    13.682034  1.904275  2.449487
  N    13.496121  5.563051  2.301124
  N    11.558134  1.076283  1.443952
  N    11.318622  4.697670  1.390675
  N    11.062875  1.521514  5.297156
  N    11.058792  4.792659  5.237926
  S    10.320159  0.849481  3.940046
  S    10.170162  4.442254  3.872021
  S    13.045701  1.556241  0.958191
  S    12.869438  5.114243  0.888145
  S    12.757511  1.665643  5.121143
  S    12.506753  5.488512  4.975119
