16  
    
  C     8.856817 -0.892317  2.370246
  C     8.552901  3.211827  2.496883
  C     7.659484 -1.317878  1.705746
  C     7.359915  2.625534  1.909569
  N     9.940547 -0.888418  1.571818
  N     9.493656  3.559552  1.611843
  N     7.742210 -1.361999  0.382874
  N     7.389867  2.496155  0.600632
  N     6.890115 -0.954888  4.150204
  N     6.777488  2.822739  4.388862
  S     6.201999 -1.513080  2.758856
  S     6.094907  2.209740  3.032084
  S     9.367233 -1.175325 -0.007501
  S     8.860737  3.035016  0.121790
  S     8.498738 -0.685732  4.089673
  S     8.261001  3.526175  4.156111
