16  
    
  C     6.076683 -2.116836  1.724487
  C     6.192362  1.768292  1.854860
  C     4.818999 -2.486389  1.119649
  C     4.864820  1.867312  1.188054
  N     7.149058 -2.112592  0.882916
  N     7.203933  1.706739  1.021446
  N     4.952545 -2.562871 -0.225965
  N     4.873570  1.736682 -0.134861
  N     4.301825 -2.131959  3.576306
  N     4.414201  1.826061  3.702952
  S     3.455543 -2.506129  2.207630
  S     3.538169  1.975083  2.289054
  S     6.536389 -2.553015 -0.577250
  S     6.531423  1.520099 -0.544016
  S     5.941636 -1.808114  3.453887
  S     6.051266  1.866289  3.558724
