16  
    
  C    11.295020  0.653447  3.038549
  C    11.121879  4.411318  3.579478
  C    10.298564 -0.078596  2.280026
  C     9.844670  4.151677  2.972817
  N    12.447412  0.771595  2.347699
  N    12.097749  4.385050  2.658789
  N    10.598044 -0.340892  1.003299
  N     9.809876  3.875275  1.676688
  N     9.312797  0.386877  4.509166
  N     9.351453  4.730013  5.471478
  S     8.847125 -0.361094  3.096771
  S     8.488326  4.219072  4.140698
  S    12.219675  0.082007  0.843972
  S    11.384943  4.122383  1.191263
  S    10.937763  0.788206  4.748947
  S    10.988422  4.858734  5.229300
