16  
    
  C    10.984729  0.602588  2.910173
  C    10.917409  4.533122  3.311600
  C     9.749944  0.122500  2.345377
  C     9.784986  3.883157  2.711302
  N    11.917791  0.843095  1.999484
  N    11.996592  4.691032  2.512602
  N     9.690027 -0.095866  1.015789
  N     9.984077  3.590894  1.444913
  N     9.392721  0.334208  4.877097
  N     9.231858  3.924701  5.139335
  S     8.558397 -0.188661  3.549111
  S     8.425023  3.685321  3.681103
  S    11.268560  0.356289  0.532249
  S    11.496412  4.190553  1.050283
  S    10.902875  1.013414  4.625087
  S    10.751540  4.583389  5.085398
