16  
    
  C     7.552644 -1.211209  1.863036
  C     7.701310  2.821657  2.206385
  C     6.313798 -1.663360  1.321062
  C     6.514767  2.291512  1.564305
  N     8.554251 -1.026649  0.974143
  N     8.663858  3.057434  1.315443
  N     6.300236 -1.616808 -0.035904
  N     6.606959  1.994304  0.276953
  N     5.840636 -1.180669  3.781052
  N     5.972103  2.636764  4.067811
  S     5.031334 -1.736333  2.477517
  S     5.190433  2.201458  2.678227
  S     7.872162 -1.225197 -0.517901
  S     8.165217  2.448962 -0.146485
  S     7.512760 -0.880261  3.623823
  S     7.539572  3.285721  3.867532
