16  
    
  C     9.736215 -0.143091  2.589005
  C     9.689709  3.797803  2.508034
  C     8.533057 -0.563219  2.036553
  C     8.559607  3.112275  1.930235
  N    10.630530  0.293198  1.677279
  N    10.646909  4.109639  1.627915
  N     8.493272 -0.537475  0.662325
  N     8.648355  2.950794  0.609358
  N     8.241902 -0.555956  4.619814
  N     8.257914  3.045467  4.523847
  S     7.384587 -0.983223  3.283917
  S     7.457189  2.704823  3.155077
  S     9.912542  0.153725  0.210524
  S    10.137348  3.577327  0.203982
  S     9.826045 -0.057019  4.312097
  S     9.627321  3.987942  4.319314
