16  
    
  C     9.117282 -0.544802  2.521704
  C     9.586615  3.468889  2.780619
  C     7.947446 -0.998281  1.823683
  C     8.317303  3.159230  2.173241
  N    10.227545 -0.508790  1.755672
  N    10.605187  3.400181  1.951261
  N     8.107953 -1.115105  0.481687
  N     8.405821  2.829737  0.883857
  N     7.227419 -0.564268  4.272203
  N     7.809909  3.795032  4.641221
  S     6.526990 -1.207965  2.861769
  S     7.020227  3.368892  3.239922
  S     9.712897 -0.820117  0.225090
  S     9.967186  2.893680  0.499418
  S     8.908462 -0.384708  4.236643
  S     9.434900  4.082927  4.377460
