16  
    
  C    12.570394  1.614473  3.790049
  C    12.364601  5.023543  3.456782
  C    11.393993  1.161949  3.165115
  C    11.178979  4.606059  2.783871
  N    13.607349  1.752646  2.977188
  N    13.433971  5.119486  2.597149
  N    11.414084  0.927933  1.841907
  N    11.234615  4.531334  1.463464
  N    10.884904  1.196898  5.613047
  N    10.579400  4.999930  5.266045
  S    10.021061  1.071174  4.245141
  S     9.852218  4.475040  3.879493
  S    12.965553  1.368759  1.432131
  S    12.789230  4.779060  1.061176
  S    12.432495  1.740883  5.467459
  S    12.217840  5.278586  5.201853
