16  
    
  C    11.343864  0.652911  2.990638
  C    11.092686  4.381521  3.568462
  C    10.299202  0.038698  2.195553
  C     9.760611  4.056160  3.058195
  N    12.508758  0.845979  2.333488
  N    12.102053  4.448632  2.710051
  N    10.716622 -0.411129  1.011205
  N     9.837226  3.889007  1.727361
  N     9.308351  0.373360  4.579143
  N     9.367699  4.710323  5.444204
  S     8.839371 -0.287011  3.106328
  S     8.486633  4.179425  4.144554
  S    12.269089  0.138187  0.875150
  S    11.380892  4.127788  1.258513
  S    10.904319  0.744563  4.662998
  S    10.999512  4.972491  5.219691
