16  
    
  C     8.397893 -0.894308  2.430854
  C     8.180673  2.865820  2.310573
  C     7.128837 -1.469242  2.010128
  C     7.005283  2.275919  1.645429
  N     9.316787 -0.921189  1.507467
  N     9.268888  2.955118  1.538747
  N     7.173737 -1.929391  0.786321
  N     7.173916  1.988849  0.364502
  N     6.742493 -0.754595  4.513097
  N     6.234156  2.739408  4.050275
  S     5.865855 -1.405546  3.282348
  S     5.601862  2.049168  2.665797
  S     8.691763 -1.615844  0.129099
  S     8.752264  2.479056  0.067428
  S     8.372097 -0.419570  4.154276
  S     7.839568  3.142235  3.980898
