16  
    
  C    11.326842  0.937789  3.198636
  C    11.475516  4.788238  3.084120
  C    10.096405  0.492120  2.682641
  C    10.370980  4.142275  2.464673
  N    12.355557  1.111603  2.357480
  N    12.507145  4.900156  2.266937
  N    10.163490  0.185243  1.361963
  N    10.515628  3.921041  1.129330
  N     9.689563  0.804248  5.174242
  N     9.744020  4.345142  4.990862
  S     8.816068  0.303515  3.817362
  S     9.027127  3.793751  3.585356
  S    11.703077  0.692708  0.907612
  S    12.097710  4.360669  0.799660
  S    11.268597  1.260852  4.866266
  S    11.266604  4.989742  4.823916
