16  
    
  C     5.919461 -2.167052  1.775844
  C     6.073005  1.671668  1.882692
  C     4.640058 -2.469931  1.139913
  C     4.743948  1.677783  1.343776
  N     7.043395 -2.312642  1.014241
  N     7.001944  1.425954  0.955609
  N     4.760349 -2.648491 -0.189529
  N     4.688771  1.355150  0.050681
  N     4.139683 -2.230447  3.664887
  N     4.534862  2.168894  3.882051
  S     3.359017 -2.549958  2.240403
  S     3.573063  2.068000  2.552797
  S     6.405197 -2.440553 -0.535038
  S     6.227590  1.244731 -0.455940
  S     5.791648 -2.090852  3.521375
  S     6.150062  1.926967  3.610512
