16  
    
  C     9.012447 -0.267257  2.317299
  C     9.492239  3.324906  2.711365
  C     7.793799 -0.881034  1.734274
  C     8.239280  2.985758  2.162116
  N    10.078459 -0.212417  1.551929
  N    10.522788  3.180742  1.912262
  N     8.019899 -1.316854  0.542192
  N     8.265463  2.703509  0.882936
  N     7.224367 -0.371627  4.204049
  N     7.722789  3.285753  4.641917
  S     6.473644 -1.111239  2.915479
  S     6.894458  2.889327  3.294706
  S     9.624191 -0.925179  0.122013
  S     9.845473  2.742422  0.403073
  S     8.781579  0.167343  3.991869
  S     9.294440  3.634211  4.354275
