16  
    
  C     7.317463 -1.785986  2.229142
  C     7.456571  2.391448  2.127621
  C     6.106978 -2.101490  1.508265
  C     6.193879  2.013587  1.563623
  N     8.291412 -1.403172  1.430295
  N     8.442712  2.498045  1.228404
  N     6.256783 -2.229629  0.204776
  N     6.253729  1.926031  0.220986
  N     5.580072 -2.037637  4.065588
  N     5.795398  2.225677  4.109169
  S     4.716997 -2.281820  2.598571
  S     4.932778  1.672113  2.764152
  S     7.824626 -1.735361 -0.124443
  S     7.797363  2.066616 -0.217636
  S     7.179215 -1.656495  3.925680
  S     7.374465  2.622212  3.839961
