16  
    
  C     5.489481 -2.306975  1.765646
  C     5.232702  1.717444  1.528032
  C     4.290614 -2.669968  1.017020
  C     4.156720  1.096703  0.776483
  N     6.595094 -2.069609  1.073682
  N     6.367685  1.918172  0.831639
  N     4.513619 -2.835793 -0.289556
  N     4.500625  0.930181 -0.484149
  N     3.576630 -2.671257  3.534978
  N     3.232106  1.174189  3.209584
  S     2.899004 -2.965763  2.022849
  S     2.727670  0.680099  1.716194
  S     6.060916 -2.288529 -0.530745
  S     6.060921  1.445073 -0.715388
  S     5.184924 -2.197755  3.458413
  S     4.834304  1.791280  3.201202
