16  
    
  C     9.279612 -0.596289  2.631548
  C     9.266397  3.277187  2.598416
  C     8.075374 -1.058796  2.058250
  C     8.022345  2.809496  1.936809
  N    10.308920 -0.414204  1.788843
  N    10.242087  3.302805  1.729373
  N     8.196702 -1.379005  0.766724
  N     8.116221  2.542450  0.630556
  N     7.609667 -0.582658  4.567723
  N     7.530680  3.366390  4.425339
  S     6.806492 -1.029856  3.238231
  S     6.698459  2.945010  3.036309
  S     9.747735 -0.892565  0.308051
  S     9.754853  2.784203  0.212834
  S     9.189277 -0.113745  4.323710
  S     9.215177  3.525739  4.374070
