16  
    
  C    12.014858  1.392015  3.516133
  C    11.888066  4.793561  3.757651
  C    10.844776  0.824843  2.812594
  C    10.695279  4.197306  3.159422
  N    13.019122  1.657535  2.691404
  N    12.791937  5.345744  2.865290
  N    10.942265  0.883220  1.482012
  N    10.739860  4.107520  1.844965
  N    10.392429  0.722173  5.376418
  N    10.125989  4.441270  5.668790
  S     9.693756  0.204791  3.949517
  S     9.408073  3.886030  4.293520
  S    12.482934  1.480236  1.178079
  S    12.168771  4.889653  1.350539
  S    11.946677  1.325178  5.195483
  S    11.672129  4.993440  5.473484
