16  
    
  C     5.716424 -2.087133  1.912522
  C     6.020561  1.657206  2.051464
  C     4.538224 -2.667378  1.271848
  C     4.762127  1.532317  1.441370
  N     6.782998 -1.871150  1.153044
  N     7.040688  1.613084  1.194202
  N     4.719733 -2.923772 -0.009556
  N     4.822157  1.280484  0.120853
  N     3.925609 -2.326432  3.688001
  N     4.329788  2.072465  3.924200
  S     3.260511 -2.986453  2.360346
  S     3.448331  1.654708  2.574053
  S     6.238790 -2.289823 -0.388132
  S     6.387739  1.408299 -0.270004
  S     5.521839 -1.912542  3.658810
  S     5.964842  2.039280  3.763291
