16  
    
  C     9.813445 -0.097187  2.616354
  C     9.744312  3.897226  2.549770
  C     8.515881 -0.493280  2.025668
  C     8.629876  3.136467  1.985224
  N    10.633071  0.384262  1.720677
  N    10.688828  4.154742  1.637335
  N     8.479305 -0.502074  0.714094
  N     8.671079  2.947804  0.667630
  N     8.220504 -0.533418  4.621324
  N     8.231222  3.089426  4.520472
  S     7.370969 -1.022166  3.287065
  S     7.452087  2.711137  3.164011
  S     9.931386  0.169768  0.222495
  S    10.119342  3.539125  0.208594
  S     9.832327 -0.065480  4.346801
  S     9.596304  3.959486  4.283179
