16  
    
  C    12.688635  1.470155  3.521702
  C    12.878774  5.589593  3.730166
  C    11.559607  0.848381  2.952601
  C    11.770306  5.005613  3.049804
  N    13.708871  1.717753  2.671153
  N    13.931390  5.743992  2.934083
  N    11.663982  0.658687  1.668076
  N    11.958316  4.814328  1.721643
  N    10.788256  1.393686  5.353802
  N    10.979462  5.087434  5.428835
  S    10.142262  0.677994  3.984489
  S    10.404776  4.616051  3.958675
  S    13.107502  1.184241  1.170556
  S    13.493921  5.303360  1.389604
  S    12.334218  1.968180  5.160388
  S    12.526835  5.738550  5.473704
