16  
    
  C    11.999223  1.463196  3.557597
  C    11.903019  4.976205  3.769601
  C    10.985446  0.727979  2.913950
  C    10.687759  4.450083  3.156199
  N    12.939497  1.908617  2.720290
  N    12.803006  5.328637  2.886550
  N    10.996339  0.781518  1.597564
  N    10.647447  4.334797  1.851649
  N    10.445968  0.583337  5.454131
  N    10.385900  4.311315  5.726517
  S     9.690412  0.237237  3.985427
  S     9.525847  3.866588  4.374598
  S    12.431837  1.569366  1.187288
  S    12.154283  4.982776  1.383443
  S    11.952258  1.404880  5.370595
  S    11.874999  5.028284  5.502292
