16  
    
  C     7.293798 -1.671536  2.250426
  C     7.427862  2.412177  2.142412
  C     6.080802 -1.968187  1.580974
  C     6.219810  1.875038  1.559376
  N     8.357379 -1.603791  1.444488
  N     8.433449  2.418389  1.270004
  N     6.214839 -2.172267  0.246603
  N     6.241841  1.606074  0.257864
  N     5.530311 -2.015807  4.082352
  N     5.779544  2.274822  4.069406
  S     4.751519 -2.271795  2.627884
  S     4.954053  1.674876  2.762524
  S     7.813091 -1.894768 -0.086608
  S     7.832891  1.993205 -0.171355
  S     7.078609 -1.578456  3.958596
  S     7.348266  2.578768  3.913932
