16  
    
  C     6.274816 -1.706954  1.940675
  C     6.487090  2.164795  2.048044
  C     5.173959 -2.338013  1.213061
  C     5.300187  1.693338  1.401186
  N     7.315650 -1.491541  1.178568
  N     7.508642  2.415923  1.220875
  N     5.338154 -2.397891 -0.097403
  N     5.429551  1.399109  0.108757
  N     4.502355 -2.169942  3.767588
  N     4.741353  1.836414  3.889669
  S     3.820638 -2.698917  2.302749
  S     3.991839  1.448464  2.488582
  S     6.888244 -1.965207 -0.325824
  S     7.020554  1.811965 -0.268566
  S     6.012453 -1.464139  3.612846
  S     6.284489  2.413239  3.751443
