16  
    
  C     7.290355 -1.508225  2.268428
  C     7.707326  2.724419  2.253065
  C     6.260832 -2.112054  1.536831
  C     6.461307  2.328138  1.608155
  N     8.212097 -0.962405  1.468111
  N     8.716472  3.009159  1.432113
  N     6.390770 -2.177954  0.210851
  N     6.537858  2.285528  0.288597
  N     5.448919 -2.117306  3.916649
  N     5.933459  2.240156  4.185579
  S     4.892645 -2.561375  2.439002
  S     5.157009  1.997167  2.749106
  S     7.788426 -1.343523 -0.067688
  S     8.166663  2.661760 -0.078840
  S     6.999272 -1.407529  3.916439
  S     7.518838  2.900367  4.008853
