16  
    
  C    12.693184  1.492283  3.508231
  C    12.872136  5.588104  3.737617
  C    11.451205  0.900749  2.926182
  C    11.786922  5.061697  2.967735
  N    13.676079  1.757509  2.633868
  N    13.979782  5.763263  2.986484
  N    11.618736  0.634860  1.618095
  N    11.958061  4.862985  1.687134
  N    10.784993  1.365131  5.343324
  N    10.893463  5.091149  5.458708
  S    10.159940  0.601403  3.969621
  S    10.383940  4.572041  3.931766
  S    13.080258  1.188943  1.156087
  S    13.528308  5.316759  1.372646
  S    12.359412  1.942195  5.146686
  S    12.511039  5.713566  5.429760
