16  
    
  C     9.778731  0.180940  2.709635
  C     9.816473  3.819266  2.589367
  C     8.590252 -0.432800  2.118742
  C     8.587103  3.188558  2.059856
  N    10.633441  0.517261  1.771732
  N    10.719765  4.173350  1.668126
  N     8.528447 -0.363221  0.832634
  N     8.729433  2.924781  0.768893
  N     8.194575 -0.553860  4.651590
  N     8.140378  3.222894  4.544903
  S     7.403598 -1.065054  3.260222
  S     7.343183  2.705899  3.140512
  S     9.968786  0.146798  0.292473
  S    10.134856  3.545972  0.217639
  S     9.783585 -0.095995  4.439251
  S     9.704849  3.921244  4.343438
