16  
    
  C     8.938878 -0.351335  2.586392
  C     8.869089  3.338303  2.630710
  C     7.742427 -0.785197  1.903578
  C     7.647982  2.932179  2.029586
  N     9.928864 -0.106955  1.748003
  N     9.818477  3.713082  1.768521
  N     7.809582 -0.834329  0.588803
  N     7.605034  2.904043  0.696725
  N     7.247424 -0.599026  4.460845
  N     7.233508  3.024735  4.632176
  S     6.424710 -1.043233  3.030087
  S     6.372174  2.744761  3.233735
  S     9.390026 -0.369101  0.212222
  S     9.164233  3.434494  0.288649
  S     8.929728 -0.300252  4.283177
  S     8.831110  3.432531  4.368215
