16  
    
  C     9.267198 -0.496969  2.568722
  C     9.307348  3.175636  2.577476
  C     8.025336 -1.092465  2.014155
  C     8.025697  2.758022  2.014757
  N    10.231229 -0.350942  1.704904
  N    10.326450  3.283643  1.758291
  N     8.134613 -1.422718  0.758182
  N     8.183994  2.455855  0.723386
  N     7.544173 -0.454066  4.529162
  N     7.576593  3.294492  4.530790
  S     6.688537 -1.106092  3.200978
  S     6.727759  2.975455  3.154246
  S     9.637487 -0.891054  0.250706
  S     9.720861  2.788298  0.302701
  S     9.117688 -0.027899  4.222891
  S     9.179469  3.520804  4.249262
