16  
    
  C    12.951224  1.885399  3.651102
  C    12.982630  5.576388  3.665388
  C    11.695446  1.509955  3.158182
  C    11.713279  5.025367  3.175733
  N    13.972552  1.961931  2.769174
  N    13.942480  5.555129  2.738171
  N    11.685194  1.253084  1.848737
  N    11.680854  4.632624  1.862708
  N    11.295276  1.503813  5.664676
  N    11.235644  5.567543  5.664881
  S    10.385659  1.276471  4.256881
  S    10.416936  5.067862  4.288788
  S    13.263058  1.465411  1.330152
  S    13.199994  4.971359  1.317428
  S    12.902246  1.849720  5.428014
  S    12.890928  5.882068  5.396642
