16  
    
  C     5.914379 -2.152256  1.792263
  C     5.595786  1.143914  1.767414
  C     4.633552 -2.494517  1.199170
  C     4.374476  0.748508  1.146610
  N     6.877916 -1.988496  0.883955
  N     6.620116  1.252123  0.902897
  N     4.616055 -2.480026 -0.152293
  N     4.440613  0.497669 -0.155908
  N     4.325077 -2.354660  3.724164
  N     3.750276  1.232108  3.601822
  S     3.396694 -2.581010  2.419172
  S     2.990656  0.727536  2.251362
  S     6.192727 -2.327001 -0.585999
  S     6.027361  0.784196 -0.596433
  S     5.895911 -2.103607  3.506103
  S     5.387942  1.542937  3.446853
