16  
    
  C    12.138182  1.501744  3.313034
  C    12.210916  5.161746  3.622609
  C    10.991382  0.917549  2.688725
  C    10.981052  4.840248  3.032113
  N    13.201322  1.589041  2.479888
  N    13.272640  5.126188  2.807527
  N    11.118242  0.620645  1.399320
  N    11.066077  4.661299  1.683329
  N    10.290221  1.189600  5.120302
  N    10.546732  5.060487  5.589166
  S     9.508066  0.778660  3.682758
  S     9.718810  4.682284  4.190762
  S    12.693060  0.908376  1.031910
  S    12.617309  4.875448  1.276903
  S    11.924890  1.643103  5.038381
  S    12.170180  5.456210  5.410608
