16  
    
  C     4.200900 -2.291808  1.834258
  C     4.047754  1.153899  1.199167
  C     3.100399 -2.998443  1.268816
  C     3.006927  0.283084  0.654732
  N     5.189575 -1.987620  0.964346
  N     4.984946  1.494336  0.298406
  N     3.250311 -3.314688 -0.028869
  N     3.209076 -0.092173 -0.598509
  N     2.571424 -2.583535  3.759931
  N     2.225561  0.916183  3.028891
  S     1.788432 -3.139550  2.387518
  S     1.667955  0.039346  1.721558
  S     4.712280 -2.643728 -0.525290
  S     4.534480  0.718743 -1.110057
  S     4.130186 -2.000403  3.497119
  S     3.785616  1.682844  2.855706
