16  
    
  C    12.759107  1.658233  3.352786
  C    12.526640  5.271131  3.254165
  C    11.484280  1.237250  2.740183
  C    11.319201  4.822887  2.691869
  N    13.726885  1.877154  2.458398
  N    13.458446  5.533641  2.385891
  N    11.557829  1.055475  1.430335
  N    11.312621  4.689664  1.342470
  N    11.095089  1.528973  5.302062
  N    11.006670  4.775496  5.278817
  S    10.349126  0.857636  3.977951
  S    10.117886  4.447894  3.853290
  S    13.051022  1.517168  0.952425
  S    12.886424  5.122209  0.893106
  S    12.755999  1.694472  5.067406
  S    12.492262  5.487858  4.964604
