16  
    
  C     4.558891 -2.601238  1.491377
  C     5.260753  1.459722  1.791233
  C     3.299610 -2.815178  0.792328
  C     3.968989  1.200488  1.223652
  N     5.547266 -2.340489  0.694475
  N     6.193736  1.663426  0.840905
  N     3.390319 -2.737991 -0.534599
  N     3.929169  1.005395 -0.091308
  N     2.788917 -2.817482  3.370365
  N     3.608301  1.537755  3.799422
  S     2.024849 -3.281456  1.913717
  S     2.744916  1.241207  2.369463
  S     4.970353 -2.374012 -0.822798
  S     5.486314  1.407626 -0.658648
  S     4.443489 -2.598079  3.256877
  S     5.245349  1.753844  3.512909
