16  
    
  C    10.067693 -0.150988  2.960907
  C    10.340800  3.499186  3.097566
  C     8.888225 -0.386624  2.213815
  C     9.056374  3.641144  2.476723
  N    11.109732  0.164118  2.240327
  N    11.399704  3.520320  2.244464
  N     9.021879 -0.459346  0.924577
  N     9.169155  3.889535  1.189094
  N     8.063397 -0.570406  4.628790
  N     8.424174  3.562966  4.935879
  S     7.469310 -0.810269  3.119847
  S     7.723761  3.996002  3.520298
  S    10.585915 -0.015218  0.645278
  S    10.680484  3.792007  0.726224
  S     9.690490 -0.301106  4.635305
  S    10.123102  3.374015  4.852053
