16  
    
  C    10.635497  0.849414  2.932245
  C    10.612990  4.428838  2.801947
  C     9.420807  0.181222  2.437575
  C     9.542059  3.586953  2.279132
  N    11.673421  0.920509  2.082348
  N    11.691952  4.662614  2.046603
  N     9.522360 -0.164139  1.151722
  N     9.872747  3.140805  1.088894
  N     8.903860  0.634556  4.905406
  N     8.820228  4.373256  4.649151
  S     8.050922  0.189536  3.531483
  S     8.150439  3.575424  3.350305
  S    11.102939  0.174985  0.684631
  S    11.304776  3.845683  0.592678
  S    10.449616  1.217393  4.613702
  S    10.311413  5.074350  4.369326
