16  
    
  C     9.740408 -0.133987  2.507695
  C     9.824135  3.519635  2.535798
  C     8.520942 -0.623714  1.983266
  C     8.572548  3.145228  1.962997
  N    10.669441  0.030015  1.545924
  N    10.740718  3.894673  1.686787
  N     8.413863 -0.698991  0.667865
  N     8.518690  3.142075  0.637028
  N     8.272595 -0.651740  4.556571
  N     8.200522  2.974996  4.516468
  S     7.307071 -0.990123  3.197489
  S     7.377013  2.706508  3.080916
  S     9.937609 -0.331042  0.086721
  S    10.021113  3.690441  0.152240
  S     9.807671 -0.129243  4.262089
  S     9.682429  3.597749  4.262872
