16  
    
  C     9.964083 -0.044940  2.978562
  C    10.242361  3.473887  2.891126
  C     8.808352 -0.605926  2.268682
  C     8.885281  3.660825  2.379914
  N    11.031866  0.122815  2.239331
  N    11.214176  3.514127  1.965800
  N     8.948714 -0.670446  0.984256
  N     8.852207  3.757475  1.060392
  N     8.044517 -0.644387  4.663985
  N     8.546446  3.373975  4.872212
  S     7.423854 -0.995127  3.188092
  S     7.613289  3.608457  3.569694
  S    10.507340 -0.202237  0.646642
  S    10.430402  3.640280  0.517789
  S     9.653212 -0.210466  4.704973
  S    10.163771  3.422415  4.597575
