16  
    
  C     6.080200 -1.536566  2.415493
  C     6.606357  2.231658  2.220745
  C     5.043111 -2.301929  1.761069
  C     5.382481  1.742768  1.614472
  N     7.063015 -1.157264  1.634944
  N     7.616959  2.329046  1.352281
  N     5.264935 -2.522271  0.491628
  N     5.424416  1.606379  0.275293
  N     4.524177 -2.392883  4.285202
  N     4.952580  1.684030  4.181023
  S     3.750945 -2.777607  2.849132
  S     4.132968  1.416617  2.764707
  S     6.693149 -1.712234  0.141200
  S     6.987002  1.965923 -0.162585
  S     5.882323 -1.482655  4.137658
  S     6.529837  2.243224  3.935037
