16  
    
  C     9.619488 -0.068921  2.863772
  C     9.671538  3.527564  2.751386
  C     8.491303 -0.563052  2.176029
  C     8.419731  3.218287  2.058749
  N    10.694855  0.215595  2.086305
  N    10.680475  3.844226  1.968213
  N     8.692575 -0.868461  0.861871
  N     8.474433  3.267265  0.743149
  N     7.917575 -0.346368  4.751273
  N     7.983887  3.213435  4.623859
  S     7.188642 -0.876928  3.291617
  S     7.200434  3.231800  3.167476
  S    10.244206 -0.262935  0.557923
  S    10.050150  3.778968  0.378309
  S     9.502992  0.059104  4.583212
  S     9.637840  3.475535  4.502968
