16  
    
  C     8.688003 -0.934013  2.338250
  C     8.406324  3.292575  2.234408
  C     7.563908 -1.536042  1.738148
  C     7.242608  2.589782  1.724489
  N     9.746099 -0.701323  1.505419
  N     9.381529  3.588189  1.331078
  N     7.715817 -1.701106  0.397837
  N     7.368288  2.295294  0.419456
  N     7.051703 -1.493824  4.227912
  N     6.760058  2.815048  4.281753
  S     6.228171 -1.805916  2.861324
  S     5.967495  2.212384  2.928054
  S     9.254919 -1.218442  0.026575
  S     8.824229  2.907582 -0.043002
  S     8.558640 -0.828343  4.026342
  S     8.256596  3.450773  3.932601
