16  
    
  C     6.102225 -1.983883  1.681681
  C     6.215263  1.936899  1.849141
  C     4.842169 -2.317845  1.065376
  C     4.934667  1.827086  1.148880
  N     7.196785 -2.090881  0.907451
  N     7.234233  1.777943  1.019963
  N     4.969875 -2.662634 -0.228225
  N     5.061307  1.652571 -0.160040
  N     4.295510 -2.029306  3.611584
  N     4.394475  1.723840  3.696436
  S     3.576847 -2.515309  2.152842
  S     3.594008  1.996778  2.240280
  S     6.561121 -2.439409 -0.605852
  S     6.659675  1.655108 -0.505543
  S     5.925949 -1.652685  3.395454
  S     6.073779  1.852671  3.579044
