16  
    
  C     4.061034 -2.851149  1.574035
  C     4.212188  1.265356  1.577335
  C     2.837519 -3.174284  0.920965
  C     2.900677  1.132716  1.012943
  N     5.178237 -2.892774  0.849136
  N     5.216795  1.296432  0.708010
  N     2.996494 -3.468898 -0.385702
  N     2.925349  0.929171 -0.291269
  N     2.217307 -2.621698  3.364313
  N     2.532179  1.320981  3.491801
  S     1.524219 -3.356486  2.035935
  S     1.573212  1.094541  2.099493
  S     4.660988 -3.261308 -0.673968
  S     4.463492  1.062631 -0.787354
  S     3.861711 -2.308219  3.206920
  S     4.130152  1.675044  3.259117
