16  
    
  C     5.481568 -2.172349  1.923715
  C     5.261375  1.615672  1.767259
  C     4.337971 -2.779055  1.258427
  C     4.151382  0.976665  1.035260
  N     6.457901 -1.832278  1.091832
  N     6.207957  2.072104  0.969139
  N     4.455183 -2.760981 -0.064182
  N     4.168993  1.088335 -0.296414
  N     3.744947 -2.466068  3.732571
  N     3.527423  0.850954  3.509807
  S     2.980024 -2.883285  2.329574
  S     3.017459  0.193898  2.067838
  S     6.005017 -2.212517 -0.429439
  S     5.695001  1.743002 -0.615381
  S     5.265034 -1.911076  3.631014
  S     5.049770  1.560681  3.448624
