16  
    
  C     7.287690 -1.061037  2.050150
  C     7.709698  2.827475  2.184769
  C     6.071483 -1.494626  1.378976
  C     6.518830  2.241356  1.606124
  N     8.332783 -0.864931  1.258406
  N     8.687694  2.934133  1.275319
  N     6.247203 -1.662143  0.078108
  N     6.529342  2.074258  0.268433
  N     5.629206 -1.656745  3.893800
  N     6.015404  2.770395  4.072873
  S     4.823066 -1.936609  2.433176
  S     5.264439  2.050190  2.795604
  S     7.827667 -1.342151 -0.246696
  S     8.110607  2.429240 -0.185422
  S     7.204921 -1.149054  3.804358
  S     7.587925  3.200132  3.907908
