16  
    
  C     7.200838 -1.318418  2.157056
  C     7.423624  2.198557  2.172380
  C     6.029881 -1.999937  1.647532
  C     6.254542  1.693050  1.545662
  N     8.243755 -1.312055  1.374958
  N     8.482278  2.171531  1.364264
  N     6.210954 -2.448542  0.439851
  N     6.411648  1.380971  0.246266
  N     5.481948 -1.593285  4.071418
  N     5.693133  2.091812  4.071990
  S     4.736808 -2.123981  2.722948
  S     4.918419  1.606667  2.707311
  S     7.753259 -2.005117 -0.037941
  S     7.949803  1.753593 -0.119633
  S     7.063787 -1.039276  3.880772
  S     7.252399  2.636025  3.862195
