16  
    
  C     4.519574 -2.664396  1.501119
  C     5.187218  1.471628  1.670442
  C     3.235349 -2.794764  0.817510
  C     3.903114  1.212188  1.072194
  N     5.530587 -2.381841  0.718373
  N     6.127796  1.678686  0.748808
  N     3.296106 -2.815682 -0.494661
  N     3.902557  1.144474 -0.246747
  N     2.716577 -2.783133  3.358042
  N     3.526528  1.209143  3.695231
  S     1.900294 -2.923084  1.897570
  S     2.647089  0.981878  2.263123
  S     4.913162 -2.598162 -0.821449
  S     5.534232  1.402400 -0.776881
  S     4.381329 -2.676768  3.254752
  S     5.186478  1.517688  3.425506
