16  
    
  C     5.440030 -2.115786  1.597080
  C     5.252748  1.581914  1.564618
  C     4.301526 -2.595556  0.840322
  C     4.143552  0.887880  0.897472
  N     6.548162 -2.123060  0.871608
  N     6.382358  1.699768  0.878146
  N     4.540361 -2.788617 -0.455741
  N     4.449482  0.551776 -0.361363
  N     3.511943 -2.447791  3.242234
  N     3.127800  1.753489  3.067627
  S     2.889582 -2.892076  1.797386
  S     2.647922  0.816538  1.849247
  S     6.142008 -2.449240 -0.704630
  S     5.977244  1.074118 -0.639203
  S     5.100106 -2.037464  3.260939
  S     4.697972  2.282315  3.039206
