16  
    
  C    12.035589  1.380183  3.428250
  C    12.210052  5.232644  3.125286
  C    10.863107  0.861596  2.711775
  C    10.986732  4.781011  2.571456
  N    13.118466  1.489770  2.682254
  N    13.233033  5.005516  2.390657
  N    11.087822  0.494508  1.464456
  N    11.096598  4.354437  1.314745
  N    10.169560  1.266139  5.176797
  N    10.488739  5.336217  5.070764
  S     9.418318  0.706051  3.810463
  S     9.638574  4.861339  3.700644
  S    12.714729  0.736967  1.197954
  S    12.694084  4.431973  0.926623
  S    11.778180  1.606740  5.137318
  S    12.138181  5.642024  4.839392
