16  
    
  C     8.481433 -1.072458  2.342873
  C     8.189877  2.693183  2.068085
  C     7.289216 -1.372772  1.625599
  C     7.034724  2.284019  1.357323
  N     9.561582 -0.857321  1.574348
  N     9.257099  2.772724  1.302490
  N     7.436237 -1.503366  0.273159
  N     7.174054  2.197039  0.032489
  N     6.668951 -1.182042  4.188319
  N     6.479364  2.396807  3.895191
  S     6.012115 -1.739258  2.791331
  S     5.725261  2.012798  2.420975
  S     9.051153 -1.090177  0.001547
  S     8.781159  2.571122 -0.304628
  S     8.318312 -0.935557  4.105457
  S     8.095787  2.996058  3.765355
