16  
    
  C    10.179577  0.448991  2.837933
  C    10.780304  4.404882  2.815725
  C     9.020625 -0.203290  2.262177
  C     9.562520  3.891604  2.191517
  N    11.090141  0.835019  1.974817
  N    11.806499  4.628392  1.994098
  N     9.029744 -0.132948  0.955485
  N     9.702517  3.697014  0.910931
  N     8.539813 -0.059704  4.748544
  N     8.958735  3.898604  4.624280
  S     7.710920 -0.419948  3.375188
  S     8.155778  3.711548  3.167824
  S    10.465391  0.527595  0.470078
  S    11.200963  4.256873  0.453396
  S    10.033032  0.665626  4.524503
  S    10.531977  4.424009  4.512208
