16  
    
  C     6.213176 -1.611704  1.530987
  C     6.421277  1.998591  1.894140
  C     5.080083 -2.296412  1.007051
  C     5.188054  1.684622  1.187306
  N     7.230732 -1.407798  0.674890
  N     7.483759  2.068373  1.117839
  N     5.231070 -2.542716 -0.296781
  N     5.241800  1.662969 -0.127540
  N     4.404304 -1.877087  3.472859
  N     4.554482  1.952202  3.707179
  S     3.687892 -2.437903  2.026911
  S     3.805973  1.543036  2.247108
  S     6.740952 -2.125970 -0.735822
  S     6.921004  1.818513 -0.491945
  S     6.008965 -1.240233  3.262986
  S     6.216825  2.162367  3.575381
