16  
    
  C     7.833403 -0.724750  1.968828
  C     8.160568  2.944791  2.495785
  C     6.718683 -1.453429  1.364677
  C     6.930989  2.601371  1.824174
  N     8.877284 -0.573452  1.189835
  N     9.183423  3.168229  1.660262
  N     6.870675 -1.683606  0.080348
  N     7.117511  2.501368  0.508103
  N     6.044619 -1.025018  3.826646
  N     6.406501  2.606444  4.312861
  S     5.361957 -1.705945  2.460007
  S     5.584921  2.339362  2.913314
  S     8.405382 -1.175708 -0.297769
  S     8.611545  2.852630  0.091108
  S     7.636208 -0.601773  3.744715
  S     7.994019  2.984237  4.223285
