16  
    
  C     3.422929 -3.092382  1.064789
  C     3.705018  0.533349  1.368240
  C     2.162450 -3.416384  0.427273
  C     2.459583  0.167022  0.683145
  N     4.403618 -2.848650  0.180291
  N     4.740737  0.823881  0.588118
  N     2.272181 -3.558631 -0.895705
  N     2.692286 -0.029688 -0.610820
  N     1.613166 -3.364941  2.978025
  N     1.941395  0.371855  3.166235
  S     0.831450 -3.574973  1.547862
  S     1.069645  0.126465  1.728399
  S     3.832077 -3.318348 -1.303358
  S     4.258937  0.452313 -0.942202
  S     3.206941 -3.094885  2.833944
  S     3.511345  0.833965  3.122618
