16  
    
  C     8.450969 -0.977999  2.389207
  C     8.170398  2.586243  2.033366
  C     7.241700 -1.100122  1.644413
  C     7.088886  2.089422  1.270591
  N     9.562306 -0.882889  1.639354
  N     9.269319  2.815288  1.311561
  N     7.424500 -1.288333  0.338311
  N     7.321673  1.996632 -0.032384
  N     6.522273 -1.180115  4.153351
  N     6.274272  2.264324  3.776111
  S     5.803666 -1.319728  2.667871
  S     5.690216  1.831540  2.253926
  S     9.071141 -1.137472  0.054496
  S     8.899821  2.327734 -0.288076
  S     8.164161 -0.851985  4.131847
  S     7.946047  2.605208  3.775948
