16  
    
  C     4.217325 -2.692475  1.567221
  C     4.192681  1.356770  1.625977
  C     2.994576 -3.178243  1.023170
  C     2.895960  1.286304  0.998342
  N     5.177178 -2.551979  0.629575
  N     5.194751  1.386491  0.747633
  N     3.052139 -3.601109 -0.259798
  N     2.925400  0.984434 -0.306139
  N     2.363254 -2.582940  3.472049
  N     2.553996  1.553730  3.596043
  S     1.594508 -3.127480  2.090675
  S     1.661251  1.510963  2.199425
  S     4.615743 -3.334391 -0.724979
  S     4.554490  1.000333 -0.715132
  S     3.994991 -2.307483  3.312893
  S     4.172859  1.544222  3.346060
