16  
    
  C    10.271409  0.388472  2.556938
  C    10.476259  4.224599  2.986265
  C     9.160063 -0.256731  1.938975
  C     9.269735  3.709760  2.427909
  N    11.341686  0.439344  1.804015
  N    11.484728  4.290577  2.131988
  N     9.295185 -0.622987  0.689071
  N     9.352029  3.358105  1.139463
  N     8.368139  0.512420  4.265681
  N     8.779022  4.389083  4.898857
  S     7.738600 -0.161006  2.880582
  S     7.934179  3.919884  3.555969
  S    10.897359 -0.232845  0.346621
  S    10.857647  3.716027  0.689156
  S     9.963107  0.965900  4.192442
  S    10.443724  4.607626  4.709091
