16  
    
  C    11.349053  0.430262  3.041729
  C    11.108608  4.459907  3.501449
  C    10.223997 -0.109880  2.302502
  C     9.824420  4.209720  2.873273
  N    12.499245  0.617820  2.315074
  N    12.058515  4.446552  2.589804
  N    10.502368 -0.409704  1.024384
  N     9.812087  3.971676  1.532547
  N     9.300734  0.389696  4.731860
  N     9.414901  4.478395  5.451850
  S     8.796870 -0.362164  3.328180
  S     8.513502  4.309173  4.062337
  S    12.106840  0.127795  0.784136
  S    11.435999  4.022024  1.131216
  S    10.877348  0.885939  4.640709
  S    11.049698  4.699053  5.215246
