16  
    
  C     7.172163 -1.645138  1.751009
  C     6.966545  1.990455  1.909287
  C     5.970769 -2.141664  1.128695
  C     5.691175  1.659119  1.292243
  N     8.237621 -1.505874  0.936778
  N     7.954188  2.336764  1.118887
  N     6.099207 -2.337866 -0.192552
  N     5.752602  1.601873 -0.023827
  N     5.362430 -1.786990  3.579937
  N     5.293600  1.564895  3.861415
  S     4.632753 -2.263268  2.140777
  S     4.427522  1.340933  2.447020
  S     7.629390 -1.997148 -0.565419
  S     7.326868  2.047046 -0.482188
  S     6.949001 -1.316156  3.415928
  S     6.847291  2.144138  3.611431
