16  
    
  C    10.924269  0.568029  3.234943
  C    11.079172  4.267022  3.352273
  C     9.810902  0.017501  2.467068
  C     9.833228  3.867119  2.725140
  N    12.004810  0.940329  2.516817
  N    12.047411  4.583975  2.476789
  N    10.039462  0.029277  1.132991
  N     9.902028  3.724650  1.407455
  N     9.076929  0.182394  5.006348
  N     9.471581  3.953193  5.320250
  S     8.432099 -0.245989  3.529040
  S     8.596149  3.488516  3.963612
  S    11.563386  0.729149  0.928769
  S    11.448426  4.212081  0.967801
  S    10.719211  0.595260  4.993700
  S    11.051054  4.390696  5.051004
