16  
    
  C     7.975361 -0.671927  2.424896
  C     8.260677  2.952348  2.293808
  C     6.875792 -1.333842  1.707383
  C     6.977375  2.533536  1.719054
  N     9.017473 -0.439861  1.656091
  N     9.240132  3.095240  1.423618
  N     7.117579 -1.501286  0.405009
  N     7.028680  2.256319  0.425207
  N     6.214530 -1.149120  4.249030
  N     6.708637  2.809100  4.357673
  S     5.518023 -1.609803  2.779030
  S     5.764932  2.502181  2.975828
  S     8.672212 -0.950294  0.113423
  S     8.653328  2.566382  0.002855
  S     7.708617 -0.489427  4.141558
  S     8.248875  3.312092  4.030633
