16  
    
  C     4.527019 -2.657971  1.486591
  C     5.186058  1.452863  1.677503
  C     3.237046 -2.796814  0.821208
  C     3.908051  1.210130  1.081098
  N     5.535087 -2.371325  0.710109
  N     6.132572  1.685110  0.754188
  N     3.301563 -2.804024 -0.493263
  N     3.907093  1.127471 -0.238843
  N     2.718877 -2.777889  3.366086
  N     3.534918  1.214227  3.693065
  S     1.901943 -2.935844  1.895889
  S     2.639568  0.996912  2.270334
  S     4.908796 -2.592681 -0.819384
  S     5.540149  1.406372 -0.776361
  S     4.377360 -2.685564  3.251061
  S     5.195501  1.532195  3.417701
