16  
    
  C     4.712273 -2.018358  1.667385
  C     4.383425  1.401414  1.388143
  C     3.411981 -2.183444  1.101336
  C     3.151643  1.043550  0.753865
  N     5.741771 -2.044023  0.792981
  N     5.402906  1.661557  0.559101
  N     3.443517 -2.444970 -0.220260
  N     3.287104  0.789128 -0.550469
  N     3.031396 -1.819732  3.609185
  N     2.646191  0.717790  3.227550
  S     2.127778 -2.175557  2.292803
  S     1.841191  0.703571  1.776514
  S     5.040068 -2.284391 -0.677739
  S     4.849833  1.316422 -0.971819
  S     4.686095 -1.794384  3.399453
  S     4.193113  1.455479  3.171076
