16  
    
  C    12.116528  1.279923  3.332481
  C    12.314532  5.070001  3.475655
  C    10.892608  0.889614  2.635910
  C    11.024837  4.621073  2.895785
  N    13.197067  1.277658  2.574706
  N    13.289110  5.134463  2.615636
  N    11.091185  0.528130  1.371751
  N    11.089821  4.509768  1.546110
  N    10.268966  1.356351  5.120484
  N    10.529784  5.334356  5.350580
  S     9.525211  0.848737  3.762796
  S     9.684053  4.780087  4.010709
  S    12.704445  0.834361  1.069103
  S    12.624490  4.742101  1.126709
  S    11.876652  1.632172  4.985881
  S    12.169071  5.508639  5.105355
