16  
    
  C     4.509572 -2.142168  1.901729
  C     4.022273  1.181462  1.152210
  C     3.349113 -2.671199  1.252560
  C     2.812420  0.693168  0.519757
  N     5.597426 -2.021265  1.096547
  N     5.102074  1.245514  0.392516
  N     3.552849 -2.962911 -0.039779
  N     3.002642  0.450336 -0.750245
  N     2.668602 -2.415165  3.716599
  N     2.312327  0.913440  2.972805
  S     2.010283 -2.989440  2.310642
  S     1.521424  0.367052  1.608246
  S     5.100737 -2.544491 -0.386207
  S     4.652640  0.771055 -1.090684
  S     4.201746 -1.793304  3.590547
  S     3.863272  1.451024  2.891317
