16  
    
  C    10.640655  0.837720  2.937568
  C    10.615623  4.449995  2.791830
  C     9.415168  0.197850  2.421764
  C     9.538342  3.584718  2.303275
  N    11.664508  0.925896  2.091339
  N    11.692101  4.668014  2.018024
  N     9.494469 -0.173759  1.157664
  N     9.851017  3.160555  1.100220
  N     8.897645  0.622976  4.910459
  N     8.834568  4.361844  4.649965
  S     8.054635  0.172136  3.537088
  S     8.138158  3.596996  3.340873
  S    11.084711  0.182650  0.685241
  S    11.286064  3.848791  0.597893
  S    10.435441  1.217145  4.627990
  S    10.313915  5.068281  4.378946
