16  
    
  C     5.456709 -2.201433  1.600529
  C     5.262745  1.543199  1.557324
  C     4.299599 -2.557179  0.872890
  C     4.138314  1.022027  0.821797
  N     6.598736 -2.131845  0.886077
  N     6.415339  1.649463  0.883685
  N     4.542303 -2.787697 -0.408934
  N     4.416313  0.634800 -0.407540
  N     3.474676 -2.453228  3.302776
  N     3.145500  1.736466  3.095284
  S     2.904236 -2.909890  1.797590
  S     2.685239  0.748372  1.786657
  S     6.132558 -2.421962 -0.660436
  S     6.019022  1.141581 -0.709298
  S     5.124178 -2.076883  3.289638
  S     4.697035  2.224953  3.084177
