16  
    
  C     5.757329 -2.155211  1.874634
  C     6.097526  1.631380  2.019082
  C     4.588815 -2.705967  1.256621
  C     4.781042  1.578456  1.457464
  N     6.835815 -1.890051  1.096820
  N     7.079547  1.444822  1.124535
  N     4.686085 -2.678796 -0.082956
  N     4.764248  1.400480  0.143773
  N     3.961105 -2.317475  3.688271
  N     4.452858  2.129786  3.962981
  S     3.218156 -2.872053  2.317642
  S     3.489773  1.894795  2.635607
  S     6.328384 -2.295678 -0.458827
  S     6.316715  1.212251 -0.334755
  S     5.577911 -1.959194  3.603976
  S     6.091060  2.135567  3.704984
