16  
    
  C     8.783650 -0.992815  2.366931
  C     8.386875  3.256266  2.405063
  C     7.573233 -1.308713  1.657022
  C     7.288689  2.566072  1.791312
  N     9.823057 -0.827601  1.578323
  N     9.351784  3.495688  1.552227
  N     7.722831 -1.553412  0.368333
  N     7.363175  2.380815  0.489044
  N     6.985869 -1.242224  4.200293
  N     6.815622  2.824745  4.345483
  S     6.234029 -1.658795  2.716149
  S     6.068774  2.213756  2.939769
  S     9.300849 -1.211200  0.049460
  S     8.854619  3.022043  0.033484
  S     8.594754 -0.709152  4.097952
  S     8.306807  3.586427  4.159799
