16  
    
  C    10.297469  0.066626  2.754470
  C    10.301919  4.110331  3.113203
  C     9.133520 -0.482879  2.151789
  C     9.007637  3.834250  2.532294
  N    11.344349  0.077973  1.933414
  N    11.278699  4.059161  2.197243
  N     9.216432 -0.766129  0.827744
  N     9.019057  3.429034  1.266144
  N     8.535148  0.165876  4.567460
  N     8.584011  4.397890  5.000155
  S     7.812170 -0.543699  3.271465
  S     7.744686  3.914371  3.692706
  S    10.818194 -0.487306  0.486413
  S    10.540184  3.563750  0.748764
  S    10.206762  0.378335  4.511408
  S    10.198427  4.527257  4.843963
