16  
    
  C     9.072235 -0.304513  2.489066
  C     9.540285  3.529600  2.833990
  C     7.852849 -0.842410  1.921749
  C     8.301214  3.130992  2.280516
  N    10.084206 -0.187922  1.634809
  N    10.571058  3.629344  1.987684
  N     7.899693 -0.971777  0.600466
  N     8.442289  2.807134  1.020321
  N     7.389371 -0.792703  4.491582
  N     7.643038  3.561060  4.663243
  S     6.565924 -1.163040  3.100945
  S     6.827560  3.188694  3.246857
  S     9.430778 -0.572987  0.154916
  S     9.935125  3.107338  0.478290
  S     8.969578 -0.426665  4.239274
  S     9.288965  3.949955  4.521487
