16  
    
  C    11.940513  1.145950  3.400523
  C    11.840387  4.951353  3.449402
  C    10.716312  0.737170  2.684266
  C    10.658257  4.452454  2.729286
  N    13.009226  1.265697  2.583557
  N    12.982993  5.000024  2.690976
  N    10.908915  0.473739  1.385384
  N    10.866051  4.218499  1.441424
  N    10.001012  1.160012  5.135922
  N     9.955886  4.847206  5.212737
  S     9.374028  0.467315  3.757134
  S     9.313474  4.424059  3.748925
  S    12.506257  0.751905  1.104382
  S    12.463189  4.572445  1.127566
  S    11.596186  1.604082  4.972133
  S    11.609344  5.152745  5.217572
