16  
    
  C     9.978217 -0.096106  2.712358
  C     9.800523  3.896124  2.781058
  C     8.833550 -0.604578  2.036882
  C     8.810257  3.044546  2.215931
  N    11.042261  0.237963  1.973900
  N    10.830894  4.326260  2.022162
  N     9.025292 -0.762133  0.732135
  N     9.081793  2.803678  0.938649
  N     8.100845 -0.367368  4.485865
  N     7.903286  3.695768  4.550515
  S     7.415214 -0.958762  3.061685
  S     7.266617  3.017014  3.182879
  S    10.576187 -0.221963  0.401035
  S    10.516691  3.649976  0.570463
  S     9.684097  0.082442  4.403792
  S     9.407738  4.342301  4.412877
