16  
    
  C    10.274257  0.341129  2.582414
  C    10.545850  4.240166  2.879605
  C     9.123647 -0.223431  1.959479
  C     9.288849  3.802086  2.390559
  N    11.302918  0.567178  1.785222
  N    11.579745  4.285283  2.039977
  N     9.366272 -0.607426  0.722764
  N     9.382004  3.403281  1.138844
  N     8.332659  0.523652  4.324063
  N     8.893475  4.210006  4.917182
  S     7.632068 -0.138089  3.003682
  S     7.940620  3.891948  3.598527
  S    10.855352 -0.046212  0.309522
  S    10.991668  3.765015  0.599342
  S     9.945659  0.930114  4.177600
  S    10.495635  4.600993  4.562863
