16  
    
  C     6.234497 -1.706820  2.110210
  C     6.530305  2.162841  2.070600
  C     5.168549 -2.362320  1.398796
  C     5.363667  1.636056  1.468034
  N     7.283083 -1.459800  1.324995
  N     7.560422  2.295530  1.224918
  N     5.339339 -2.534518  0.093789
  N     5.493189  1.456155  0.140575
  N     4.369410 -2.066489  3.871495
  N     4.774332  1.911316  3.986148
  S     3.814656 -2.800664  2.468267
  S     3.975552  1.494008  2.541065
  S     6.897146 -1.836905 -0.236837
  S     6.978602  1.911232 -0.250255
  S     5.959055 -1.534941  3.798417
  S     6.399778  2.339484  3.825914
