16  
    
  C     8.224750 -0.812041  2.480049
  C     8.200840  2.996437  2.347359
  C     7.046075 -1.414565  1.909454
  C     7.009565  2.390600  1.722023
  N     9.308458 -0.812359  1.651378
  N     9.224388  3.277149  1.510851
  N     7.174921 -1.630007  0.584812
  N     7.208973  2.112582  0.418149
  N     6.395895 -0.814110  4.378443
  N     6.426541  2.695726  4.166560
  S     5.673149 -1.452853  3.044389
  S     5.662841  2.088192  2.815029
  S     8.765924 -1.340370  0.166481
  S     8.747317  2.696587  0.060274
  S     7.972679 -0.419831  4.132163
  S     7.941667  3.290871  4.045049
