16  
    
  C    12.576183  1.607516  3.791062
  C    12.352944  5.023257  3.453079
  C    11.385936  1.161728  3.165827
  C    11.175962  4.606906  2.784108
  N    13.606506  1.754334  2.967007
  N    13.436473  5.119611  2.600558
  N    11.415261  0.920544  1.843487
  N    11.234314  4.536010  1.457395
  N    10.879591  1.203197  5.618642
  N    10.588123  4.999029  5.264054
  S    10.015530  1.062312  4.244952
  S     9.853427  4.479632  3.884213
  S    12.966009  1.372706  1.428853
  S    12.786378  4.779658  1.063456
  S    12.434940  1.740518  5.465714
  S    12.219737  5.284019  5.201572
