16  
    
  C     9.149996 -0.466459  2.539879
  C     9.600033  3.575511  2.837830
  C     7.856979 -0.837286  1.924909
  C     8.369979  3.063254  2.264043
  N    10.091557 -0.210425  1.650143
  N    10.580438  3.672295  1.957226
  N     7.924048 -1.066021  0.633017
  N     8.394915  2.773613  0.972695
  N     7.375620 -0.734648  4.400911
  N     7.696240  3.725840  4.632742
  S     6.562490 -1.172658  3.019875
  S     6.951062  3.241093  3.240874
  S     9.448240 -0.599545  0.150724
  S     9.965622  3.042905  0.526040
  S     9.014091 -0.407822  4.296163
  S     9.313638  3.936652  4.506637
