16  
    
  C    10.184509  0.535588  2.905027
  C    10.755040  4.272382  2.861008
  C     8.997134 -0.015983  2.277536
  C     9.515233  4.142246  2.157796
  N    11.139968  1.047617  2.083955
  N    11.870317  4.569180  2.197288
  N     9.047403  0.016088  0.937423
  N     9.742983  4.255824  0.853231
  N     8.549357  0.036337  4.826669
  N     8.933951  3.805196  4.656968
  S     7.830206 -0.630304  3.459734
  S     8.132290  3.693840  3.215251
  S    10.571863  0.660697  0.585198
  S    11.326552  4.652593  0.646761
  S    10.142860  0.365032  4.599932
  S    10.526708  4.269186  4.534120
