16  
    
  C    11.150557  0.732993  2.897049
  C    11.176946  4.235786  3.370942
  C    10.071475 -0.065731  2.444947
  C     9.904569  4.109655  2.690709
  N    12.174396  0.800949  2.025925
  N    12.149850  4.272224  2.485222
  N    10.171476 -0.443840  1.174073
  N     9.906014  4.005702  1.360415
  N     9.412581  0.482933  4.847799
  N     9.442823  4.099900  5.284390
  S     8.746430 -0.260692  3.528636
  S     8.579539  4.157354  3.875809
  S    11.631967  0.024293  0.634331
  S    11.492056  4.068639  0.906568
  S    10.940311  1.037235  4.606131
  S    11.056844  4.523048  5.100069
