16  
    
  C     7.048250 -1.555764  2.222395
  C     7.099363  2.195233  2.103732
  C     5.882890 -1.914740  1.477904
  C     5.917302  1.723982  1.376379
  N     8.143041 -1.307515  1.468180
  N     8.195314  2.371197  1.378311
  N     6.030538 -1.823682  0.126585
  N     6.080857  1.602864  0.085210
  N     5.143014 -1.657049  3.938808
  N     5.134312  1.949790  3.822228
  S     4.502447 -2.108338  2.521555
  S     4.507569  1.636198  2.342635
  S     7.630994 -1.542668 -0.112303
  S     7.703575  1.915347 -0.240983
  S     6.806397 -1.509724  3.921839
  S     6.740833  2.461290  3.799367
