16  
    
  C     4.255902 -2.707061  1.576860
  C     4.217797  1.202486  1.725612
  C     3.008945 -3.298088  1.082761
  C     2.874645  1.120084  1.120944
  N     5.231263 -2.581686  0.686811
  N     5.242069  1.001180  0.894169
  N     3.022310 -3.503952 -0.230658
  N     2.965555  1.087701 -0.199856
  N     2.548641 -2.500049  3.519088
  N     2.542796  1.350317  3.686069
  S     1.743923 -3.249325  2.292067
  S     1.630293  1.445398  2.268766
  S     4.637354 -3.193182 -0.774878
  S     4.509216  0.870662 -0.653530
  S     4.123199 -2.120772  3.200726
  S     4.183990  1.551314  3.472579
