16  
    
  C     8.685285 -0.409440  2.429032
  C     8.612770  3.012132  2.592913
  C     7.527202 -0.889052  1.757841
  C     7.382340  2.724940  1.987596
  N     9.845067 -0.381316  1.692378
  N     9.677257  3.225434  1.819355
  N     7.699603 -1.047918  0.407424
  N     7.507062  2.666225  0.673814
  N     6.851102 -0.595853  4.260185
  N     6.800195  2.939973  4.458894
  S     6.118286 -0.959921  2.846319
  S     5.998445  2.490931  3.028468
  S     9.327634 -0.775042  0.157254
  S     9.085010  2.928600  0.219515
  S     8.421700 -0.160111  4.113425
  S     8.438088  3.217344  4.257128
