16  
    
  C     7.274451 -1.624967  2.256088
  C     7.493985  2.280648  2.206288
  C     6.070827 -2.129956  1.657504
  C     6.293108  1.757127  1.590397
  N     8.270368 -1.329686  1.373597
  N     8.541649  2.310495  1.408295
  N     6.221867 -2.488873  0.374042
  N     6.443703  1.527184  0.297566
  N     5.386650 -1.487860  4.027291
  N     5.733672  2.134001  4.029671
  S     4.699074 -2.170773  2.716696
  S     4.938024  1.589688  2.723208
  S     7.755951 -1.983448 -0.104422
  S     8.001382  1.690060 -0.074882
  S     7.055625 -1.239462  3.989043
  S     7.302273  2.660468  3.859273
