16  
    
  C     9.121579 -0.436479  2.526212
  C     9.609466  3.570296  2.859398
  C     7.850178 -0.831315  1.935346
  C     8.350332  3.069428  2.280308
  N    10.113749 -0.199401  1.632737
  N    10.583149  3.671826  1.956803
  N     7.918341 -1.050684  0.628829
  N     8.418124  2.790396  0.993091
  N     7.378785 -0.748003  4.410570
  N     7.683965  3.688256  4.634152
  S     6.561644 -1.171863  3.038872
  S     6.925633  3.233465  3.242561
  S     9.443421 -0.593176  0.151767
  S     9.956563  3.051109  0.513166
  S     9.004617 -0.412006  4.288584
  S     9.304361  3.936972  4.500257
