16  
    
  C     5.493319 -2.326110  1.715299
  C     5.240130  1.604012  1.550818
  C     4.320917 -2.745656  0.959919
  C     4.125202  1.139397  0.726471
  N     6.541087 -2.086095  0.983086
  N     6.376956  1.852704  0.886202
  N     4.526290 -2.768579 -0.329580
  N     4.421651  0.928272 -0.542654
  N     3.548173 -2.602164  3.467647
  N     3.273189  1.382390  3.126712
  S     2.896551 -2.934727  1.959722
  S     2.731759  0.675394  1.695119
  S     6.127013 -2.337581 -0.591748
  S     6.061470  1.318157 -0.684208
  S     5.160220 -2.170324  3.441741
  S     4.793197  1.922606  3.150592
