16  
    
  C    11.736654  0.872081  3.153093
  C    11.935675  5.079213  3.138932
  C    10.447436  0.594834  2.594373
  C    10.796982  4.283803  2.654169
  N    12.758023  1.118441  2.303871
  N    12.898733  5.128323  2.242189
  N    10.486734  0.569336  1.289395
  N    10.839770  3.865926  1.392227
  N     9.885164  0.963205  5.068664
  N    10.258535  5.176637  5.072440
  S     9.093292  0.466909  3.650841
  S     9.535935  4.260159  3.909621
  S    12.048226  0.873156  0.804516
  S    12.358448  4.476576  0.853842
  S    11.494456  1.308438  4.823818
  S    11.835732  5.591412  4.794827
