16  
    
  C     4.737242 -1.953085  1.713466
  C     4.360706  1.380994  1.411363
  C     3.456305 -2.306824  1.110165
  C     3.163839  0.949507  0.695064
  N     5.729169 -1.986027  0.860461
  N     5.348871  1.553013  0.536605
  N     3.536496 -2.567456 -0.183655
  N     3.286514  0.790936 -0.613117
  N     3.035500 -1.844851  3.632915
  N     2.542826  0.759047  3.219209
  S     2.144879 -2.211416  2.275235
  S     1.746967  0.733210  1.741864
  S     5.084405 -2.258107 -0.618238
  S     4.808559  1.275315 -1.032730
  S     4.697776 -1.812513  3.440110
  S     4.150046  1.387665  3.180956
