16  
    
  C     9.915914 -0.051869  2.665085
  C     9.782772  4.041163  2.800730
  C     8.819368 -0.643739  2.010389
  C     8.850576  3.186930  2.174327
  N    10.964962  0.239272  1.900548
  N    10.792559  4.372333  1.993879
  N     9.032812 -0.734183  0.684026
  N     9.221187  2.694910  1.000068
  N     8.178902 -0.318109  4.476922
  N     7.933756  3.716523  4.545404
  S     7.531617 -0.947806  3.105057
  S     7.523607  2.768258  3.199107
  S    10.558335 -0.178012  0.393540
  S    10.583408  3.473817  0.574328
  S     9.768078  0.119859  4.383190
  S     9.460966  4.445599  4.495056
