16  
    
  C     6.548603 -1.714322  1.928079
  C     6.548731  2.206966  2.094776
  C     5.301054 -2.151888  1.312297
  C     5.450298  1.552104  1.498459
  N     7.544862 -1.492295  1.111482
  N     7.465078  2.602757  1.200457
  N     5.332264 -2.042670  0.001069
  N     5.493092  1.424839  0.163266
  N     4.916676 -2.255123  3.864676
  N     4.975395  1.554238  4.064936
  S     4.050769 -2.504495  2.418582
  S     4.221273  1.074430  2.628608
  S     6.942747 -1.768438 -0.425918
  S     6.984282  2.109864 -0.281255
  S     6.507686 -1.821237  3.703222
  S     6.465236  2.357778  3.866210
