16  
    
  C     6.613013 -1.779371  1.900889
  C     6.625167  2.189107  2.087660
  C     5.378670 -2.145488  1.270523
  C     5.454536  1.550603  1.463353
  N     7.599725 -1.532893  1.011900
  N     7.464158  2.649534  1.169443
  N     5.383808 -2.058111 -0.075760
  N     5.581025  1.396179  0.147702
  N     5.002270 -2.240804  3.802542
  N     5.008472  1.508122  4.006023
  S     4.096916 -2.513811  2.387385
  S     4.219257  1.079697  2.608954
  S     7.007273 -1.794986 -0.475975
  S     6.964914  2.087731 -0.283937
  S     6.610627 -1.798634  3.613126
  S     6.463145  2.374357  3.840821
