16  
    
  C    10.315977  0.392213  2.536449
  C    10.495478  4.193580  3.091617
  C     9.127008 -0.091288  1.893333
  C     9.263814  3.750765  2.515577
  N    11.416685  0.308697  1.808092
  N    11.421609  4.241298  2.152407
  N     9.361181 -0.608449  0.724473
  N     9.205432  3.390532  1.244092
  N     8.362005  0.565495  4.224262
  N     8.662332  4.462613  4.923913
  S     7.743255 -0.288982  2.954353
  S     7.929170  3.916882  3.540903
  S    10.968711 -0.430284  0.346011
  S    10.796729  3.648004  0.717523
  S     9.995352  0.934866  4.204970
  S    10.340060  4.648437  4.804082
