16  
    
  C    12.868217  1.712620  3.452641
  C    12.303693  5.043512  3.329309
  C    11.598301  1.222061  2.834882
  C    11.144798  4.672912  2.613325
  N    13.807908  1.699531  2.533842
  N    13.431921  5.264657  2.692316
  N    11.643644  0.972337  1.542351
  N    11.432326  4.507788  1.340530
  N    11.182860  1.638260  5.334155
  N    10.388199  4.719281  5.147633
  S    10.271377  1.243230  4.013519
  S     9.724532  4.293639  3.653433
  S    13.263501  1.182404  1.118518
  S    13.015769  4.929230  1.114132
  S    12.817012  1.919320  5.179477
  S    12.031575  5.079507  5.050380
