16  
    
  C    12.320286  1.587706  3.253687
  C    12.350142  5.404343  3.677450
  C    11.228208  0.971542  2.624649
  C    11.236507  4.774479  2.962051
  N    13.339319  1.816841  2.467089
  N    13.360239  5.637714  2.829322
  N    11.334060  0.877604  1.308378
  N    11.330898  4.625897  1.675800
  N    10.470804  1.441026  5.054951
  N    10.521994  4.823487  5.481694
  S     9.801346  0.886957  3.668244
  S     9.925651  4.272262  4.006983
  S    12.898712  1.373451  0.967158
  S    12.828022  5.193055  1.303619
  S    12.031402  1.848506  5.000724
  S    12.036910  5.636512  5.353991
