16  
    
  C     7.065758 -1.678949  1.620548
  C     6.849038  2.082753  1.922321
  C     5.865191 -2.130381  1.014071
  C     5.614979  1.640500  1.328351
  N     8.111481 -1.589820  0.774352
  N     7.818366  2.386381  1.095581
  N     5.968186 -2.411949 -0.314250
  N     5.649519  1.462725  0.028480
  N     5.362988 -1.779133  3.551288
  N     5.179451  1.696686  3.851482
  S     4.584636 -2.384609  2.212510
  S     4.423489  1.133240  2.459747
  S     7.485878 -1.979134 -0.729068
  S     7.122346  2.079765 -0.474628
  S     6.984655 -1.559691  3.311979
  S     6.725409  2.232613  3.640111
