16  
    
  C    11.635322  1.131452  3.008974
  C    11.845826  5.177434  3.067344
  C    10.340877  0.772935  2.359935
  C    10.693416  4.389374  2.590589
  N    12.618429  1.203323  2.127079
  N    12.825340  5.228594  2.172964
  N    10.408255  0.546651  1.060139
  N    10.787457  3.987039  1.347841
  N    10.091011  0.606534  5.000272
  N    10.274842  4.836360  5.051398
  S     9.174426  0.402611  3.615682
  S     9.479963  4.190700  3.741394
  S    12.003994  0.900941  0.631353
  S    12.346406  4.403742  0.874431
  S    11.585336  1.277258  4.691020
  S    11.753498  5.559785  4.799364
