16  
    
  C    11.088123  0.466638  3.156146
  C    11.128308  4.275914  3.013462
  C     9.884649  0.021020  2.496852
  C     9.985599  3.710112  2.373647
  N    12.049730  0.806989  2.297968
  N    12.141562  4.490873  2.210656
  N     9.984271 -0.254880  1.185166
  N    10.066243  3.558484  1.040833
  N     9.317071  0.299746  5.000934
  N     9.222439  4.128531  4.776609
  S     8.589008 -0.191785  3.594605
  S     8.585374  3.392446  3.435747
  S    11.454666  0.419935  0.777494
  S    11.613198  3.993534  0.640444
  S    10.931677  0.676152  4.924392
  S    10.847492  4.506618  4.725789
