16  
    
  C     4.275470 -2.538385  1.582129
  C     4.158458  1.165501  1.667009
  C     3.087618 -3.162670  1.063687
  C     2.850762  0.979616  1.097940
  N     5.257406 -2.359539  0.705476
  N     5.162453  1.197347  0.753661
  N     3.183889 -3.418574 -0.243355
  N     2.861093  0.749963 -0.212075
  N     2.643077 -2.786880  3.613205
  N     2.383068  1.348574  3.623227
  S     1.831781 -3.400939  2.282751
  S     1.551758  0.995637  2.213777
  S     4.719036 -3.083537 -0.667527
  S     4.492864  0.809312 -0.705185
  S     4.130207 -2.087628  3.279500
  S     4.059189  1.422736  3.470348
