16  
    
  C     8.082684 -0.670811  2.472971
  C     8.313727  2.988917  2.326101
  C     6.978258 -1.358827  1.854730
  C     7.038985  2.476322  1.777613
  N     9.163872 -0.503274  1.658233
  N     9.325992  3.131959  1.451496
  N     7.170613 -1.627277  0.546913
  N     7.087701  2.198198  0.474260
  N     6.291399 -1.074233  4.287159
  N     6.524630  2.944741  4.194277
  S     5.535869 -1.509467  2.805173
  S     5.724364  2.268223  2.892550
  S     8.679292 -1.096928  0.158759
  S     8.649153  2.689893 -0.012876
  S     7.819160 -0.480761  4.159077
  S     8.091379  3.301395  4.028881
