16  
    
  C    12.015732  1.451427  3.562034
  C    11.896356  4.975301  3.757340
  C    10.994408  0.731682  2.920738
  C    10.693012  4.430366  3.166818
  N    12.949252  1.906218  2.720840
  N    12.791908  5.314479  2.886856
  N    10.986604  0.795604  1.600033
  N    10.640966  4.312748  1.851671
  N    10.442031  0.586392  5.453617
  N    10.372357  4.317522  5.720069
  S     9.685069  0.232151  3.987411
  S     9.524574  3.867989  4.358417
  S    12.434775  1.565732  1.181932
  S    12.152025  4.981240  1.385808
  S    11.949221  1.396001  5.357704
  S    11.869232  5.029801  5.509627
