16  
    
  C     6.226544 -1.685173  2.317542
  C     6.564186  2.051045  2.145454
  C     5.181987 -2.414015  1.622464
  C     5.343685  1.572022  1.513877
  N     7.075826 -1.152103  1.486160
  N     7.570470  2.263640  1.284906
  N     5.326579 -2.615399  0.348143
  N     5.456065  1.602089  0.172072
  N     4.373532 -2.137842  4.003130
  N     4.863307  1.935517  4.063558
  S     3.857479 -2.838064  2.608215
  S     4.061953  1.495100  2.659290
  S     6.788191 -1.806611 -0.025378
  S     6.972344  1.994257 -0.180481
  S     5.919016 -1.559177  4.005651
  S     6.489783  2.279903  3.884593
