16  
    
  C    10.962100  0.653165  2.840345
  C    11.061441  4.188182  3.282109
  C     9.855795 -0.107035  2.394332
  C     9.807374  3.895660  2.626391
  N    11.919046  0.928136  1.944445
  N    12.111195  4.312832  2.506512
  N     9.929100 -0.387260  1.078023
  N     9.950119  3.847471  1.294499
  N     9.464592  0.598992  4.833642
  N     9.292637  4.362286  5.117065
  S     8.620685 -0.171920  3.613697
  S     8.509704  3.784057  3.758230
  S    11.383241  0.194669  0.598680
  S    11.526974  4.211931  0.921674
  S    11.006043  1.067833  4.484105
  S    10.969924  4.417812  5.021898
