16  
    
  C     4.825583 -2.473152  1.584641
  C     4.977853  1.491859  1.996351
  C     3.579746 -2.913304  0.951417
  C     3.798099  1.041873  1.323719
  N     5.906779 -2.475558  0.805444
  N     5.925898  1.828120  1.170777
  N     3.685560 -3.090656 -0.336316
  N     3.860010  0.938449  0.002260
  N     3.001776 -2.326197  3.455893
  N     3.269039  1.030093  3.737984
  S     2.220517 -2.842375  2.099324
  S     2.452872  0.724600  2.329014
  S     5.319312 -2.975057 -0.672923
  S     5.415436  1.467833 -0.389248
  S     4.669823 -2.165179  3.306588
  S     4.884487  1.492056  3.736279
