16  
    
  C     7.486261 -1.239056  1.947290
  C     7.683298  2.835009  2.139329
  C     6.232891 -1.481130  1.334462
  C     6.506299  2.220813  1.611281
  N     8.507626 -1.016868  1.078105
  N     8.687848  2.966292  1.283671
  N     6.285799 -1.612411 -0.015143
  N     6.632852  1.969916  0.332144
  N     5.730141 -1.318921  3.918371
  N     6.011171  2.728699  4.083117
  S     4.967987 -1.852836  2.521671
  S     5.158637  2.151040  2.743639
  S     7.837095 -1.247564 -0.448098
  S     8.091611  2.456727 -0.172478
  S     7.324805 -0.997411  3.649300
  S     7.582638  3.232738  3.785516
