16  
    
  C    10.525561  0.720894  3.028020
  C    10.578277  4.647392  2.790980
  C     9.318530  0.095675  2.472728
  C     9.447801  3.958098  2.217161
  N    11.548034  0.825181  2.164396
  N    11.596172  4.672909  1.928418
  N     9.324298 -0.107674  1.144163
  N     9.543510  3.491358  0.976511
  N     8.780763  0.573935  4.955325
  N     8.835904  4.480043  4.719829
  S     8.027265 -0.153456  3.629120
  S     8.161468  3.687901  3.403547
  S    10.905446  0.325328  0.689859
  S    11.093209  3.890406  0.520297
  S    10.357687  1.123654  4.704168
  S    10.424740  4.937775  4.548010
