16  
    
  C     7.050881 -1.200887  2.259650
  C     7.110163  2.223879  2.076416
  C     5.862489 -1.735425  1.629751
  C     5.879954  1.795344  1.459079
  N     8.144637 -1.170867  1.465920
  N     8.179354  2.253755  1.302556
  N     6.005812 -1.999755  0.322680
  N     6.009255  1.571926  0.174876
  N     5.413571 -1.651411  4.118789
  N     5.382531  1.936911  3.977025
  S     4.527346 -2.002890  2.694092
  S     4.556799  1.638721  2.535284
  S     7.565140 -1.629264 -0.058472
  S     7.568708  1.913550 -0.297442
  S     7.009608 -1.273417  3.975627
  S     6.920470  2.600475  3.795809
