16  
    
  C     4.054307 -2.862666  1.548234
  C     4.118853  1.206367  1.502239
  C     2.837949 -3.345380  0.924536
  C     2.805720  0.937860  0.914293
  N     5.103740 -2.809364  0.695430
  N     5.149049  1.277426  0.653408
  N     2.938832 -3.706172 -0.376792
  N     2.929302  0.666684 -0.387026
  N     2.063342 -2.714615  3.225255
  N     2.417821  1.254996  3.452006
  S     1.442433 -3.478917  1.880231
  S     1.554291  0.687574  2.139018
  S     4.506796 -3.283710 -0.779090
  S     4.511571  0.947980 -0.882412
  S     3.699805 -2.372959  3.200059
  S     4.038721  1.520870  3.245838
