16  
    
  C    12.558746  1.495114  3.349030
  C    12.744650  5.469854  3.514519
  C    11.392863  0.901590  2.753781
  C    11.638357  4.975932  2.725296
  N    13.488283  1.924594  2.498387
  N    13.865770  5.759371  2.795853
  N    11.438410  0.981038  1.406649
  N    11.989837  4.812078  1.458617
  N    10.853867  1.068885  5.233957
  N    10.945084  4.855328  5.198198
  S    10.059367  0.646655  3.861762
  S    10.276788  4.614983  3.690068
  S    12.855835  1.660322  0.973012
  S    13.570102  5.350280  1.275712
  S    12.365852  1.625592  5.032891
  S    12.488545  5.569639  5.226563
