16  
    
  C     8.798901 -0.734868  2.426510
  C     8.572816  3.239288  2.577501
  C     7.593120 -1.019177  1.703109
  C     7.402004  2.634256  1.996614
  N     9.888761 -0.618786  1.594724
  N     9.561144  3.563390  1.705015
  N     7.784889 -1.349013  0.392182
  N     7.482023  2.496047  0.671535
  N     6.774720 -0.783139  4.169459
  N     6.819977  2.787880  4.466264
  S     6.124977 -1.024533  2.681829
  S     6.031269  2.374739  3.078199
  S     9.388887 -1.096027  0.074908
  S     8.978397  3.036724  0.258629
  S     8.433864 -0.464063  4.081969
  S     8.383117  3.291603  4.276162
