16  
    
  C    11.760311  1.176992  3.298750
  C    11.994845  5.017278  3.285435
  C    10.520691  0.569038  2.734573
  C    10.769063  4.454131  2.707990
  N    12.808514  1.294476  2.480383
  N    12.980143  5.047025  2.422996
  N    10.698396  0.344504  1.442524
  N    10.866038  4.062709  1.398404
  N     9.835462  1.132585  5.159344
  N    10.219914  5.101272  5.145546
  S     9.130901  0.557663  3.751952
  S     9.462242  4.367585  3.872639
  S    12.255681  0.631947  1.058367
  S    12.369538  4.496338  0.915154
  S    11.514085  1.339796  4.993359
  S    11.802527  5.521099  4.924544
