16  
    
  C     9.738881 -0.611405  2.713278
  C     9.660331  3.231300  2.611157
  C     8.488328 -1.027927  2.110942
  C     8.355774  3.115604  1.941417
  N    10.752158 -0.553449  1.897429
  N    10.699910  3.406784  1.761519
  N     8.510183 -1.052701  0.802031
  N     8.459543  3.065483  0.627510
  N     7.925932 -0.542239  4.573905
  N     7.733125  2.924731  4.425342
  S     7.083011 -0.952820  3.198271
  S     6.975449  3.019340  2.973141
  S    10.103275 -0.734973  0.368024
  S    10.008328  3.324260  0.240277
  S     9.581255 -0.391608  4.436731
  S     9.390503  3.253633  4.330425
