16  
    
  C    12.115908  1.306547  3.511578
  C    11.868214  4.905477  3.769914
  C    10.897890  0.847556  2.901852
  C    10.729748  4.256453  3.150566
  N    13.057593  1.864486  2.738215
  N    12.750161  5.274694  2.866497
  N    10.991473  0.873516  1.599676
  N    10.751871  4.210065  1.840036
  N    10.428727  0.665650  5.384602
  N    10.229551  4.391293  5.708665
  S     9.684481  0.198570  4.008816
  S     9.478919  3.882105  4.274726
  S    12.435718  1.511535  1.184685
  S    12.102832  4.922223  1.381999
  S    11.905627  1.325036  5.217601
  S    11.773226  5.019622  5.518976
