16  
    
  C     6.134512 -1.754298  1.581710
  C     6.368120  1.857044  1.881541
  C     4.993753 -2.440659  1.046809
  C     5.133534  1.780414  1.170206
  N     7.196988 -1.633029  0.790371
  N     7.437694  1.937376  1.110939
  N     5.157764 -2.736824 -0.239305
  N     5.196254  1.693545 -0.168326
  N     4.357070 -1.728839  3.448967
  N     4.513918  2.010792  3.638669
  S     3.682561 -2.442004  2.106599
  S     3.736712  1.702690  2.204747
  S     6.665401 -2.143719 -0.696551
  S     6.857988  1.881187 -0.494413
  S     5.983574 -1.422559  3.294464
  S     6.169259  1.981303  3.627457
