16  
    
  C     5.939489 -2.186214  1.867102
  C     5.658254  1.277990  1.764563
  C     4.603930 -2.372395  1.292132
  C     4.453294  0.753214  1.130469
  N     6.943158 -2.075992  0.990704
  N     6.695061  1.401564  0.916822
  N     4.654978 -2.565255 -0.019572
  N     4.608568  0.433257 -0.143979
  N     4.203358 -2.449737  3.861586
  N     3.855483  1.214347  3.575281
  S     3.347034 -2.600872  2.395832
  S     3.081442  0.688551  2.175270
  S     6.218124 -2.296923 -0.519581
  S     6.149326  0.859245 -0.539235
  S     5.861947 -2.138195  3.601481
  S     5.489089  1.394620  3.458473
