16  
    
  C     6.233028 -1.703432  2.315338
  C     6.565865  2.047380  2.133214
  C     5.182484 -2.384236  1.621446
  C     5.349181  1.580294  1.504856
  N     7.097953 -1.167109  1.479878
  N     7.571925  2.262148  1.288739
  N     5.333221 -2.622625  0.329907
  N     5.449455  1.579751  0.176294
  N     4.368152 -2.124401  3.967046
  N     4.866806  1.944133  4.049987
  S     3.856521 -2.839751  2.596579
  S     4.055319  1.500528  2.657014
  S     6.790825 -1.810256 -0.046581
  S     6.975622  1.997303 -0.185553
  S     5.921975 -1.560617  3.991777
  S     6.473944  2.280260  3.872730
