16  
    
  C     8.423756 -1.018309  2.494899
  C     8.175685  2.611697  2.249921
  C     7.158999 -1.489749  2.101957
  C     7.027273  2.094771  1.552430
  N     9.319728 -0.867767  1.498702
  N     9.271965  2.788174  1.483390
  N     7.151644 -2.000679  0.859621
  N     7.158229  1.977226  0.212437
  N     6.810173 -0.699471  4.439239
  N     6.202203  2.796832  3.964907
  S     5.930793 -1.365842  3.246168
  S     5.553329  2.061196  2.534003
  S     8.611152 -1.595561  0.205653
  S     8.818971  2.379991 -0.033796
  S     8.442988 -0.444301  4.104694
  S     7.901310  2.974588  3.959694
