16  
    
  C     5.719368 -2.036600  1.924796
  C     6.016927  1.669467  2.052141
  C     4.544208 -2.689784  1.280432
  C     4.732743  1.516424  1.431025
  N     6.772805 -1.888203  1.160038
  N     7.041172  1.649792  1.204541
  N     4.713610 -2.939441  0.017145
  N     4.828200  1.258677  0.114978
  N     3.934672 -2.340883  3.682009
  N     4.309077  2.038388  3.916830
  S     3.249923 -2.999957  2.368395
  S     3.447522  1.618949  2.564255
  S     6.238356 -2.292931 -0.392628
  S     6.396906  1.431482 -0.269836
  S     5.515517 -1.904818  3.671957
  S     5.950849  2.023596  3.780022
