16  
    
  C     4.193210 -2.741485  1.564437
  C     4.263657  1.223871  1.728705
  C     2.959179 -3.290218  1.060165
  C     2.955792  1.284316  1.094164
  N     5.173857 -2.558752  0.671585
  N     5.224000  1.077732  0.808246
  N     3.118142 -3.706997 -0.219902
  N     2.894843  0.985101 -0.205052
  N     2.544727 -2.509861  3.478827
  N     2.510031  1.521638  3.651099
  S     1.649190 -3.146714  2.205679
  S     1.719044  1.546717  2.249276
  S     4.588082 -3.173786 -0.698898
  S     4.531801  0.929984 -0.651860
  S     4.171176 -2.187613  3.195240
  S     4.162934  1.525576  3.458136
