16  
    
  C    10.234211  0.429344  2.599672
  C    10.581851  4.305851  2.880650
  C     9.041725 -0.175660  1.969312
  C     9.336415  3.775715  2.306824
  N    11.289117  0.611643  1.790977
  N    11.583044  4.274539  2.024022
  N     9.299890 -0.557273  0.705986
  N     9.400676  3.514317  0.975331
  N     8.335795  0.568532  4.377472
  N     8.942402  4.154503  4.876566
  S     7.619612 -0.208356  3.051915
  S     8.071552  3.830385  3.523427
  S    10.826903  0.033021  0.301537
  S    10.961183  3.753582  0.566304
  S     9.960670  0.909412  4.255929
  S    10.535068  4.639743  4.593496
