16  
    
  C    10.381366  0.419739  2.982867
  C    10.777934  4.473710  2.957646
  C     9.172411 -0.014960  2.373284
  C     9.539875  4.211057  2.291928
  N    11.243751  0.918967  2.122939
  N    11.820429  4.672976  2.153208
  N     9.163025  0.010372  1.061408
  N     9.569453  4.315931  0.971310
  N     8.674849 -0.167102  4.883873
  N     9.039428  3.652626  4.717934
  S     7.950620 -0.592309  3.442135
  S     8.179943  3.875989  3.328458
  S    10.596228  0.674334  0.583633
  S    11.125404  4.661802  0.543590
  S    10.148760  0.543898  4.707710
  S    10.603174  4.208391  4.644069
