16  
    
  C     4.298592 -2.341184  1.841704
  C     4.078056  1.140113  1.198997
  C     3.161025 -3.025237  1.276593
  C     2.998761  0.339363  0.634499
  N     5.189963 -1.889532  0.940051
  N     4.953194  1.491272  0.278018
  N     3.330888 -3.260196 -0.034611
  N     3.149139  0.011523 -0.620611
  N     2.555759 -2.404421  3.702921
  N     2.267654  0.958896  3.007659
  S     1.813627 -3.103293  2.381596
  S     1.632412  0.114629  1.705643
  S     4.785555 -2.617813 -0.434342
  S     4.592934  0.701945 -1.140870
  S     4.159435 -2.004063  3.514246
  S     3.743990  1.581445  2.828803
