16  
    
  C    11.428750  1.060284  3.107850
  C    11.410592  4.689504  3.268290
  C    10.240667  0.361305  2.558801
  C    10.268080  3.985038  2.697164
  N    12.324064  1.249205  2.157976
  N    12.415030  4.875492  2.429421
  N    10.262811  0.062315  1.272597
  N    10.411770  3.758719  1.399565
  N     9.623502  0.906261  5.041161
  N     9.587957  4.442223  5.106772
  S     8.852718  0.283310  3.680334
  S     8.980336  3.709760  3.715503
  S    11.787645  0.586621  0.723037
  S    11.911063  4.293785  1.014406
  S    11.242912  1.239933  4.921032
  S    11.128687  5.115434  4.955475
