16  
    
  C     7.868819 -0.955671  1.961710
  C     7.994502  2.941147  2.465971
  C     6.669792 -1.461067  1.316381
  C     6.844472  2.485735  1.721320
  N     8.924056 -0.850874  1.117919
  N     9.052844  3.271782  1.711121
  N     6.792503 -1.637622 -0.020743
  N     7.088108  2.292913  0.420031
  N     6.022279 -0.835576  3.701428
  N     6.229215  2.384040  4.239836
  S     5.372495 -1.665709  2.456686
  S     5.483368  2.303512  2.760756
  S     8.366866 -1.246330 -0.392292
  S     8.644166  2.847064  0.172141
  S     7.663108 -0.547726  3.599376
  S     7.781105  3.057610  4.182899
