16  
    
  C     8.382194 -0.958821  2.412096
  C     8.210171  2.505400  2.042685
  C     7.193415 -1.166929  1.622901
  C     7.072296  2.012160  1.241108
  N     9.489818 -0.925912  1.667690
  N     9.294821  2.745251  1.307155
  N     7.442726 -1.316966  0.297723
  N     7.345498  1.819314 -0.079854
  N     6.516647 -1.141494  4.202680
  N     6.310989  2.255880  3.692907
  S     5.832344 -1.154287  2.697755
  S     5.663302  1.772534  2.240277
  S     9.077697 -1.097979  0.065041
  S     8.933018  2.360809 -0.210814
  S     8.120720 -0.797493  4.146845
  S     7.928119  2.548570  3.794634
