16  
    
  C     9.111657 -0.425488  2.521499
  C     9.609390  3.567503  2.864537
  C     7.849489 -0.830772  1.938560
  C     8.343363  3.072795  2.284904
  N    10.119737 -0.196619  1.627978
  N    10.584117  3.670776  1.956931
  N     7.916653 -1.044790  0.626542
  N     8.425826  2.795103  0.999542
  N     7.379832 -0.752223  4.414901
  N     7.679707  3.676015  4.635012
  S     6.561647 -1.171399  3.045187
  S     6.916929  3.230564  3.243008
  S     9.441896 -0.591203  0.152254
  S     9.953782  3.054304  0.508800
  S     9.001203 -0.413511  4.285509
  S     9.302077  3.937468  4.499146
