16  
    
  C     8.284681 -0.908516  2.489503
  C     8.111364  3.049894  2.338622
  C     7.036747 -1.332061  1.890921
  C     7.024385  2.408119  1.713918
  N     9.344396 -0.892114  1.654705
  N     9.168126  3.231836  1.592718
  N     7.159479 -1.691381  0.609425
  N     7.287700  2.094617  0.457105
  N     6.487858 -0.807311  4.371992
  N     6.382085  2.534367  4.224790
  S     5.690134 -1.485698  3.069730
  S     5.667724  2.093128  2.781989
  S     8.745406 -1.402485  0.188916
  S     8.758131  2.640615  0.063467
  S     8.095445 -0.358138  4.152022
  S     7.911693  3.288037  3.992428
