16  
    
  C     8.290029 -0.936850  2.516464
  C     8.090074  3.079996  2.346945
  C     7.005189 -1.321762  1.908220
  C     7.003159  2.371701  1.702774
  N     9.342979 -0.919587  1.665024
  N     9.185122  3.220841  1.591167
  N     7.148106 -1.721623  0.628475
  N     7.226852  2.057364  0.423653
  N     6.569775 -0.800646  4.384500
  N     6.399672  2.498285  4.238725
  S     5.735541 -1.497123  3.045235
  S     5.678421  2.098482  2.748065
  S     8.716538 -1.435942  0.209971
  S     8.776921  2.608827  0.070849
  S     8.158594 -0.335703  4.157636
  S     7.880122  3.285496  4.020389
