16  
    
  C     3.745480 -2.768922  1.253196
  C     4.073665  1.021097  1.535022
  C     2.623321 -3.494240  0.722480
  C     2.850495  0.523841  0.897432
  N     4.736014 -2.464182  0.378531
  N     4.983711  1.363800  0.635003
  N     2.837405 -3.964435 -0.529047
  N     2.947164  0.239928 -0.416418
  N     1.997270 -2.924543  3.184431
  N     2.309148  0.830837  3.391658
  S     1.238865 -3.575008  1.864220
  S     1.562000  0.434504  2.024468
  S     4.446162 -3.436074 -0.970137
  S     4.431075  0.766202 -0.869084
  S     3.592309 -2.484450  2.957066
  S     3.929292  1.298714  3.235031
