16  
    
  C    12.130085  1.253678  3.334609
  C    12.263233  5.039985  3.436676
  C    10.877817  0.786200  2.702181
  C    11.045607  4.647699  2.851982
  N    13.271063  1.207958  2.606136
  N    13.259797  5.117878  2.530641
  N    11.086347  0.583254  1.403867
  N    11.072569  4.437146  1.523526
  N    10.236889  1.392583  5.147110
  N    10.530599  5.354568  5.297920
  S     9.479852  0.835718  3.763074
  S     9.709057  4.804815  3.942996
  S    12.689592  0.824989  1.056825
  S    12.616985  4.706915  1.066117
  S    11.883359  1.653170  4.974961
  S    12.170795  5.523248  5.104357
