16  
    
  C     9.972132 -0.053964  2.702754
  C    10.116907  3.806863  2.773135
  C     8.737281 -0.489413  2.105873
  C     9.069269  2.912991  2.306782
  N    11.032493  0.053855  1.874182
  N    10.928414  4.186773  1.767680
  N     8.887449 -0.623032  0.759867
  N     9.202573  2.556543  1.035427
  N     8.341126 -0.349780  4.637524
  N     8.446530  3.400677  4.786876
  S     7.435153 -0.740133  3.254938
  S     7.809285  2.567607  3.475784
  S    10.463285 -0.229335  0.344403
  S    10.431190  3.376006  0.411451
  S     9.948938  0.008798  4.418451
  S     9.724274  4.403005  4.330887
