16  
    
  C    11.053560  0.524385  3.192770
  C    11.129068  4.185118  3.022707
  C     9.897794 -0.092161  2.559357
  C     9.898407  3.708072  2.430698
  N    12.042264  0.819189  2.389123
  N    12.183404  4.410771  2.252248
  N    10.049437 -0.111130  1.253769
  N    10.053096  3.680211  1.109236
  N     9.324172  0.101957  5.064113
  N     9.390209  4.007850  4.924698
  S     8.523316 -0.209298  3.630558
  S     8.646051  3.401781  3.562117
  S    11.534985  0.498155  0.846965
  S    11.614673  4.062957  0.724272
  S    10.894314  0.686341  4.889244
  S    10.968252  4.478287  4.733646
