16  
    
  C     8.759719 -0.936698  2.387078
  C     8.490273  3.254855  2.516479
  C     7.573670 -1.186023  1.627309
  C     7.338047  2.631964  1.883855
  N     9.816020 -0.835345  1.659574
  N     9.484240  3.473260  1.677067
  N     7.753621 -1.365234  0.350863
  N     7.433992  2.469362  0.557582
  N     6.855374 -0.730304  4.081099
  N     6.781038  2.839527  4.471758
  S     6.187678 -1.297617  2.668970
  S     6.059437  2.209268  3.063953
  S     9.383601 -1.092142  0.116483
  S     8.942236  3.086609  0.199353
  S     8.568679 -0.596616  4.073137
  S     8.376740  3.465436  4.301577
