16  
    
  C     7.974608 -0.738965  2.388806
  C     8.346773  3.006318  2.320619
  C     6.828273 -1.212582  1.693492
  C     7.054809  2.637803  1.869255
  N     9.013744 -0.416676  1.602292
  N     9.321064  2.979521  1.382910
  N     7.012623 -1.399190  0.386734
  N     7.046388  2.315412  0.573875
  N     6.066472 -1.080219  4.097236
  N     6.774155  2.794369  4.403413
  S     5.520592 -1.802296  2.677112
  S     5.761139  2.700842  3.028806
  S     8.521983 -0.842885  0.075970
  S     8.528954  2.559118 -0.020162
  S     7.652971 -0.534269  4.045706
  S     8.383032  3.205190  4.050246
