16  
    
  C    10.323182  0.398787  2.537852
  C    10.463708  4.215623  3.068848
  C     9.139831 -0.209623  1.918497
  C     9.145275  3.818554  2.551817
  N    11.456611  0.199804  1.857367
  N    11.506148  4.133142  2.205447
  N     9.356414 -0.632733  0.679508
  N     9.259738  3.427372  1.306173
  N     8.386046  0.586595  4.276738
  N     8.657674  4.349533  5.014202
  S     7.795729 -0.367888  3.067383
  S     7.765861  3.944367  3.672005
  S    11.011037 -0.528438  0.429759
  S    10.756337  3.603390  0.758738
  S    10.017925  0.844136  4.150988
  S    10.252529  4.684346  4.739384
