16  
    
  C     9.887026 -0.180704  2.790250
  C     9.718747  3.963041  2.799500
  C     8.739122 -0.634646  2.051523
  C     8.553852  3.459904  2.071643
  N    10.944509  0.086701  2.079538
  N    10.777655  4.004648  1.964587
  N     8.927690 -0.774551  0.760973
  N     8.662581  3.283467  0.753906
  N     7.925326 -0.297036  4.501675
  N     7.827895  3.594311  4.517804
  S     7.375875 -0.920871  3.043049
  S     7.144434  3.172156  3.057110
  S    10.507964 -0.352988  0.515721
  S    10.257977  3.660827  0.460519
  S     9.533141  0.021939  4.482010
  S     9.383910  4.125279  4.533950
