16  
    
  C     9.955549 -0.002243  2.667707
  C    10.039669  3.778002  2.776687
  C     8.775367 -0.516713  2.035393
  C     9.045792  2.881467  2.290938
  N    10.976363  0.073224  1.849756
  N    10.905263  4.175092  1.871086
  N     8.899639 -0.634834  0.722728
  N     9.247463  2.508858  1.020294
  N     8.389110 -0.394121  4.616198
  N     8.467536  3.387566  4.746336
  S     7.436818 -0.729772  3.240658
  S     7.809857  2.535162  3.493074
  S    10.467067 -0.218488  0.341009
  S    10.491093  3.400294  0.415611
  S     9.957438  0.064048  4.418289
  S     9.649361  4.487882  4.314809
