16  
    
  C     4.257008 -2.511673  1.629540
  C     4.200403  1.156582  1.672977
  C     3.090130 -3.167672  1.093643
  C     2.891653  0.875487  1.083250
  N     5.242794 -2.261025  0.743115
  N     5.151010  1.281852  0.765944
  N     3.242135 -3.534893 -0.192932
  N     2.896709  0.625056 -0.223270
  N     2.653862 -2.859452  3.632579
  N     2.403773  1.332850  3.553562
  S     1.830833 -3.364202  2.294893
  S     1.502368  0.920178  2.176912
  S     4.782708 -3.007855 -0.710538
  S     4.451764  0.825821 -0.706401
  S     4.112480 -2.139290  3.297472
  S     4.020757  1.423589  3.413854
