16  
    
  C     4.459589 -2.146545  1.885705
  C     3.985386  1.174868  1.186143
  C     3.300076 -2.724489  1.247883
  C     2.831785  0.659764  0.490867
  N     5.494530 -2.036159  1.064758
  N     5.042106  1.310548  0.392571
  N     3.501557 -3.126790  0.001609
  N     3.089371  0.270539 -0.787783
  N     2.586715 -2.357457  3.704154
  N     2.301734  0.930425  3.032319
  S     1.951092 -3.047444  2.331224
  S     1.528945  0.289775  1.646143
  S     5.010220 -2.547727 -0.439389
  S     4.640034  0.741762 -1.110872
  S     4.177289 -1.866941  3.602979
  S     3.846564  1.478261  2.844179
