16  
    
  C     6.233483 -1.492740  1.511491
  C     6.407291  2.152432  1.871971
  C     5.092739 -2.173797  0.912071
  C     5.212370  1.596126  1.243340
  N     7.336954 -1.446728  0.795783
  N     7.431331  2.361567  1.035239
  N     5.264362 -2.372174 -0.365277
  N     5.451036  1.249335 -0.036387
  N     4.451081 -1.827282  3.407017
  N     4.632552  1.769040  3.722974
  S     3.790278 -2.536578  1.984980
  S     3.850662  1.385243  2.323080
  S     6.898216 -1.991826 -0.733890
  S     6.951273  1.722342 -0.411823
  S     5.990028 -1.148514  3.216368
  S     6.160944  2.410129  3.573984
