16  
    
  C     4.686438 -2.274640  1.604534
  C     4.965363  1.296496  1.916020
  C     3.562853 -2.813010  0.895858
  C     3.657534  1.263452  1.297774
  N     5.680424 -1.907448  0.815114
  N     5.947456  1.444961  1.036555
  N     3.727332 -2.923390 -0.419317
  N     3.686592  1.172435 -0.050572
  N     2.857554 -2.759672  3.383208
  N     3.316316  1.714687  3.887654
  S     2.253365 -3.246050  1.913126
  S     2.368646  1.411842  2.511078
  S     5.256126 -2.330185 -0.729079
  S     5.266239  1.288198 -0.459566
  S     4.345720 -2.006327  3.300648
  S     5.041371  1.459775  3.644677
