16  
    
  C     5.433442 -2.115809  1.920509
  C     5.312001  1.627724  1.670153
  C     4.276216 -2.608350  1.218163
  C     4.245508  0.910002  0.944790
  N     6.483027 -1.980461  1.097403
  N     6.321859  2.139614  0.974810
  N     4.429202 -2.707722 -0.092786
  N     4.444967  0.975100 -0.366006
  N     3.657686 -2.654936  3.669691
  N     3.451704  0.900093  3.369760
  S     2.953289 -3.025886  2.243374
  S     2.861465  0.412533  1.846757
  S     5.977809 -2.244791 -0.444174
  S     5.851185  1.804947 -0.635421
  S     5.189193 -2.126083  3.614961
  S     4.958078  1.580372  3.363513
