16  
    
  C    10.978515  0.485053  3.234910
  C    11.074644  4.263979  3.361389
  C     9.838138  0.070300  2.474136
  C     9.860009  3.783015  2.772515
  N    11.939045  0.946970  2.464139
  N    12.045686  4.599710  2.541362
  N    10.087848 -0.042085  1.181727
  N     9.902733  3.770564  1.433165
  N     9.113936  0.166162  4.968346
  N     9.381442  3.987070  5.313484
  S     8.407900 -0.196417  3.499484
  S     8.578689  3.496981  3.960592
  S    11.492498  0.736794  0.886815
  S    11.413742  4.206486  0.979021
  S    10.720748  0.611633  4.952551
  S    10.949502  4.482006  5.078978
