16  
    
  C    12.655814  1.571139  3.800813
  C    12.398738  5.036435  3.427849
  C    11.386544  1.357329  3.097253
  C    11.163808  4.534511  2.752314
  N    13.664789  1.702042  2.952295
  N    13.441812  5.176017  2.675956
  N    11.478895  1.128801  1.792462
  N    11.364698  4.360524  1.434059
  N    10.866517  1.236401  5.662838
  N    10.511417  4.951525  5.163779
  S     9.987578  1.260089  4.234513
  S     9.801616  4.329892  3.845527
  S    13.126065  1.310994  1.415698
  S    12.870237  4.781931  1.120613
  S    12.492639  1.807047  5.541760
  S    12.122547  5.111673  5.144443
