16  
    
  C     9.646625 -0.657598  2.774037
  C     9.538610  3.249744  2.601720
  C     8.370387 -0.819659  2.099634
  C     8.249321  3.015243  1.916606
  N    10.685097 -0.514752  1.956962
  N    10.616458  3.281944  1.803251
  N     8.519285 -1.021459  0.793416
  N     8.376132  3.036947  0.605756
  N     7.889387 -0.562112  4.613492
  N     7.676491  2.986933  4.383215
  S     7.030677 -0.988706  3.234382
  S     6.894984  3.032374  2.954848
  S    10.126224 -0.864383  0.439638
  S    10.009601  3.220600  0.248525
  S     9.536846 -0.437105  4.468377
  S     9.268218  3.364785  4.261224
