16  
    
  C     7.288255 -1.496732  2.133796
  C     7.569611  2.533766  2.162537
  C     6.135491 -2.046799  1.430724
  C     6.341672  2.108037  1.593586
  N     8.337075 -1.276310  1.376146
  N     8.510545  2.900267  1.292554
  N     6.200772 -1.964668  0.105520
  N     6.431676  2.011259  0.263698
  N     5.618662 -2.118247  4.006646
  N     5.913551  2.229194  4.143065
  S     4.916614 -2.597428  2.552317
  S     5.058407  1.949581  2.706708
  S     7.783470 -1.518998 -0.179061
  S     7.893554  2.475668 -0.242147
  S     7.141797 -1.582589  3.857578
  S     7.506334  2.664215  3.903270
