16  
    
  C    12.147634  1.165096  3.351034
  C    12.280746  5.035493  3.353378
  C    10.939311  0.741754  2.755209
  C    10.991996  4.693627  2.795564
  N    13.248649  1.153877  2.624057
  N    13.243944  5.098886  2.459295
  N    11.056741  0.623960  1.431256
  N    11.032409  4.349259  1.536135
  N    10.220342  1.425272  5.156625
  N    10.530993  5.353177  5.228451
  S     9.444418  0.811163  3.750844
  S     9.722216  4.829976  3.877844
  S    12.675430  0.814670  1.052373
  S    12.624998  4.668951  0.993233
  S    11.889620  1.686572  4.993775
  S    12.171316  5.536653  5.099409
