16  
    
  C    10.639563  0.842482  2.935391
  C    10.614107  4.442574  2.794620
  C     9.416602  0.191486  2.427401
  C     9.538288  3.583936  2.294907
  N    11.668396  0.924749  2.088253
  N    11.693255  4.666700  2.027881
  N     9.503038 -0.170330  1.155756
  N     9.858758  3.154165  1.097784
  N     8.899621  0.626717  4.909160
  N     8.830029  4.365440  4.649886
  S     8.053004  0.178081  3.535244
  S     8.141998  3.590042  3.343962
  S    11.091030  0.179945  0.685011
  S    11.292340  3.847842  0.595887
  S    10.440068  1.217205  4.623049
  S    10.313051  5.070411  4.375603
