16  
    
  C     5.464327 -2.170462  1.589951
  C     5.258607  1.539030  1.555715
  C     4.308800 -2.562215  0.858748
  C     4.142041  1.000517  0.833483
  N     6.571081 -2.141135  0.879324
  N     6.428358  1.666374  0.884220
  N     4.543775 -2.787060 -0.403166
  N     4.421570  0.610291 -0.387643
  N     3.477419 -2.451679  3.284696
  N     3.147853  1.745189  3.086129
  S     2.902143 -2.905271  1.797544
  S     2.672074  0.763432  1.804654
  S     6.135864 -2.426496 -0.668137
  S     6.007928  1.125150 -0.697022
  S     5.117938 -2.069371  3.277080
  S     4.690972  2.239154  3.071327
