16  
    
  C     8.091697 -0.675204  2.474140
  C     8.306593  2.996284  2.319954
  C     6.973537 -1.346398  1.841513
  C     7.033397  2.471334  1.776100
  N     9.160140 -0.487973  1.654508
  N     9.320075  3.123738  1.457619
  N     7.170456 -1.625675  0.536571
  N     7.091900  2.209582  0.485982
  N     6.278477 -1.086582  4.295921
  N     6.528443  2.935657  4.201019
  S     5.533597 -1.512008  2.812777
  S     5.720901  2.281292  2.898072
  S     8.681531 -1.087398  0.151894
  S     8.650247  2.682327 -0.016798
  S     7.801010 -0.485713  4.150511
  S     8.108412  3.304471  4.021991
