16  
    
  C    12.183008  1.358750  3.466138
  C    12.120410  5.132611  3.798695
  C    10.952632  0.842729  2.769901
  C    10.854830  4.690319  3.183954
  N    13.092901  1.754695  2.601417
  N    13.087722  5.331927  2.923841
  N    11.108160  0.747736  1.456950
  N    10.841863  4.631491  1.899512
  N    10.333065  1.138118  5.200878
  N    10.616677  4.719767  5.794771
  S     9.603757  0.470700  3.850797
  S     9.660368  4.464686  4.426434
  S    12.639768  1.326886  1.052547
  S    12.450174  5.151436  1.419545
  S    11.840010  1.791593  5.084156
  S    12.225793  5.125884  5.537947
