16  
    
  C    10.393580  0.108879  2.687057
  C    10.233262  4.169527  3.130523
  C     9.207304 -0.536429  2.163405
  C     8.987465  3.849266  2.483458
  N    11.479352  0.042290  1.867706
  N    11.264530  4.070671  2.308225
  N     9.351509 -0.915153  0.872140
  N     9.068583  3.491529  1.199888
  N     8.490890  0.304153  4.429439
  N     8.715510  4.170303  5.044004
  S     7.772236 -0.415979  3.133884
  S     7.742168  3.947810  3.729030
  S    10.903970 -0.539146  0.416951
  S    10.657378  3.520010  0.873849
  S    10.132918  0.736412  4.315568
  S    10.231515  4.746325  4.757972
