16  
    
  C    12.552969  1.473775  3.619177
  C    12.360350  5.211042  3.423954
  C    11.350020  1.035720  3.041193
  C    11.144957  4.762291  2.846763
  N    13.495707  1.807854  2.731958
  N    13.388476  5.264879  2.581240
  N    11.359764  0.859743  1.722378
  N    11.191439  4.575552  1.483692
  N    10.825738  1.472245  5.511377
  N    10.704774  4.911756  5.357138
  S    10.109084  0.781725  4.181681
  S     9.804637  4.615226  4.024240
  S    12.886782  1.413207  1.298336
  S    12.755936  4.853194  1.087776
  S    12.431169  1.722496  5.339784
  S    12.240447  5.459201  5.168294
