16  
    
  C     9.842861 -0.231960  2.822836
  C     9.696933  3.991153  2.759816
  C     8.720168 -0.603007  2.094473
  C     8.520601  3.522295  2.092647
  N    10.930419  0.082031  2.067049
  N    10.782496  3.991865  1.958744
  N     8.935553 -0.769626  0.766211
  N     8.663376  3.396329  0.763791
  N     7.893885 -0.289432  4.495875
  N     7.806971  3.586662  4.522466
  S     7.329016 -0.926997  3.070149
  S     7.110934  3.160191  3.074833
  S    10.507849 -0.367818  0.534792
  S    10.230893  3.636014  0.439285
  S     9.540819  0.021353  4.463910
  S     9.393323  4.066016  4.508605
