16  
    
  C     7.184013 -1.338640  2.161366
  C     7.456915  2.082152  2.162946
  C     6.017276 -1.976291  1.627822
  C     6.237730  1.595555  1.593093
  N     8.257123 -1.285404  1.336022
  N     8.404855  2.329108  1.235824
  N     6.185357 -2.234991  0.316171
  N     6.280971  1.314991  0.294471
  N     5.465334 -1.482607  4.150693
  N     5.617975  2.048976  4.080158
  S     4.722862 -2.108959  2.812712
  S     4.826974  1.635089  2.627725
  S     7.789770 -1.961226 -0.083352
  S     7.806240  1.780771 -0.170855
  S     7.022352 -0.906941  3.860728
  S     7.215351  2.546200  3.819283
