16  
    
  C     9.798921 -0.000244  2.634837
  C     9.789749  3.906627  2.573849
  C     8.517967 -0.483372  2.102980
  C     8.683050  3.199642  2.053882
  N    10.677522  0.479471  1.732655
  N    10.722894  4.203404  1.685554
  N     8.473122 -0.434140  0.776239
  N     8.689430  2.938539  0.768859
  N     8.227163 -0.513982  4.626004
  N     8.209986  3.151106  4.543460
  S     7.362181 -1.055640  3.269725
  S     7.401849  2.699744  3.148514
  S     9.956048  0.167844  0.235461
  S    10.115681  3.516029  0.187835
  S     9.822459 -0.082061  4.391877
  S     9.607904  3.935465  4.259540
