16  
    
  C     7.170754 -1.627906  1.736708
  C     6.949561  1.979037  1.905706
  C     5.990929 -2.175691  1.095049
  C     5.673075  1.634355  1.285145
  N     8.200539 -1.509895  0.901916
  N     7.944200  2.344038  1.093330
  N     6.076580 -2.320413 -0.209730
  N     5.760122  1.613424 -0.044771
  N     5.369236 -1.778537  3.575013
  N     5.290442  1.571510  3.881358
  S     4.622329 -2.277156  2.145666
  S     4.418052  1.318710  2.449570
  S     7.631627 -2.010877 -0.582356
  S     7.306301  2.046995 -0.486740
  S     6.962490 -1.335028  3.409508
  S     6.842420  2.158377  3.625581
