16  
    
  C     4.100294 -2.890045  1.610326
  C     4.171761  1.264740  1.559843
  C     2.874678 -3.277077  0.921290
  C     2.862741  1.011792  0.970566
  N     5.167144 -2.881741  0.836666
  N     5.200328  1.281653  0.717030
  N     2.968560 -3.427394 -0.369400
  N     2.911878  0.927622 -0.352794
  N     2.144752 -2.634136  3.352111
  N     2.455809  1.304499  3.514119
  S     1.512693 -3.386049  2.011188
  S     1.628142  1.004110  2.104572
  S     4.647567 -3.285417 -0.744816
  S     4.461006  1.042383 -0.793049
  S     3.799142 -2.308220  3.230449
  S     4.109397  1.657764  3.236628
