16  
    
  C     7.045277 -1.856330  1.663744
  C     6.731104  2.185934  1.919583
  C     5.805537 -2.236390  1.068408
  C     5.595403  1.490705  1.375120
  N     8.002183 -1.579372  0.750605
  N     7.655996  2.528172  1.045196
  N     5.772888 -2.331214 -0.271847
  N     5.597633  1.447709  0.057110
  N     5.338771 -1.884982  3.517306
  N     5.093264  1.690563  3.866253
  S     4.490303 -2.416138  2.189272
  S     4.358982  1.072549  2.524919
  S     7.325002 -1.930068 -0.741905
  S     7.117443  2.076583 -0.428704
  S     6.956065 -1.643959  3.347030
  S     6.659816  2.279190  3.680325
