16  
    
  C     7.337867 -1.592545  2.158829
  C     7.602876  2.504111  2.147932
  C     6.118408 -1.986555  1.502069
  C     6.348590  1.983544  1.580412
  N     8.335810 -1.270897  1.342586
  N     8.548504  2.774071  1.258356
  N     6.210086 -2.012054  0.173581
  N     6.272164  1.952219  0.260400
  N     5.589265 -2.126091  3.921160
  N     5.899619  2.131583  4.075574
  S     4.856545 -2.555115  2.524763
  S     5.009859  1.933148  2.755884
  S     7.765989 -1.571991 -0.168694
  S     7.882152  2.434102 -0.267877
  S     7.218554 -1.605365  3.883778
  S     7.441128  2.673826  3.866941
