16  
    
  C     9.141643 -0.549559  2.503595
  C     9.613673  3.542919  2.734091
  C     7.957334 -0.821462  1.746433
  C     8.272227  3.212797  2.120880
  N    10.208264 -0.455224  1.768231
  N    10.626583  3.249503  1.915409
  N     8.162700 -1.120960  0.480673
  N     8.341850  2.841181  0.850627
  N     7.154448 -0.671174  4.191120
  N     7.842965  3.677832  4.603899
  S     6.557985 -1.126437  2.725215
  S     6.928608  3.394400  3.240776
  S     9.760095 -0.942347  0.228898
  S     9.971163  2.886888  0.440856
  S     8.758729 -0.313296  4.194247
  S     9.478898  4.099912  4.428929
