16  
    
  C     6.269026 -1.625321  1.830761
  C     6.440045  2.257541  1.983169
  C     5.130828 -2.215848  1.209532
  C     5.302108  1.640554  1.387152
  N     7.373095 -1.523934  1.085297
  N     7.520112  2.342375  1.188846
  N     5.318026 -2.483626 -0.073377
  N     5.502882  1.372286  0.093183
  N     4.517303 -2.194090  3.668593
  N     4.709944  1.847504  3.913465
  S     3.819310 -2.650668  2.218828
  S     3.928464  1.398845  2.476902
  S     6.919477 -1.980812 -0.465482
  S     7.016395  1.813271 -0.268579
  S     6.049176 -1.449681  3.561416
  S     6.241470  2.469691  3.694546
