16  
    
  C     5.489160 -2.332318  1.735019
  C     5.246699  1.613844  1.536454
  C     4.330203 -2.719128  0.972049
  C     4.134021  1.154438  0.747417
  N     6.560994 -2.081224  1.000243
  N     6.371907  1.871302  0.878535
  N     4.520682 -2.792902 -0.334730
  N     4.429171  0.929694 -0.523065
  N     3.551355 -2.615925  3.496837
  N     3.265622  1.343291  3.143289
  S     2.893809 -2.940715  1.969865
  S     2.725681  0.673976  1.697826
  S     6.113170 -2.326153 -0.579258
  S     6.068203  1.340581 -0.690135
  S     5.164537 -2.176828  3.438992
  S     4.800930  1.895126  3.149884
