16  
    
  C    11.264684  0.409683  3.026874
  C    11.139441  4.498284  3.428064
  C    10.097203 -0.172812  2.338076
  C     9.858167  4.206011  2.800342
  N    12.279165  0.630519  2.243822
  N    12.138806  4.344072  2.567152
  N    10.347840 -0.443755  1.066890
  N     9.878221  3.946011  1.503625
  N     9.446002  0.377600  4.779173
  N     9.473673  4.081605  5.298984
  S     8.736290 -0.329447  3.422699
  S     8.541503  4.340645  3.971102
  S    11.858879  0.099011  0.752873
  S    11.452131  4.034997  1.063774
  S    10.968106  1.063275  4.637746
  S    11.082299  4.585702  5.088854
