16  
    
  C    10.631801  0.806140  2.957372
  C    10.629838  4.488362  2.790097
  C     9.408899  0.237062  2.401244
  C     9.557905  3.612604  2.339813
  N    11.634817  0.921001  2.104063
  N    11.669146  4.670497  1.969428
  N     9.466296 -0.191336  1.161643
  N     9.805858  3.189244  1.096062
  N     8.888897  0.606033  4.912045
  N     8.851184  4.346996  4.648711
  S     8.067824  0.140692  3.545064
  S     8.123583  3.628156  3.327181
  S    11.050664  0.197914  0.686073
  S    11.253570  3.851497  0.609376
  S    10.414400  1.216892  4.653758
  S    10.319848  5.056749  4.397198
