16  
    
  C     8.775282 -0.982442  2.392642
  C     8.511407  3.258329  2.541576
  C     7.558369 -1.198665  1.661323
  C     7.326291  2.622604  1.939320
  N     9.894504 -0.838392  1.626351
  N     9.513950  3.497319  1.670132
  N     7.761159 -1.362636  0.332342
  N     7.439232  2.503149  0.624929
  N     6.848215 -0.764540  4.113646
  N     6.797195  2.846181  4.432496
  S     6.220153 -1.363193  2.699814
  S     6.058711  2.195082  3.063800
  S     9.375748 -1.115118  0.080178
  S     8.924806  3.072804  0.145334
  S     8.535863 -0.626142  4.071695
  S     8.327059  3.477423  4.244883
