16  
    
  C     9.280657 -0.583920  2.626927
  C     9.217722  3.231566  2.584277
  C     8.040070 -1.046391  2.044021
  C     8.039752  2.764234  1.982211
  N    10.280238 -0.373313  1.746452
  N    10.267879  3.299840  1.760302
  N     8.148010 -1.440926  0.733886
  N     8.136669  2.504621  0.675757
  N     7.578207 -0.521931  4.553193
  N     7.561052  3.334996  4.460719
  S     6.751495 -1.063019  3.230685
  S     6.717223  2.963717  3.090650
  S     9.700050 -0.884308  0.280331
  S     9.743700  2.778561  0.236332
  S     9.151496 -0.071684  4.270946
  S     9.204849  3.524873  4.328724
