16  
    
  C    11.749169  1.037197  2.899428
  C    11.641271  4.988040  3.148654
  C    10.502646  0.454176  2.354117
  C    10.488608  4.428138  2.439021
  N    12.553731  1.464834  1.930362
  N    12.706850  5.317674  2.391246
  N    10.477981  0.373745  1.007701
  N    10.701701  4.346277  1.147485
  N    10.167582  0.790314  4.852425
  N     9.758267  4.586914  4.920215
  S     9.348562  0.101450  3.563982
  S     9.132096  4.028420  3.496223
  S    11.854962  1.072800  0.485540
  S    12.195170  4.932645  0.771032
  S    11.605275  1.554386  4.515407
  S    11.355451  5.031529  4.857766
