16  
    
  C     9.786661 -0.071394  2.828735
  C     9.835326  3.564949  2.763560
  C     8.603894 -0.554778  2.183759
  C     8.561278  3.260268  2.087690
  N    10.683011  0.399650  2.014667
  N    10.789666  3.693542  1.873304
  N     8.642957 -0.622664  0.887942
  N     8.514163  3.355788  0.773593
  N     8.155124 -0.691942  4.770911
  N     8.144561  3.137488  4.584186
  S     7.331781 -0.957191  3.328442
  S     7.279621  2.889294  3.180808
  S    10.092315  0.116703  0.485700
  S    10.083679  3.662671  0.284733
  S     9.555458  0.138325  4.564056
  S     9.774282  3.587755  4.500292
