16  
    
  C     4.277483 -2.544926  1.571464
  C     4.166455  1.144198  1.651516
  C     3.086910 -3.165707  1.059685
  C     2.857865  0.966290  1.097252
  N     5.248755 -2.327972  0.715399
  N     5.166737  1.227186  0.745637
  N     3.203389 -3.434113 -0.225944
  N     2.863605  0.722073 -0.205952
  N     2.641293 -2.807579  3.622680
  N     2.389753  1.347674  3.610458
  S     1.831438 -3.391667  2.289803
  S     1.535513  0.976005  2.204532
  S     4.735060 -3.070147 -0.675247
  S     4.487774  0.810215 -0.706419
  S     4.125233 -2.098208  3.283584
  S     4.048871  1.422693  3.466431
