16  
    
  C     7.919011 -0.719758  2.304341
  C     8.312634  2.864690  2.382322
  C     6.840479 -1.384359  1.609882
  C     7.022723  2.598489  1.853869
  N     8.969038 -0.436348  1.519346
  N     9.257540  2.968349  1.444866
  N     6.958657 -1.390491  0.270579
  N     6.954535  2.415483  0.526911
  N     5.995759 -1.098643  4.071853
  N     6.767747  2.959794  4.342033
  S     5.514281 -1.810809  2.703483
  S     5.830913  2.695721  3.072357
  S     8.512396 -0.808612 -0.061489
  S     8.528801  2.624682 -0.005916
  S     7.579655 -0.572533  4.051229
  S     8.416884  3.108004  4.102646
