16  
    
  C     7.679542 -0.870836  1.732723
  C     7.719334  2.919400  2.273278
  C     6.489168 -1.443701  1.222292
  C     6.540234  2.451381  1.600156
  N     8.676360 -0.785894  0.829638
  N     8.795887  3.106382  1.518531
  N     6.532571 -1.771790 -0.107565
  N     6.842826  2.221154  0.311766
  N     6.084832 -1.117871  3.808682
  N     5.910711  2.683939  4.052439
  S     5.183503 -1.470922  2.460669
  S     5.197934  2.105551  2.632887
  S     8.079363 -1.405712 -0.623602
  S     8.369375  2.547492 -0.000949
  S     7.638183 -0.776043  3.497584
  S     7.490453  3.272122  3.929999
