16  
    
  C     9.156192 -0.391265  2.500886
  C     9.349492  3.132308  2.609000
  C     8.002095 -1.091964  2.070776
  C     8.105852  2.779220  2.077607
  N    10.176319 -0.301800  1.621339
  N    10.404287  3.233417  1.765507
  N     8.107717 -1.374235  0.749930
  N     8.174547  2.413491  0.790947
  N     7.447775 -0.403866  4.419192
  N     7.600736  3.236391  4.578666
  S     6.657516 -1.152588  3.144165
  S     6.717109  2.965534  3.203035
  S     9.564754 -0.919929  0.202886
  S     9.727612  2.797251  0.343044
  S     9.070365  0.034095  4.176989
  S     9.202738  3.543300  4.229021
