16  
    
  C     4.608437 -2.021352  1.551301
  C     4.651679  1.627348  1.721284
  C     3.338809 -2.353637  0.967188
  C     3.453128  1.149776  1.021765
  N     5.594444 -2.032098  0.633177
  N     5.677981  1.747843  0.921664
  N     3.357026 -2.657462 -0.349039
  N     3.608490  1.030262 -0.306562
  N     2.971373 -2.330220  3.501648
  N     2.886334  1.473829  3.479044
  S     2.059948 -2.271764  2.119032
  S     2.061627  1.104226  2.106163
  S     4.901704 -2.347499 -0.806078
  S     5.185526  1.481334 -0.639529
  S     4.591646 -2.009825  3.286179
  S     4.530702  1.701995  3.450800
