16  
    
  C     9.615519 -0.052159  2.842632
  C     9.669237  3.521040  2.744055
  C     8.486125 -0.576332  2.169285
  C     8.422505  3.244000  2.049528
  N    10.693453  0.226232  2.098552
  N    10.680995  3.843108  1.967103
  N     8.681479 -0.859499  0.862736
  N     8.467000  3.267084  0.739654
  N     7.920460 -0.330868  4.751657
  N     7.992861  3.213942  4.633919
  S     7.199745 -0.882844  3.301030
  S     7.195429  3.216773  3.167685
  S    10.241683 -0.255250  0.561270
  S    10.055610  3.772196  0.382739
  S     9.500236  0.054209  4.582128
  S     9.651971  3.468271  4.505673
