16  
    
  C     8.647748 -1.124654  2.360997
  C     8.352477  2.821340  2.093914
  C     7.431852 -1.601226  1.757255
  C     7.158563  2.334234  1.513398
  N     9.610872 -0.714035  1.513398
  N     9.365491  3.046884  1.262462
  N     7.521832 -1.687094  0.423248
  N     7.213724  2.264011  0.188632
  N     6.788888 -1.276533  4.194148
  N     6.561824  2.626360  3.990132
  S     6.078746 -1.895222  2.840410
  S     5.798832  2.131459  2.640405
  S     9.018949 -1.097174  0.007813
  S     8.728835  2.701668 -0.289988
  S     8.454278 -0.928140  4.039851
  S     8.110020  3.153924  3.740228
