16  
    
  C     7.307031 -1.519018  2.179799
  C     7.587227  2.516761  2.157736
  C     6.146095 -2.029575  1.454400
  C     6.351166  2.039942  1.594882
  N     8.343448 -1.277213  1.362110
  N     8.531209  2.859154  1.290532
  N     6.188330 -1.974404  0.111040
  N     6.350560  1.991544  0.277084
  N     5.608917 -2.123635  3.961867
  N     5.911084  2.188202  4.111499
  S     4.889701 -2.583112  2.542056
  S     5.035166  1.944729  2.727626
  S     7.770812 -1.546531 -0.168373
  S     7.891554  2.455324 -0.267232
  S     7.180525 -1.592280  3.859267
  S     7.476388  2.665565  3.884631
