16  
    
  C    12.681725  1.718952  3.554403
  C    12.858570  5.527946  3.733385
  C    11.515340  1.150790  2.979938
  C    11.725468  4.839582  3.113246
  N    13.775754  1.706921  2.852272
  N    13.853166  5.741664  2.892302
  N    11.703784  0.825775  1.719769
  N    11.908713  4.550550  1.830295
  N    10.835467  1.599896  5.368334
  N    11.186093  5.301345  5.624018
  S    10.119191  1.005409  3.998957
  S    10.340687  4.757034  4.297100
  S    13.332198  1.090894  1.388399
  S    13.404759  5.199520  1.433324
  S    12.462129  1.960402  5.287558
  S    12.680394  5.836179  5.412790
