16  
    
  C    10.396151  0.645282  3.025057
  C    10.628789  4.345935  2.828550
  C     9.252899 -0.007626  2.439290
  C     9.391174  3.905190  2.260329
  N    11.380775  0.881436  2.158190
  N    11.618857  4.513566  1.949993
  N     9.295713 -0.241303  1.123356
  N     9.387802  3.914508  0.929906
  N     8.746042  0.299574  4.988963
  N     8.970113  4.445297  4.771755
  S     8.008101 -0.284851  3.592954
  S     8.158563  3.786018  3.460163
  S    10.774975  0.431949  0.676231
  S    10.965630  4.276396  0.507191
  S    10.303203  0.913035  4.778033
  S    10.580704  4.813772  4.557793
