16  
    
  C     7.238830 -1.307793  2.246833
  C     7.710241  2.844614  2.257408
  C     6.117861 -1.777663  1.455552
  C     6.553660  2.285230  1.631996
  N     8.243991 -0.901940  1.495101
  N     8.777118  2.907228  1.439779
  N     6.324691 -1.876725  0.149404
  N     6.725156  2.124806  0.301826
  N     5.362385 -1.822737  3.909720
  N     6.029401  2.547262  4.118000
  S     4.667546 -2.081693  2.447697
  S     5.296195  2.048322  2.784991
  S     7.814126 -1.185517 -0.077404
  S     8.216383  2.552176 -0.093613
  S     6.977043 -1.205131  3.954915
  S     7.581193  3.138447  3.970452
