16  
    
  C    12.528851  1.592573  3.439227
  C    12.858473  5.527574  3.663685
  C    11.437394  0.949640  2.822952
  C    11.692919  5.065824  2.929538
  N    13.548054  1.764878  2.596637
  N    13.997680  5.788575  2.996242
  N    11.514517  0.636000  1.544457
  N    12.001757  4.941382  1.605279
  N    10.840453  1.313818  5.287818
  N    10.896040  5.123361  5.390120
  S    10.186505  0.525563  3.974233
  S    10.354351  4.534341  3.907766
  S    13.080215  1.207498  1.133457
  S    13.596818  5.349473  1.410952
  S    12.395882  1.889812  5.153041
  S    12.465546  5.671405  5.371745
