16  
    
  C     4.218347 -2.756541  1.588459
  C     4.238103  1.210070  1.734000
  C     3.008873 -3.301207  1.068249
  C     2.972182  1.199460  1.102102
  N     5.176823 -2.547324  0.693140
  N     5.217376  1.036577  0.852076
  N     3.074042 -3.605658 -0.233206
  N     2.902522  1.036877 -0.239918
  N     2.551009 -2.503949  3.483166
  N     2.526728  1.440646  3.664269
  S     1.678290 -3.187535  2.261799
  S     1.699779  1.509952  2.275176
  S     4.617130 -3.189176 -0.742109
  S     4.524349  0.900500 -0.658174
  S     4.155946 -2.156556  3.186323
  S     4.157161  1.544316  3.482588
