16  
    
  C     7.219771 -1.313568  2.323020
  C     7.836939  2.826842  2.319383
  C     6.150941 -1.895501  1.541048
  C     6.659530  2.275553  1.686354
  N     8.272943 -0.952111  1.595540
  N     8.837663  3.065677  1.498343
  N     6.321609 -1.790823  0.213107
  N     6.799022  2.138057  0.392454
  N     5.237563 -1.841773  3.928479
  N     6.020766  2.468018  4.111528
  S     4.734278 -2.332187  2.482514
  S     5.261612  2.068908  2.727243
  S     7.835260 -1.171432  0.004050
  S     8.294817  2.611669 -0.012080
  S     6.798152 -1.253760  3.990407
  S     7.584107  3.032549  4.022738
