16  
    
  C     8.405918 -0.925408  2.443573
  C     8.153215  2.940698  2.357597
  C     7.132210 -1.398198  1.983309
  C     7.020303  2.343199  1.702609
  N     9.395699 -0.907256  1.548668
  N     9.184645  3.130155  1.566568
  N     7.136285 -1.825388  0.732872
  N     7.231055  2.076209  0.439109
  N     6.709743 -0.797830  4.480731
  N     6.275744  2.583259  4.153078
  S     5.849992 -1.436787  3.204251
  S     5.625218  2.063357  2.670896
  S     8.672693 -1.584394  0.172589
  S     8.759025  2.467089  0.026893
  S     8.254921 -0.388081  4.142935
  S     7.843609  3.238282  4.049846
