16  
    
  C    10.174854  0.442091  2.836913
  C    10.773473  4.403590  2.815278
  C     9.017902 -0.195498  2.259646
  C     9.565615  3.878417  2.189365
  N    11.088639  0.830427  1.977888
  N    11.800698  4.619401  2.000151
  N     9.023845 -0.136927  0.952002
  N     9.703085  3.694691  0.904178
  N     8.541759 -0.061939  4.747300
  N     8.961642  3.901727  4.625281
  S     7.712078 -0.417695  3.374206
  S     8.152191  3.711787  3.172600
  S    10.470106  0.523358  0.467598
  S    11.199003  4.251702  0.451561
  S    10.030918  0.673732  4.520939
  S    10.537736  4.431308  4.508393
