16  
    
  C     4.617861 -2.129586  1.542416
  C     4.584366  1.659069  1.539904
  C     3.291894 -2.240169  1.017890
  C     3.413731  1.045284  0.922798
  N     5.621399 -2.243305  0.639566
  N     5.596897  1.889848  0.707235
  N     3.288773 -2.343234 -0.329902
  N     3.545248  0.949446 -0.402650
  N     3.023338 -2.063817  3.568412
  N     2.771392  1.264360  3.366109
  S     2.064311 -2.120581  2.217975
  S     2.089431  0.818860  2.001999
  S     4.864215 -2.301325 -0.832656
  S     4.995580  1.522569 -0.818658
  S     4.648426 -1.852112  3.249767
  S     4.372063  1.677491  3.320345
