16  
    
  C     8.600812 -1.099471  2.346521
  C     8.342074  2.754505  2.067551
  C     7.426593 -1.606600  1.762053
  C     7.128100  2.319379  1.476006
  N     9.610769 -0.749742  1.507813
  N     9.371774  3.013515  1.246085
  N     7.524727 -1.636412  0.410913
  N     7.197688  2.264780  0.130342
  N     6.774067 -1.254595  4.201586
  N     6.567606  2.591182  3.960849
  S     6.039654 -1.880370  2.854898
  S     5.784732  2.115728  2.621435
  S     9.036118 -1.086682 -0.014301
  S     8.733952  2.682162 -0.274462
  S     8.427448 -0.932539  4.045367
  S     8.088774  3.129146  3.745277
