16  
    
  C     5.898307 -2.188796  1.632099
  C     5.345756  1.228821  1.706787
  C     4.613363 -2.569859  1.165264
  C     4.092214  0.923238  1.140607
  N     6.903029 -2.095345  0.724073
  N     6.400949  1.190434  0.892565
  N     4.579407 -2.701387 -0.178973
  N     4.178806  0.681470 -0.153747
  N     4.349875 -2.306514  3.664548
  N     3.691389  1.189468  3.628440
  S     3.385528 -2.552544  2.364246
  S     2.850602  0.647886  2.330067
  S     6.063012 -2.274492 -0.740423
  S     5.757082  0.821069 -0.562891
  S     5.890565 -1.918940  3.369484
  S     5.253540  1.686601  3.359520
