16  
    
  C     5.767585 -2.198193  1.934664
  C     6.094654  1.665553  2.064056
  C     4.592216 -2.640913  1.233022
  C     4.750754  1.511732  1.476521
  N     6.737419 -1.841951  1.099209
  N     7.089245  1.522711  1.202634
  N     4.750719 -2.805350 -0.081471
  N     4.748188  1.378373  0.161351
  N     3.904479 -2.289587  3.769544
  N     4.361161  2.135987  3.940461
  S     3.256796 -2.941495  2.329348
  S     3.455135  1.769694  2.604545
  S     6.260207 -2.298294 -0.386766
  S     6.375467  1.313186 -0.314879
  S     5.544158 -1.937102  3.599637
  S     6.028056  2.081799  3.708035
