16  
    
  C    12.167582  1.037380  3.472121
  C    12.293122  5.128677  3.317622
  C    10.897044  0.768412  2.740520
  C    11.030951  4.710024  2.733891
  N    13.178868  1.114234  2.586331
  N    13.285970  5.080864  2.397470
  N    11.032653  0.611355  1.429574
  N    11.042642  4.288434  1.465526
  N    10.220415  1.437649  5.109067
  N    10.535826  5.333607  5.171902
  S     9.481529  0.784256  3.744486
  S     9.674579  4.864481  3.837553
  S    12.649054  0.809697  1.081665
  S    12.604612  4.598526  0.921833
  S    11.871580  1.723636  5.046356
  S    12.168817  5.533294  5.029069
