16  
    
  C    10.531889  0.766987  3.011632
  C    10.643454  4.530802  2.836218
  C     9.330057  0.218718  2.426623
  C     9.508006  3.802784  2.282642
  N    11.512201  0.814236  2.131438
  N    11.592362  4.740248  1.922198
  N     9.467634 -0.162591  1.171655
  N     9.662266  3.316429  1.073653
  N     8.850322  0.576632  4.918341
  N     8.826092  4.354022  4.671446
  S     8.112114  0.015937  3.556965
  S     8.166886  3.688495  3.302245
  S    10.946147  0.261173  0.687077
  S    11.142046  3.827451  0.581876
  S    10.378459  1.199029  4.721194
  S    10.371525  5.023934  4.494374
