16  
    
  C    12.003834  1.220012  3.332239
  C    11.851749  4.739230  3.546514
  C    10.833924  0.781483  2.661083
  C    10.667631  4.325696  2.861371
  N    13.037943  1.450166  2.507648
  N    12.963542  4.951340  2.873627
  N    10.990152  0.455791  1.385546
  N    10.849124  4.253588  1.528163
  N    10.068569  1.207860  5.041656
  N     9.889697  4.747466  5.282598
  S     9.456326  0.454579  3.707101
  S     9.202146  4.279065  3.824480
  S    12.541206  0.899822  1.014162
  S    12.454864  4.692401  1.278326
  S    11.669756  1.545122  5.036021
  S    11.549682  5.073785  5.216210
