16  
    
  C    12.702060  1.615916  3.761096
  C    12.274659  4.920704  3.454490
  C    11.476448  1.330205  3.079971
  C    11.108866  4.459198  2.677093
  N    13.741048  1.536890  2.942134
  N    13.326283  5.235259  2.683110
  N    11.548635  1.197482  1.757415
  N    11.375713  4.297776  1.386847
  N    10.877361  1.625285  5.579287
  N    10.436216  4.790278  5.227236
  S    10.091229  1.341676  4.162771
  S     9.770394  4.220678  3.743081
  S    13.145829  1.366585  1.446134
  S    12.997154  4.793968  1.176095
  S    12.503573  1.812611  5.407574
  S    12.108815  5.103336  5.148673
