16  
    
  C     4.244799 -2.440633  1.772417
  C     3.974304  1.334316  1.369432
  C     3.073287 -2.974013  1.170356
  C     2.895023  0.623329  0.785044
  N     5.298860 -2.316987  0.942985
  N     5.001298  1.409822  0.534865
  N     3.169476 -3.175909 -0.167505
  N     3.023198  0.225443 -0.470441
  N     2.588511 -2.734341  3.668431
  N     2.317604  0.988944  3.222390
  S     1.881841 -3.489776  2.352180
  S     1.693878  0.161473  1.957118
  S     4.763065 -2.687421 -0.554847
  S     4.543213  0.722548 -0.926513
  S     4.080717 -2.043529  3.428220
  S     3.824929  1.720043  3.036122
