16  
    
  C     5.854935 -2.117833  1.873244
  C     6.113046  1.761762  1.939079
  C     4.629675 -2.466397  1.190113
  C     4.785090  1.692785  1.415779
  N     6.911450 -2.129226  1.065353
  N     7.044247  1.409636  1.036319
  N     4.666060 -2.564927 -0.145830
  N     4.701806  1.325403  0.132488
  N     4.020082 -2.365271  3.696847
  N     4.549891  2.018603  3.941760
  S     3.313239 -2.722105  2.230512
  S     3.546848  2.073792  2.618654
  S     6.334349 -2.368567 -0.491536
  S     6.225129  1.093063 -0.357041
  S     5.668200 -2.018413  3.560782
  S     6.184437  2.081389  3.634602
