16  
    
  C    11.344972  0.642099  2.960715
  C    11.051030  4.460379  3.627543
  C    10.311791  0.042257  2.193257
  C     9.833272  3.989568  3.029196
  N    12.504005  0.877953  2.352987
  N    12.062514  4.505669  2.780243
  N    10.806838 -0.392879  1.032953
  N     9.831796  3.884872  1.712477
  N     9.310651  0.341697  4.602321
  N     9.377153  4.649156  5.484751
  S     8.808003 -0.208704  3.152006
  S     8.490960  4.155699  4.159450
  S    12.323860  0.185080  0.835516
  S    11.400322  4.102887  1.267070
  S    10.901729  0.759697  4.610494
  S    11.001303  5.044175  5.205680
