16  
    
  C    12.564133  1.477806  3.624863
  C    12.365263  5.210789  3.418999
  C    11.350626  1.042875  3.033766
  C    11.148998  4.764562  2.849604
  N    13.493336  1.805756  2.723704
  N    13.379285  5.272930  2.579373
  N    11.363060  0.857698  1.720293
  N    11.184223  4.573113  1.486207
  N    10.824934  1.471088  5.514857
  N    10.703577  4.909997  5.355493
  S    10.105263  0.777154  4.176354
  S     9.808905  4.618132  4.022492
  S    12.884035  1.412611  1.296319
  S    12.756099  4.855090  1.088584
  S    12.432736  1.723863  5.331188
  S    12.238763  5.462067  5.175429
