16  
    
  C     4.569795 -2.683138  1.567574
  C     5.099740  1.400962  1.697644
  C     3.303510 -2.769879  0.892765
  C     3.797185  1.189393  1.089312
  N     5.649557 -2.594200  0.779828
  N     6.110493  1.522083  0.865892
  N     3.405577 -2.847926 -0.412291
  N     3.855809  1.344690 -0.236845
  N     2.759940 -2.725733  3.405053
  N     3.455586  1.041203  3.658618
  S     1.952194 -2.813476  1.984105
  S     2.554126  0.717008  2.221383
  S     5.052618 -2.787396 -0.788827
  S     5.445706  1.504193 -0.637837
  S     4.390872 -2.407294  3.260582
  S     5.088379  1.403942  3.439634
