16  
    
  C     7.995182 -0.733087  2.403580
  C     8.328877  3.033801  2.319072
  C     6.809801 -1.210282  1.670121
  C     7.053487  2.618683  1.868370
  N     9.007319 -0.417400  1.622021
  N     9.291289  2.983559  1.399430
  N     7.023100 -1.414529  0.403818
  N     7.083989  2.313164  0.569707
  N     6.073149 -1.101719  4.092058
  N     6.763143  2.769441  4.385930
  S     5.511240 -1.786576  2.673421
  S     5.769189  2.687698  3.032934
  S     8.532934 -0.855306  0.110048
  S     8.539552  2.547634 -0.033088
  S     7.694596 -0.510902  4.062349
  S     8.360464  3.223194  4.036859
