16  
    
  C    11.005486  0.582926  3.171563
  C    11.064752  4.312778  3.416219
  C     9.858256 -0.027484  2.520613
  C     9.880980  3.775220  2.813806
  N    11.991520  1.007810  2.397214
  N    12.011517  4.543174  2.512343
  N     9.931396 -0.040275  1.201584
  N     9.854436  3.715250  1.479689
  N     9.142611  0.131842  4.935149
  N     9.293662  4.036634  5.295873
  S     8.433585 -0.131906  3.451841
  S     8.553387  3.497254  3.884776
  S    11.418453  0.665606  0.832661
  S    11.395174  4.234136  1.047244
  S    10.729708  0.632951  4.882347
  S    10.835585  4.606506  5.130588
