16  
    
  C     6.115616 -1.932962  1.663637
  C     6.219752  1.930574  1.862297
  C     4.864179 -2.344480  1.043738
  C     4.959553  1.829020  1.151384
  N     7.186815 -2.091581  0.900640
  N     7.259323  1.795119  1.047775
  N     4.999594 -2.664758 -0.235112
  N     5.054053  1.640415 -0.152152
  N     4.283877 -2.005872  3.605638
  N     4.408468  1.726422  3.690773
  S     3.581306 -2.514150  2.155437
  S     3.587159  1.991725  2.236589
  S     6.559845 -2.416676 -0.605083
  S     6.690120  1.677590 -0.515415
  S     5.932887 -1.632208  3.390644
  S     6.080432  1.853402  3.574593
