16  
    
  C    11.002067  0.525865  3.216176
  C    11.052922  4.298160  3.385733
  C     9.836221  0.010876  2.529734
  C     9.841158  3.732798  2.805408
  N    11.973405  0.990951  2.423695
  N    12.048820  4.568626  2.498310
  N     9.993837 -0.055415  1.209006
  N     9.869321  3.754797  1.488354
  N     9.142728  0.143885  4.939455
  N     9.317017  4.018729  5.302497
  S     8.421870 -0.150025  3.461472
  S     8.571369  3.501881  3.912927
  S    11.443935  0.701107  0.846928
  S    11.404907  4.224522  1.025627
  S    10.721861  0.623328  4.898877
  S    10.868844  4.564896  5.120451
