16  
    
  C     5.464981 -2.238838  1.923845
  C     5.202645  1.587142  1.693818
  C     4.303384 -2.699846  1.241375
  C     4.167416  0.953634  0.959682
  N     6.442495 -1.838302  1.122818
  N     6.218278  2.050342  0.958684
  N     4.443131 -2.737437 -0.094851
  N     4.264147  1.109166 -0.359609
  N     3.679701 -2.528651  3.753822
  N     3.508020  0.880547  3.513972
  S     2.946352 -2.937730  2.296329
  S     3.016078  0.216097  2.014431
  S     5.989884 -2.220266 -0.417922
  S     5.750028  1.795931 -0.611423
  S     5.283904 -1.943122  3.640899
  S     5.024400  1.563749  3.479737
