16  
    
  C     7.843157 -0.766665  2.064987
  C     8.228429  2.865334  2.478740
  C     6.712018 -1.395800  1.398887
  C     6.971593  2.585207  1.830059
  N     8.802686 -0.437686  1.191540
  N     9.236255  3.091573  1.607293
  N     6.940152 -1.724463  0.113097
  N     6.917324  2.578650  0.480099
  N     6.037166 -1.188153  3.955436
  N     6.441892  2.812756  4.365025
  S     5.375125 -1.675853  2.515244
  S     5.721604  2.374403  2.933257
  S     8.461658 -1.099526 -0.321557
  S     8.589334  2.843349  0.113851
  S     7.589852 -0.604849  3.835325
  S     8.158677  2.974200  4.231888
