16  
    
  C    10.313711  0.420654  2.520249
  C    10.503176  4.172083  3.094622
  C     9.135408 -0.104350  1.917835
  C     9.252497  3.797848  2.543882
  N    11.430663  0.274297  1.836281
  N    11.444983  4.227584  2.170063
  N     9.349591 -0.598017  0.730898
  N     9.229528  3.395921  1.268501
  N     8.373147  0.585060  4.237404
  N     8.652815  4.444451  4.928028
  S     7.748948 -0.318310  2.983849
  S     7.886470  3.922451  3.577635
  S    10.996915 -0.468427  0.348664
  S    10.777794  3.631021  0.716753
  S     9.995654  0.907950  4.185736
  S    10.308919  4.657063  4.793648
