16  
    
  C     9.016866 -0.587634  2.412163
  C     9.514825  3.500727  2.740956
  C     7.877095 -0.969422  1.615288
  C     8.258310  3.110711  2.076226
  N    10.125506 -0.392068  1.768776
  N    10.505525  3.382842  1.891152
  N     8.201993 -1.225422  0.372776
  N     8.333211  2.771909  0.797611
  N     7.033787 -0.421659  4.010413
  N     7.826157  3.735602  4.581528
  S     6.451965 -1.041144  2.607314
  S     6.973336  3.360603  3.207538
  S     9.803534 -0.862084  0.242588
  S     9.926314  2.911645  0.410519
  S     8.667012 -0.138986  4.077056
  S     9.508637  3.810168  4.480320
