16  
    
  C     5.860828 -2.243397  1.978107
  C     5.715020  1.334247  1.765985
  C     4.589690 -2.560757  1.351748
  C     4.519975  0.828433  1.082459
  N     6.885132 -2.140376  1.100541
  N     6.774001  1.591303  0.985060
  N     4.690735 -2.583534  0.018189
  N     4.724793  0.517631 -0.189670
  N     4.164564 -2.508644  3.823464
  N     3.953225  1.064011  3.601241
  S     3.302868 -2.605339  2.480879
  S     3.207236  0.578585  2.183963
  S     6.263474 -2.313756 -0.395006
  S     6.330591  1.000090 -0.541849
  S     5.754627 -2.109215  3.738027
  S     5.570770  1.339029  3.497626
