16  
    
  C     8.218090 -0.812010  2.481738
  C     8.205662  2.996175  2.347356
  C     7.039529 -1.414962  1.910205
  C     7.014736  2.386658  1.722903
  N     9.307777 -0.803216  1.651715
  N     9.224501  3.277860  1.510984
  N     7.175436 -1.629849  0.582845
  N     7.198334  2.113935  0.413783
  N     6.395124 -0.814123  4.379865
  N     6.428757  2.708135  4.166178
  S     5.673543 -1.452268  3.037175
  S     5.664906  2.089118  2.814900
  S     8.764767 -1.335766  0.166927
  S     8.746440  2.698822  0.057485
  S     7.966678 -0.422625  4.132890
  S     7.943943  3.290963  4.049781
