16  
    
  C    10.153804  0.406084  2.834132
  C    10.733113  4.385053  2.810264
  C     8.996447 -0.142725  2.245185
  C     9.576534  3.819371  2.173372
  N    11.089298  0.811940  1.985698
  N    11.767346  4.575720  2.023772
  N     8.997886 -0.160948  0.917219
  N     9.703363  3.686793  0.856317
  N     8.552470 -0.063836  4.744143
  N     8.975848  3.920819  4.633733
  S     7.716144 -0.411273  3.367874
  S     8.139221  3.712220  3.198690
  S    10.492467  0.499048  0.457792
  S    11.191382  4.225291  0.446512
  S    10.021520  0.712105  4.509822
  S    10.566110  4.469198  4.496662
