16  
    
  C    11.312432  0.960244  2.997977
  C    11.252497  4.650704  3.393116
  C    10.196233  0.303497  2.371672
  C    10.155450  3.950520  2.850966
  N    12.408161  1.018167  2.261345
  N    12.284047  4.888121  2.520224
  N    10.316859  0.084854  1.059709
  N    10.361398  3.529200  1.610314
  N     9.621825  0.808535  4.850111
  N     9.450058  4.541762  5.330496
  S     8.915258  0.105692  3.535006
  S     8.775797  3.806495  3.981747
  S    11.955154  0.537752  0.801027
  S    11.794608  4.246459  1.097367
  S    11.182063  1.264570  4.684570
  S    10.986205  5.134206  5.072033
