16  
    
  C    10.320725  0.693045  3.003223
  C    10.743688  4.469795  2.874440
  C     9.228357 -0.050724  2.417326
  C     9.471849  4.105464  2.295019
  N    11.276284  1.059406  2.117108
  N    11.679279  4.688710  1.926409
  N     9.278059 -0.212607  1.077002
  N     9.427640  4.032405  0.978571
  N     8.726293  0.067603  4.968968
  N     9.051210  4.043471  4.839283
  S     7.960154 -0.405003  3.565789
  S     8.151653  3.923551  3.437951
  S    10.740952  0.462136  0.663082
  S    10.948772  4.451625  0.492897
  S    10.255628  0.669035  4.727899
  S    10.638586  4.488952  4.616826
