16  
    
  C     9.519369 -0.484737  2.780977
  C     9.337193  3.290224  2.516465
  C     8.302935 -0.756991  2.139374
  C     8.112249  3.018161  1.866438
  N    10.584353 -0.524182  1.936148
  N    10.453062  3.233529  1.788523
  N     8.407375 -1.076922  0.841832
  N     8.243473  2.895518  0.546973
  N     7.776367 -0.665606  4.623205
  N     7.535675  3.221045  4.388173
  S     6.952437 -1.021808  3.229722
  S     6.746565  2.966237  2.949288
  S     9.982524 -0.975581  0.449031
  S     9.910797  2.983944  0.239016
  S     9.391898 -0.384328  4.492626
  S     9.167916  3.491348  4.256909
