16  
    
  C    11.017719  0.676141  2.835619
  C    11.048083  4.352727  3.345968
  C     9.833370 -0.007598  2.380897
  C     9.857694  3.913149  2.679957
  N    11.951144  0.753587  1.901177
  N    12.057083  4.655702  2.513935
  N     9.846943 -0.219386  1.076010
  N     9.992853  3.680712  1.389408
  N     9.402684  0.423968  4.927893
  N     9.197409  4.047798  5.142442
  S     8.569751 -0.156315  3.572401
  S     8.451092  3.723008  3.695999
  S    11.242523  0.334993  0.446953
  S    11.489041  4.164848  0.955701
  S    10.905474  1.069780  4.609828
  S    10.789524  4.514257  5.044271
