16  
    
  C     7.332019 -1.776817  2.228077
  C     7.456301  2.411465  2.109315
  C     6.121073 -2.099200  1.500251
  C     6.178257  1.987799  1.552931
  N     8.278190 -1.389476  1.406928
  N     8.458926  2.486588  1.223564
  N     6.265189 -2.236992  0.188608
  N     6.200416  1.936763  0.222365
  N     5.575618 -2.037571  4.073186
  N     5.830646  2.194914  4.083645
  S     4.748252 -2.288507  2.612220
  S     4.935989  1.695214  2.760232
  S     7.826212 -1.707418 -0.146803
  S     7.814444  2.107056 -0.208316
  S     7.157407 -1.675241  3.922783
  S     7.378787  2.638484  3.842903
