16  
    
  C     9.689239 -0.640251  2.732276
  C     9.634736  3.246355  2.576126
  C     8.430734 -0.962040  2.129906
  C     8.399717  3.080121  1.949895
  N    10.734870 -0.540889  1.917713
  N    10.700479  3.352736  1.761893
  N     8.550890 -1.029559  0.818673
  N     8.435244  3.053527  0.626042
  N     7.932908 -0.547064  4.575824
  N     7.718850  2.945884  4.426943
  S     7.050100 -0.964846  3.209745
  S     6.938882  3.030644  2.972855
  S    10.114802 -0.783611  0.393888
  S     9.990354  3.287785  0.270173
  S     9.564703 -0.412300  4.449049
  S     9.312126  3.287302  4.273904
