16  
    
  C     8.436947 -1.001818  2.473877
  C     8.259045  2.343084  2.106218
  C     7.195987 -1.225660  1.744249
  C     7.157085  1.840067  1.340464
  N     9.529835 -0.865887  1.696086
  N     9.355830  2.641973  1.424278
  N     7.371372 -1.333094  0.419620
  N     7.458031  1.781459  0.036957
  N     6.512758 -0.946666  4.140577
  N     6.209988  2.262315  3.699030
  S     5.737810 -0.976277  2.676724
  S     5.677144  1.681166  2.237834
  S     8.981761 -1.104891  0.143670
  S     8.944027  2.351030 -0.211832
  S     8.188763 -0.701097  4.120869
  S     7.879874  2.489627  3.713620
