16  
    
  C    10.201126  0.495495  2.905881
  C    10.692050  4.475984  2.882113
  C     8.970735 -0.028598  2.272176
  C     9.540921  4.008008  2.107040
  N    11.062287  0.965131  2.017067
  N    11.755080  4.713565  2.116655
  N     9.044385 -0.174081  0.956057
  N     9.711768  4.022974  0.771216
  N     8.472477  0.115346  4.769609
  N     8.896027  3.877711  4.621871
  S     7.784025 -0.542869  3.378785
  S     8.232595  3.696836  3.117847
  S    10.466393  0.624804  0.478524
  S    11.292394  4.388936  0.494119
  S    10.125423  0.434044  4.673959
  S    10.527526  4.283746  4.662779
