16  
    
  C     3.102101 -2.667838  1.534310
  C     3.634041  0.957610  1.419187
  C     2.099338 -3.455640  0.857993
  C     2.425030  0.451069  0.859490
  N     4.088989 -2.212319  0.760531
  N     4.635236  1.230387  0.582971
  N     2.335402 -3.534013 -0.448334
  N     2.449390  0.372813 -0.458900
  N     1.430764 -3.378180  3.406702
  N     1.971818  0.316403  3.383855
  S     0.884262 -4.130766  1.990218
  S     1.195977  0.050305  1.936451
  S     3.652755 -2.623873 -0.794452
  S     3.979117  0.985328 -0.894567
  S     2.926242 -2.657552  3.301119
  S     3.525866  0.979599  3.192117
