16  
    
  C     5.907792 -2.184523  1.634014
  C     5.326690  1.250389  1.692315
  C     4.619861 -2.597175  1.158235
  C     4.081617  0.916352  1.149742
  N     6.901703 -2.084672  0.731947
  N     6.387405  1.215754  0.874163
  N     4.556275 -2.694657 -0.186512
  N     4.178760  0.705303 -0.147396
  N     4.345649 -2.307296  3.651786
  N     3.687695  1.194492  3.639265
  S     3.388973 -2.550530  2.361707
  S     2.842320  0.641089  2.331924
  S     6.052624 -2.286499 -0.745463
  S     5.738431  0.826229 -0.566295
  S     5.878382 -1.908722  3.363969
  S     5.241485  1.679882  3.365207
