16  
    
  C     9.619598  0.029670  2.830366
  C     9.716293  3.515646  2.741360
  C     8.478686 -0.646109  2.169728
  C     8.459111  3.360189  2.060535
  N    10.680896  0.271876  2.099276
  N    10.689446  3.838453  1.904843
  N     8.660159 -0.782583  0.870944
  N     8.481611  3.302277  0.701991
  N     7.903872 -0.279067  4.718631
  N     8.033624  3.219914  4.665874
  S     7.240847 -0.916546  3.347539
  S     7.132574  3.129264  3.197202
  S    10.223867 -0.220376  0.569097
  S    10.083078  3.729017  0.404520
  S     9.503048  0.037953  4.569157
  S     9.703850  3.435488  4.494286
