16  
    
  C     9.754472  0.172578  2.746190
  C     9.767673  3.777374  2.614302
  C     8.548686 -0.363981  2.157158
  C     8.641509  3.152122  1.991782
  N    10.642359  0.538113  1.804465
  N    10.672195  4.088235  1.689803
  N     8.536848 -0.404281  0.804619
  N     8.701140  2.923631  0.682431
  N     8.168774 -0.606009  4.667777
  N     8.143138  3.257015  4.539790
  S     7.443663 -1.050330  3.259229
  S     7.337210  2.732928  3.163156
  S     9.985329  0.149422  0.326394
  S    10.146571  3.582422  0.254430
  S     9.763460 -0.082757  4.465067
  S     9.734957  3.898796  4.394576
