16  
    
  C     6.252964 -1.629427  1.847533
  C     6.464215  2.249261  2.002140
  C     5.133950 -2.252696  1.234448
  C     5.305718  1.653365  1.381233
  N     7.375807 -1.524939  1.099802
  N     7.508454  2.351893  1.183544
  N     5.314222 -2.460755 -0.078381
  N     5.508654  1.382881  0.088590
  N     4.508713 -2.197473  3.693223
  N     4.718556  1.844248  3.917114
  S     3.819087 -2.660698  2.228651
  S     3.938864  1.409197  2.480962
  S     6.916811 -1.978060 -0.438211
  S     7.010804  1.811271 -0.260252
  S     6.047805 -1.449229  3.569200
  S     6.245974  2.454756  3.700658
