16  
    
  C     8.719783 -0.110276  2.501350
  C     8.492498  3.148002  2.551713
  C     7.577585 -0.698746  1.792119
  C     7.384872  2.656216  1.821399
  N     9.704850  0.176193  1.689794
  N     9.575813  3.289627  1.820050
  N     7.706199 -0.783765  0.478051
  N     7.621002  2.386844  0.555613
  N     7.048982 -0.781325  4.428927
  N     6.715966  2.877447  4.369990
  S     6.247031 -0.962979  3.000839
  S     6.062112  2.399690  2.913130
  S     9.237779 -0.220952  0.132939
  S     9.191900  2.839969  0.239355
  S     8.620863 -0.109954  4.304762
  S     8.341143  3.277689  4.273171
