16  
    
  C     6.301236 -1.717347  2.241174
  C     6.569908  2.154894  2.188458
  C     5.135092 -2.214150  1.539046
  C     5.414803  1.557174  1.599961
  N     7.279802 -1.366911  1.454415
  N     7.517058  2.519363  1.340776
  N     5.206134 -2.127993  0.222381
  N     5.399689  1.521562  0.258841
  N     4.548071 -2.099946  4.057689
  N     4.928399  1.754325  4.116240
  S     3.757717 -2.499385  2.644762
  S     4.176563  1.116960  2.708164
  S     6.720824 -1.603053 -0.109403
  S     6.943655  2.129881 -0.210421
  S     6.199260 -1.746277  3.967329
  S     6.518205  2.281830  3.910845
