16  
    
  C    10.287720 -0.201634  2.869647
  C    10.331881  3.960171  3.105502
  C     9.013136 -0.419518  2.169206
  C     9.059022  3.765244  2.489415
  N    11.262238 -0.012387  2.034643
  N    11.361415  3.828546  2.273910
  N     9.056689 -0.413080  0.872320
  N     9.051432  3.646235  1.167932
  N     8.440473 -0.474080  4.693065
  N     8.563763  4.128474  5.008419
  S     7.656353 -0.539792  3.192111
  S     7.733538  3.942271  3.559156
  S    10.664772 -0.131792  0.437434
  S    10.711998  3.731361  0.743752
  S    10.086751 -0.072659  4.662476
  S    10.191747  4.124789  4.883557
