16  
    
  C     7.270303 -1.628192  2.266479
  C     7.500103  2.294975  2.207224
  C     6.082867 -2.144660  1.656682
  C     6.300611  1.754681  1.598339
  N     8.258042 -1.362414  1.380748
  N     8.547483  2.308786  1.381730
  N     6.222934 -2.482103  0.358560
  N     6.458411  1.523489  0.299586
  N     5.382672 -1.483001  4.024976
  N     5.739541  2.135458  4.026062
  S     4.693677 -2.175984  2.726499
  S     4.934906  1.593646  2.723235
  S     7.766595 -1.975146 -0.116120
  S     7.995039  1.696620 -0.069290
  S     7.051531 -1.259206  3.995308
  S     7.302934  2.661072  3.869926
