16  
    
  C    10.621066  0.835696  2.922899
  C    10.624396  4.393596  2.836775
  C     9.456516  0.177743  2.428127
  C     9.583793  3.624974  2.234405
  N    11.658527  0.885445  2.074979
  N    11.665511  4.627306  2.084103
  N     9.606648 -0.158160  1.143966
  N     9.906050  3.098858  1.024554
  N     8.925247  0.670358  4.877210
  N     8.781069  4.411628  4.635105
  S     8.060495  0.228200  3.516605
  S     8.194086  3.508765  3.371785
  S    11.140336  0.161936  0.685979
  S    11.354277  3.835758  0.596994
  S    10.488871  1.220064  4.588614
  S    10.302356  5.085165  4.355116
