16  
    
  C     8.615371 -0.995508  2.371533
  C     8.342907  3.050772  2.127144
  C     7.527310 -1.686122  1.728863
  C     7.163543  2.474910  1.525260
  N     9.570516 -0.717776  1.499867
  N     9.308556  3.269895  1.234469
  N     7.597245 -1.807828  0.416786
  N     7.235500  2.172244  0.228751
  N     6.948854 -1.377322  4.199245
  N     6.675261  2.783012  4.054040
  S     6.241077 -1.912614  2.802787
  S     5.882963  2.175550  2.684013
  S     9.035996 -1.151834  0.012072
  S     8.724375  2.773203 -0.202083
  S     8.526799 -0.909453  4.123800
  S     8.250995  3.316250  3.934384
