16  
    
  C     4.716233 -2.489950  1.538218
  C     5.201771  1.611942  1.859948
  C     3.512316 -2.972681  0.856195
  C     3.874635  1.466788  1.315247
  N     5.665123 -2.112640  0.712391
  N     6.180409  1.571800  0.967279
  N     3.646877 -2.998188 -0.454679
  N     3.849858  1.169854  0.034110
  N     2.859009 -3.052640  3.371658
  N     3.644151  1.570471  3.926322
  S     2.168518 -3.456389  1.894188
  S     2.664615  1.360107  2.548083
  S     5.069127 -2.271033 -0.808429
  S     5.441535  1.278358 -0.488607
  S     4.389918 -2.349685  3.291144
  S     5.267508  1.768893  3.498273
