16  
    
  C     9.182518 -0.357393  2.490747
  C     9.373447  3.159010  2.634958
  C     7.971707 -1.037168  1.977103
  C     8.082920  2.749919  2.100470
  N    10.113012 -0.249776  1.590892
  N    10.391703  3.190603  1.810281
  N     8.041564 -1.385582  0.737474
  N     8.176276  2.439912  0.817840
  N     7.396884 -0.382125  4.357723
  N     7.635689  3.215756  4.564304
  S     6.663516 -1.165461  3.110516
  S     6.727461  2.945531  3.201358
  S     9.537877 -0.937743  0.187902
  S     9.748073  2.783021  0.317113
  S     9.019306  0.067040  4.157823
  S     9.247183  3.580130  4.304952
