16  
    
  C    12.324822  1.581905  3.300043
  C    12.301948  5.373272  3.643256
  C    11.223152  1.011693  2.621102
  C    11.233901  4.718556  2.967310
  N    13.329114  1.825558  2.476985
  N    13.328009  5.628446  2.846053
  N    11.355390  0.837296  1.309485
  N    11.305018  4.615082  1.658018
  N    10.449499  1.417623  5.019929
  N    10.545636  4.813970  5.471770
  S     9.731130  0.869531  3.649059
  S     9.923278  4.291879  4.001491
  S    12.897427  1.381972  0.972732
  S    12.885973  5.192256  1.314096
  S    12.010713  1.853077  4.992200
  S    12.015199  5.653235  5.362175
