16  
    
  C     9.755795 -0.122422  2.884216
  C     9.791541  3.517821  2.716551
  C     8.604868 -0.714791  2.243678
  C     8.451540  3.281166  2.122851
  N    10.839849  0.095937  2.067240
  N    10.756943  3.951071  1.869352
  N     8.707645 -0.820646  0.903262
  N     8.539540  3.259625  0.785118
  N     7.919009 -0.504174  4.640512
  N     7.886622  3.264668  4.635101
  S     7.148426 -0.789903  3.187611
  S     7.035219  3.315375  3.155572
  S    10.259877 -0.375618  0.532814
  S    10.057401  3.807634  0.366260
  S     9.466012  0.087953  4.596158
  S     9.531532  3.603438  4.471800
