16  
    
  C     9.944106 -0.231931  2.970278
  C    10.162511  3.518265  2.955850
  C     8.800876 -0.562980  2.213467
  C     8.885102  3.706113  2.346170
  N    11.005747  0.151135  2.256093
  N    11.183691  3.513827  2.126082
  N     9.002787 -0.626285  0.905204
  N     8.895540  3.885845  1.013175
  N     8.047794 -0.611694  4.686316
  N     8.537869  3.483747  4.975177
  S     7.428868 -0.994137  3.204048
  S     7.610377  3.734023  3.596764
  S    10.553112 -0.113345  0.704901
  S    10.551099  3.677526  0.586093
  S     9.636049 -0.190615  4.675377
  S    10.217077  3.270723  4.644169
