16  
    
  C    11.795945  1.100977  3.412053
  C    11.910506  5.065719  3.296966
  C    10.562410  0.648414  2.687064
  C    10.689533  4.518912  2.696295
  N    12.831202  1.187841  2.573746
  N    12.954619  5.076195  2.500869
  N    10.779475  0.201776  1.451258
  N    10.808745  4.183865  1.368210
  N     9.981254  0.947327  5.160468
  N    10.178283  4.923524  5.205461
  S     9.235983  0.592771  3.714105
  S     9.376716  4.420127  3.825764
  S    12.349175  0.664465  1.085234
  S    12.477720  4.471199  1.039611
  S    11.532005  1.561127  5.081795
  S    11.771787  5.413297  4.989262
