16  
    
  C     7.127094 -1.624145  1.939133
  C     7.055931  2.067899  2.003937
  C     5.968422 -2.088192  1.197605
  C     5.797368  1.754699  1.304280
  N     8.215873 -1.420058  1.194367
  N     8.048371  2.344515  1.193401
  N     6.178002 -2.201806 -0.135829
  N     5.890117  1.617402 -0.008968
  N     5.247493 -1.789226  3.714697
  N     5.217906  1.700878  3.832268
  S     4.544298 -2.146040  2.263478
  S     4.473886  1.492226  2.353257
  S     7.769373 -1.853229 -0.393343
  S     7.512417  1.982388 -0.431729
  S     6.874300 -1.295473  3.632188
  S     6.875845  2.142983  3.746386
