16  
    
  C     9.000717 -0.342795  2.542601
  C     9.250627  3.476897  2.830087
  C     7.795226 -0.834952  1.936401
  C     7.992572  3.151281  2.154872
  N     9.988957 -0.150328  1.677030
  N    10.268880  3.611512  1.991428
  N     7.818227 -0.890608  0.586115
  N     8.117980  3.037675  0.833996
  N     7.427573 -0.914660  4.430005
  N     7.489497  3.399585  4.687979
  S     6.480114 -1.089975  3.054508
  S     6.709361  2.959323  3.295797
  S     9.339454 -0.446486  0.177590
  S     9.712712  3.199722  0.478017
  S     9.004424 -0.346590  4.280740
  S     9.080933  3.766155  4.470957
