16  
    
  C     5.675201 -2.077828  2.053628
  C     5.925279  1.583401  2.004083
  C     4.492468 -2.681556  1.478818
  C     4.719351  1.152183  1.290125
  N     6.734421 -1.840416  1.252055
  N     6.914363  1.961404  1.201922
  N     4.673888 -2.958570  0.180254
  N     4.908888  1.109745 -0.037321
  N     3.933772 -2.345787  3.919078
  N     4.146788  1.016746  3.805909
  S     3.199784 -2.982267  2.550185
  S     3.394597  0.713802  2.366912
  S     6.243585 -2.463151 -0.231505
  S     6.454426  1.617513 -0.341627
  S     5.495851 -1.815283  3.767617
  S     5.707620  1.652670  3.711467
