16  
    
  C     9.764863  0.095582  2.656623
  C     9.814120  3.866269  2.576336
  C     8.569831 -0.474301  2.151072
  C     8.619785  3.204303  2.079595
  N    10.674159  0.511303  1.744282
  N    10.742880  4.216689  1.683534
  N     8.491861 -0.381806  0.806181
  N     8.714108  2.934017  0.817336
  N     8.223831 -0.519015  4.634151
  N     8.173395  3.187411  4.552412
  S     7.371094 -1.068058  3.260009
  S     7.369174  2.696141  3.134418
  S     9.965228  0.157238  0.256092
  S    10.124803  3.521050  0.187279
  S     9.805785 -0.093377  4.418179
  S     9.650878  3.929497  4.285058
