16  
    
  C    11.022071  0.607313  2.833354
  C    11.051029  4.229158  3.311397
  C     9.834437 -0.055683  2.389874
  C     9.862925  3.848389  2.614197
  N    11.948577  0.932370  1.946074
  N    12.075612  4.365236  2.478446
  N     9.890209 -0.393156  1.093182
  N     9.931031  3.829602  1.271364
  N     9.445264  0.564753  4.845013
  N     9.266088  4.329070  5.137177
  S     8.612399 -0.158797  3.618371
  S     8.497671  3.767753  3.757597
  S    11.347982  0.229497  0.570175
  S    11.540871  4.206796  0.921181
  S    10.977090  1.068034  4.477039
  S    10.929305  4.425624  5.035690
