16  
    
  C     9.951924 -0.004254  2.670973
  C    10.051097  3.779066  2.780550
  C     8.773858 -0.515556  2.045768
  C     9.049233  2.887981  2.293156
  N    10.981460  0.067877  1.850969
  N    10.905242  4.175581  1.860847
  N     8.900302 -0.632555  0.724630
  N     9.247851  2.514476  1.020478
  N     8.388062 -0.388728  4.618607
  N     8.465253  3.387632  4.751678
  S     7.433858 -0.730871  3.242419
  S     7.809466  2.538438  3.491957
  S    10.467282 -0.219033  0.340916
  S    10.482830  3.396875  0.414088
  S     9.957695  0.058241  4.418841
  S     9.657097  4.478943  4.314833
