16  
    
  C     5.345684 -2.243247  1.544457
  C     4.988142  1.743973  1.724288
  C     4.213242 -2.858764  0.924008
  C     3.907424  0.937824  1.123569
  N     6.357042 -2.015422  0.687081
  N     6.085273  1.869610  0.951359
  N     4.425320 -3.125580 -0.379670
  N     4.282772  0.280219  0.039010
  N     3.453341 -2.308979  3.330890
  N     3.011072  1.811608  3.381318
  S     2.859697 -3.052481  1.912664
  S     2.540833  0.837299  2.156904
  S     5.942800 -2.584799 -0.798555
  S     5.822734  0.762538 -0.257734
  S     5.057254 -1.750245  3.218798
  S     4.642305  2.334473  3.320856
