16  
    
  C    10.292787  0.063885  2.785179
  C    10.220646  4.049506  3.100685
  C     9.010249 -0.358220  2.127791
  C     8.937353  3.639757  2.506658
  N    11.317218  0.082662  1.986130
  N    11.200624  4.047896  2.243207
  N     9.200387 -0.640657  0.863458
  N     8.942809  3.436001  1.173698
  N     8.557340  0.084231  4.634422
  N     8.607665  4.445491  5.004120
  S     7.743026 -0.617356  3.304278
  S     7.718520  3.942988  3.669932
  S    10.801173 -0.427624  0.491961
  S    10.637101  3.650494  0.777936
  S    10.242270  0.214351  4.531937
  S    10.270444  4.415886  4.819539
