16  
    
  C     9.091875 -0.552952  2.532719
  C     9.555792  3.496768  2.761747
  C     7.912130 -0.899090  1.790581
  C     8.321069  3.197875  2.123344
  N    10.222141 -0.467843  1.769251
  N    10.575753  3.277549  1.949903
  N     8.106230 -1.102075  0.478503
  N     8.302944  2.813971  0.829453
  N     7.205929 -0.633522  4.206154
  N     7.855682  3.688175  4.596239
  S     6.578343 -1.161679  2.749100
  S     6.992993  3.387835  3.210827
  S     9.749431 -0.915795  0.237646
  S     9.969853  2.893308  0.460693
  S     8.822702 -0.341711  4.225694
  S     9.476508  4.137388  4.454709
