16  
    
  C    10.585629  0.767125  3.000473
  C    10.648102  4.525515  2.819398
  C     9.379406  0.275424  2.411905
  C     9.596254  3.692491  2.335998
  N    11.579680  0.885610  2.109618
  N    11.618260  4.683102  1.922828
  N     9.468184 -0.201024  1.154882
  N     9.735456  3.231924  1.080910
  N     8.877018  0.587896  4.907839
  N     8.851919  4.336712  4.649962
  S     8.094559  0.093249  3.550686
  S     8.123061  3.661202  3.313183
  S    11.001597  0.222475  0.685767
  S    11.205500  3.846020  0.615596
  S    10.392824  1.214289  4.687573
  S    10.336430  5.042099  4.429155
