16  
    
  C     6.200637 -1.449902  1.507516
  C     6.395941  2.174822  1.843526
  C     5.091786 -2.135012  0.899135
  C     5.213079  1.606412  1.247709
  N     7.312542 -1.479202  0.801406
  N     7.460119  2.330295  1.065005
  N     5.270073 -2.401462 -0.374880
  N     5.405142  1.272368 -0.021419
  N     4.461050 -1.845797  3.436522
  N     4.622910  1.745702  3.726708
  S     3.780070 -2.534308  1.985159
  S     3.840953  1.397206  2.303829
  S     6.890396 -1.998451 -0.733266
  S     6.952678  1.727200 -0.439887
  S     5.992681 -1.143343  3.201785
  S     6.178463  2.396682  3.580260
