16  
    
  C    12.137666  1.407465  3.321218
  C    12.284992  5.191203  3.761234
  C    10.933314  0.979267  2.698688
  C    11.008418  4.859693  3.109741
  N    13.186354  1.598550  2.524001
  N    13.248215  5.228715  2.825341
  N    11.142084  0.588721  1.448479
  N    10.934143  4.739341  1.813628
  N    10.329705  1.156877  5.139794
  N    10.564901  4.926482  5.658224
  S     9.569760  0.732225  3.737704
  S     9.731843  4.643538  4.244631
  S    12.693770  1.060630  1.019954
  S    12.572129  4.894818  1.327968
  S    11.858644  1.681908  5.003127
  S    12.139463  5.373105  5.480505
