16  
    
  C    12.600059  1.661034  3.384323
  C    12.809327  5.331895  3.353158
  C    11.288616  1.307553  2.777318
  C    11.642562  4.829663  2.725460
  N    13.596253  2.005017  2.543237
  N    13.826473  5.550641  2.465411
  N    11.418464  1.326630  1.441059
  N    11.632957  4.781046  1.393973
  N    10.879740  0.947682  5.284998
  N    11.066974  5.067440  5.216010
  S    10.068417  0.751259  3.800335
  S    10.326272  4.466318  3.854880
  S    12.994147  1.701640  1.040879
  S    13.119894  5.311167  0.951667
  S    12.400756  1.605811  5.101243
  S    12.664844  5.591580  5.095633
