16  
    
  C     7.047945 -1.598648  2.292755
  C     7.088225  2.300129  2.087965
  C     5.836201 -1.806218  1.567129
  C     5.902286  1.834711  1.390360
  N     8.114326 -1.389068  1.490249
  N     8.165202  2.373375  1.291713
  N     5.974847 -1.863541  0.222704
  N     6.144973  1.529065  0.138307
  N     5.248949 -1.711048  4.028635
  N     5.191862  2.009446  3.831284
  S     4.433029 -2.117050  2.561858
  S     4.488472  1.648798  2.375052
  S     7.575080 -1.431944 -0.029341
  S     7.677796  1.907903 -0.173471
  S     6.865521 -1.421608  3.948979
  S     6.753087  2.512496  3.834688
