16  
    
  C     7.054057 -1.459882  2.305554
  C     7.031318  2.284749  2.125184
  C     5.872207 -1.854066  1.591731
  C     5.866761  1.802531  1.399145
  N     8.141591 -1.310457  1.503976
  N     8.108006  2.423245  1.389579
  N     5.948441 -1.778211  0.239462
  N     6.054030  1.553693  0.118196
  N     5.251986 -1.829801  4.128607
  N     5.245133  2.020094  3.906111
  S     4.512125 -2.051329  2.661088
  S     4.511078  1.670504  2.425733
  S     7.533380 -1.507449 -0.095579
  S     7.668469  1.899512 -0.196739
  S     6.851045 -1.358294  4.032602
  S     6.830099  2.560047  3.799266
