16  
    
  C     9.917227 -0.184399  2.969049
  C    10.233209  3.477456  3.020299
  C     8.827049 -0.648842  2.149885
  C     8.968594  3.763670  2.425276
  N    11.000226  0.095820  2.303342
  N    11.266141  3.488178  2.180089
  N     9.014284 -0.526024  0.847508
  N     8.983696  3.826946  1.099709
  N     8.089974 -0.634695  4.648534
  N     8.554228  3.556374  4.920581
  S     7.356169 -0.917357  3.166860
  S     7.685408  3.885485  3.563684
  S    10.636068 -0.013242  0.668842
  S    10.622818  3.782152  0.692074
  S     9.710686 -0.181152  4.718427
  S    10.145025  3.233744  4.758756
