16  
    
  C    12.685695  1.637710  3.744913
  C    12.287218  4.932826  3.431856
  C    11.478250  1.322089  3.089890
  C    11.096251  4.457463  2.691863
  N    13.748197  1.545760  2.967049
  N    13.306373  5.222407  2.686874
  N    11.553876  1.200614  1.774319
  N    11.360919  4.300563  1.393439
  N    10.888735  1.577773  5.578749
  N    10.441112  4.819205  5.223720
  S    10.066616  1.334663  4.183487
  S     9.779330  4.231739  3.750745
  S    13.141253  1.360792  1.435201
  S    12.999480  4.796834  1.178054
  S    12.494259  1.807381  5.422553
  S    12.121382  5.101174  5.147551
