16  
    
  C     9.080820 -0.325667  2.401769
  C     9.367684  3.177938  2.696745
  C     7.884748 -0.922957  1.875432
  C     8.154153  2.788701  2.079183
  N    10.070900 -0.184596  1.527169
  N    10.357660  3.154844  1.830347
  N     8.009531 -1.385263  0.632989
  N     8.192553  2.536867  0.756186
  N     7.340309 -0.344430  4.320256
  N     7.681250  3.230467  4.578297
  S     6.664295 -1.154015  3.025542
  S     6.812793  2.896243  3.194118
  S     9.518472 -0.964882  0.155031
  S     9.771431  2.736031  0.329599
  S     8.894627  0.122317  4.130216
  S     9.314469  3.653983  4.471553
