16  
    
  C    12.086434  1.388653  3.474249
  C    12.225570  5.090946  3.327569
  C    10.911527  0.731046  2.774484
  C    11.025733  4.616469  2.696197
  N    13.174511  1.606816  2.735809
  N    13.284200  5.069131  2.588525
  N    11.212154  0.480425  1.543980
  N    11.145530  4.411146  1.399308
  N    10.153421  1.081558  5.172792
  N    10.366312  5.400661  5.111573
  S     9.443720  0.594934  3.763545
  S     9.669845  4.738538  3.720844
  S    12.726466  1.061090  1.167589
  S    12.831145  4.609804  1.066285
  S    11.688727  1.695068  5.160280
  S    12.016557  5.750040  4.973264
