16  
    
  C     8.960310 -0.301346  2.553802
  C     8.762536  3.370795  2.578522
  C     7.727274 -0.657851  1.894849
  C     7.502237  2.865690  2.048212
  N     9.988810 -0.064114  1.752409
  N     9.679737  3.786325  1.716481
  N     7.836019 -0.809459  0.606826
  N     7.579806  2.881031  0.745002
  N     7.221919 -0.520406  4.415396
  N     7.195154  2.883918  4.539492
  S     6.439818 -1.016712  3.057412
  S     6.195108  2.621533  3.220998
  S     9.376756 -0.388189  0.234043
  S     9.029467  3.471543  0.198311
  S     8.819356 -0.305190  4.243993
  S     8.773354  3.340580  4.277518
