16  
    
  C     9.101972 -0.448259  2.539577
  C     9.113131  3.501428  2.756347
  C     7.833710 -0.766897  1.925334
  C     7.833606  3.101465  2.151518
  N    10.014093 -0.110755  1.651387
  N    10.081705  3.547441  1.863187
  N     7.817721 -0.912600  0.614701
  N     7.886223  2.993663  0.829685
  N     7.307708 -0.832986  4.497989
  N     7.338752  3.257839  4.628685
  S     6.514661 -1.029722  3.079539
  S     6.503234  2.830758  3.246938
  S     9.315483 -0.376103  0.141279
  S     9.413961  3.326798  0.328409
  S     8.854567 -0.331375  4.300238
  S     8.967923  3.598720  4.504331
