16  
    
  C     5.853739 -2.121521  1.861199
  C     6.120335  1.771965  1.949943
  C     4.614007 -2.456423  1.186964
  C     4.778877  1.687592  1.417817
  N     6.902587 -2.128574  1.063244
  N     7.044785  1.400099  1.054397
  N     4.677401 -2.583307 -0.130491
  N     4.686526  1.324487  0.129928
  N     4.008959 -2.365415  3.712276
  N     4.546165  2.018159  3.948790
  S     3.314301 -2.729910  2.227155
  S     3.552634  2.068007  2.617023
  S     6.330582 -2.357831 -0.487225
  S     6.229895  1.095989 -0.359066
  S     5.664516 -2.015070  3.562458
  S     6.182789  2.087887  3.636378
