16  
    
  C     9.644769 -0.644636  2.764884
  C     9.513503  3.240127  2.600300
  C     8.373027 -0.806849  2.086049
  C     8.223565  3.013452  1.903189
  N    10.673486 -0.516311  1.968272
  N    10.592518  3.275421  1.813993
  N     8.499844 -1.020764  0.790563
  N     8.369645  3.032146  0.597027
  N     7.875769 -0.565865  4.622136
  N     7.664866  2.994597  4.374507
  S     7.030912 -0.991675  3.238729
  S     6.885530  3.030190  2.950759
  S    10.126486 -0.875629  0.447578
  S    10.012709  3.208383  0.240714
  S     9.531206 -0.440415  4.472751
  S     9.271860  3.379782  4.271025
