16  
    
  C     4.725832 -1.985526  1.771378
  C     4.296976  1.304402  1.353708
  C     3.491491 -2.396886  1.183803
  C     3.114454  0.839592  0.669297
  N     5.766884 -1.868850  0.926968
  N     5.362842  1.510228  0.555324
  N     3.563422 -2.622836 -0.133764
  N     3.228721  0.821132 -0.677297
  N     3.008740 -1.872006  3.621749
  N     2.507210  0.890322  3.190848
  S     2.166755 -2.274365  2.247470
  S     1.702984  0.741461  1.727227
  S     5.142561 -2.275263 -0.601187
  S     4.770337  1.229496 -1.015294
  S     4.691912 -1.819054  3.491741
  S     4.089219  1.318521  3.137342
