16  
    
  C    12.869938  1.536435  3.711270
  C    12.871872  5.550009  3.749514
  C    11.577787  1.231457  3.088247
  C    11.625257  5.050114  3.243360
  N    13.936395  1.658468  2.892975
  N    13.853435  5.537209  2.853351
  N    11.742589  1.086720  1.779538
  N    11.666988  4.614168  1.933100
  N    11.042863  1.652181  5.534636
  N    11.278362  5.515464  5.745382
  S    10.218655  1.257862  4.136958
  S    10.405982  4.876375  4.494645
  S    13.279534  1.395723  1.371506
  S    13.213349  4.915886  1.418424
  S    12.671075  1.980098  5.393473
  S    12.805246  6.078853  5.362774
