16  
    
  C     4.722979 -1.967327  1.899062
  C     4.162917  1.148851  1.294048
  C     3.545884 -2.475298  1.232423
  C     2.918256  0.796489  0.572424
  N     5.817682 -1.953643  1.126688
  N     5.254836  1.167331  0.518665
  N     3.716099 -2.784677 -0.059210
  N     3.060180  0.781587 -0.770153
  N     2.864497 -2.195401  3.689898
  N     2.321828  1.190071  3.022181
  S     2.161417 -2.634593  2.255649
  S     1.533781  0.599976  1.665165
  S     5.291004 -2.339793 -0.462242
  S     4.684506  1.069667 -1.050114
  S     4.461229 -1.746517  3.588021
  S     3.983967  1.265664  3.036374
