16  
    
  C     5.754795 -2.180203  2.072270
  C     5.900431  1.390700  1.934263
  C     4.526802 -2.606214  1.440013
  C     4.754543  0.950343  1.225665
  N     6.802500 -1.935610  1.288676
  N     6.936684  1.654309  1.128625
  N     4.671988 -2.888974  0.168183
  N     4.877087  1.036019 -0.093203
  N     3.875823 -2.152217  3.961817
  N     4.109481  0.857744  3.721351
  S     3.243349 -2.868724  2.532113
  S     3.456546  0.456599  2.260878
  S     6.226648 -2.447760 -0.244888
  S     6.382344  1.524995 -0.396228
  S     5.567609 -1.924108  3.834088
  S     5.620587  1.575638  3.650993
