16  
    
  C     6.328488 -1.703323  1.679530
  C     6.417233  2.170411  1.991991
  C     5.216717 -2.315217  1.028212
  C     5.327222  1.445658  1.373043
  N     7.295358 -1.332856  0.875858
  N     7.455184  2.365401  1.166009
  N     5.372189 -2.521652 -0.275059
  N     5.423474  1.244608  0.062556
  N     4.504791 -1.859750  3.475648
  N     4.551100  1.992799  3.795369
  S     3.832830 -2.516034  2.079006
  S     3.962132  1.268902  2.404986
  S     6.935666 -1.943841 -0.639748
  S     6.967745  1.774605 -0.336500
  S     6.104886 -1.435665  3.363335
  S     6.115199  2.593574  3.622858
