16  
    
  C     8.748811 -0.259162  2.519127
  C     8.659685  3.095488  2.556046
  C     7.546469 -0.699605  1.856330
  C     7.389362  2.659640  1.895481
  N     9.733905  0.095947  1.696836
  N     9.749436  3.241365  1.748711
  N     7.695037 -0.860734  0.546093
  N     7.567601  2.541492  0.589567
  N     7.025125 -0.716145  4.390226
  N     6.747357  2.898292  4.330565
  S     6.250581 -0.964205  2.939763
  S     5.967664  2.436686  2.933700
  S     9.224563 -0.300728  0.157784
  S     9.187548  2.797172  0.283451
  S     8.515739 -0.095067  4.211451
  S     8.343301  3.255816  4.261975
