16  
    
  C     8.960447 -0.339731  2.365894
  C     9.463244  3.272863  2.780230
  C     7.843101 -0.994297  1.723945
  C     8.199573  2.987185  2.075864
  N    10.084616 -0.300101  1.625063
  N    10.473339  3.257888  1.927768
  N     8.060933 -1.248064  0.408454
  N     8.266624  2.687792  0.765330
  N     7.045156 -0.282674  4.062461
  N     7.795557  3.294039  4.666943
  S     6.493682 -1.074215  2.721133
  S     6.901153  3.042345  3.254076
  S     9.664629 -0.884683  0.132627
  S     9.931477  2.871065  0.432835
  S     8.687801  0.106783  4.008002
  S     9.457719  3.735784  4.474756
