16  
    
  C     4.792458 -2.037421  1.802167
  C     4.268869  1.180539  1.320297
  C     3.543181 -2.435190  1.194202
  C     3.032381  0.829988  0.642598
  N     5.762633 -1.792336  0.943824
  N     5.322719  1.480263  0.562825
  N     3.602010 -2.646503 -0.106214
  N     3.149169  0.820637 -0.665302
  N     2.977388 -1.905157  3.625752
  N     2.442735  1.004805  3.142487
  S     2.172607 -2.342986  2.239619
  S     1.694717  0.729700  1.720728
  S     5.178830 -2.301254 -0.567061
  S     4.763782  1.199449 -0.976441
  S     4.654276 -1.815570  3.537238
  S     4.060317  1.276777  3.063637
