16  
    
  C     8.450947 -0.981229  2.467499
  C     8.324761  2.274504  2.102289
  C     7.209822 -1.167295  1.792997
  C     7.191840  1.798228  1.312578
  N     9.483034 -0.859241  1.669164
  N     9.390015  2.596212  1.367440
  N     7.337813 -1.354094  0.518755
  N     7.376349  1.806551 -0.008495
  N     6.511170 -0.756197  4.184500
  N     6.217844  2.228113  3.670426
  S     5.760241 -0.975031  2.702131
  S     5.683784  1.658728  2.223240
  S     8.917753 -1.171880  0.142925
  S     8.974070  2.310622 -0.172601
  S     8.201168 -0.640984  4.155208
  S     7.856696  2.517923  3.833913
