16  
    
  C     5.699449 -2.032046  1.973695
  C     6.006397  1.745981  2.080996
  C     4.606358 -2.689768  1.361007
  C     4.751059  1.405352  1.424986
  N     6.729732 -1.869429  1.116416
  N     7.045306  1.793612  1.265501
  N     4.749444 -2.938387  0.042256
  N     4.793540  1.228965  0.110733
  N     3.922766 -2.392899  3.785118
  N     4.236219  1.886499  3.910295
  S     3.215014 -3.036566  2.380937
  S     3.412882  1.505413  2.534309
  S     6.231847 -2.336013 -0.382278
  S     6.435681  1.486070 -0.302375
  S     5.501256 -1.870654  3.690500
  S     5.909908  1.959809  3.802246
