16  
    
  C     4.160063 -2.629638  1.569026
  C     4.248281  1.346023  1.678501
  C     2.985195 -3.275772  1.062103
  C     2.953505  1.255733  1.120873
  N     5.181175 -2.575846  0.713993
  N     5.272616  1.160283  0.847779
  N     3.077654 -3.794589 -0.161008
  N     2.967393  0.977157 -0.182360
  N     2.499607 -2.536368  3.467710
  N     2.553886  1.617549  3.620514
  S     1.651631 -3.095869  2.127960
  S     1.639076  1.582379  2.191375
  S     4.569514 -3.192876 -0.718139
  S     4.502100  0.963372 -0.663672
  S     4.138494 -2.244432  3.220488
  S     4.213267  1.490196  3.396567
