16  
    
  C     8.283188 -0.925857  2.507505
  C     8.098641  3.065818  2.345304
  C     7.015355 -1.320522  1.899342
  C     7.018786  2.396059  1.715045
  N     9.353421 -0.901581  1.653926
  N     9.170716  3.225811  1.599191
  N     7.156894 -1.706373  0.611909
  N     7.269745  2.081287  0.445079
  N     6.520924 -0.803726  4.376429
  N     6.385501  2.516285  4.235808
  S     5.704323 -1.492034  3.060117
  S     5.672443  2.095521  2.768502
  S     8.735383 -1.414799  0.196232
  S     8.765146  2.628408  0.063806
  S     8.120580 -0.347521  4.155804
  S     7.901243  3.286935  3.997074
