16  
    
  C     7.850457 -0.776694  2.000229
  C     8.123031  3.003012  2.487177
  C     6.695359 -1.415107  1.368006
  C     6.919508  2.571257  1.827702
  N     8.894693 -0.617502  1.187220
  N     9.193288  3.176611  1.671496
  N     6.860593 -1.685559  0.066809
  N     7.124495  2.451566  0.515259
  N     6.065371 -0.954529  3.796612
  N     6.383879  2.538856  4.298236
  S     5.365563 -1.717719  2.433051
  S     5.535068  2.331521  2.899343
  S     8.378601 -1.193009 -0.280560
  S     8.633159  2.864812  0.091449
  S     7.646084 -0.600030  3.679764
  S     7.943744  2.990809  4.212278
