16  
    
  C    10.268894  0.362954  2.589036
  C    10.552228  4.215521  2.909782
  C     9.120526 -0.266866  1.980292
  C     9.260418  3.811062  2.415514
  N    11.306626  0.539451  1.797981
  N    11.559347  4.295985  2.069403
  N     9.352123 -0.604008  0.728541
  N     9.386693  3.371300  1.168936
  N     8.343178  0.512057  4.305687
  N     8.868084  4.243845  4.907769
  S     7.662667 -0.125366  2.970009
  S     7.915587  3.904566  3.607441
  S    10.871809 -0.083950  0.308085
  S    10.978363  3.760630  0.607811
  S     9.942671  0.934573  4.160114
  S    10.484530  4.594248  4.570635
