16  
    
  C     8.485607 -0.906652  2.385592
  C     8.278777  2.669716  2.015626
  C     7.297670 -1.268921  1.699892
  C     7.077492  2.312548  1.321376
  N     9.575654 -0.885403  1.622622
  N     9.374137  2.807356  1.231867
  N     7.420375 -1.274768  0.384115
  N     7.212794  2.105468  0.012692
  N     6.634209 -1.162109  4.103690
  N     6.396553  2.303086  3.781174
  S     5.873131 -1.557354  2.631843
  S     5.677898  1.907315  2.359600
  S     9.008827 -1.158840  0.078923
  S     8.823224  2.412533 -0.271275
  S     8.246021 -0.922351  4.073761
  S     7.929889  2.753032  3.722560
