16  
    
  C     7.688714 -0.870304  1.765092
  C     7.744680  2.960435  2.244460
  C     6.475710 -1.490859  1.236876
  C     6.535894  2.458753  1.573788
  N     8.655952 -0.828938  0.844092
  N     8.817928  3.077765  1.483934
  N     6.490305 -1.766697 -0.082128
  N     6.767824  2.172025  0.341901
  N     6.039946 -1.125277  3.776279
  N     5.910839  2.664984  4.028685
  S     5.175300 -1.497433  2.459509
  S     5.179868  2.117926  2.660190
  S     8.033895 -1.374525 -0.598606
  S     8.354068  2.539822 -0.032602
  S     7.631738 -0.798271  3.479949
  S     7.476933  3.269084  3.918384
