16  
    
  C     4.324362 -2.484410  1.729918
  C     4.092177  1.280137  1.485348
  C     3.228585 -3.192846  1.152761
  C     2.957236  0.582538  0.949278
  N     5.291260 -2.197373  0.849401
  N     5.050338  1.405456  0.588530
  N     3.307609 -3.340437 -0.180848
  N     2.978962  0.325255 -0.353485
  N     2.532831 -2.726593  3.630957
  N     2.312070  1.084530  3.408408
  S     1.893500 -3.461648  2.302898
  S     1.567125  0.434493  2.024009
  S     4.748211 -2.732639 -0.617701
  S     4.522901  0.788253 -0.855375
  S     4.089039 -2.173054  3.452185
  S     3.852357  1.631214  3.155659
