16  
    
  C     6.213285 -1.652760  2.122997
  C     6.562251  2.117938  2.072131
  C     5.191288 -2.385888  1.456650
  C     5.334467  1.655535  1.478779
  N     7.302023 -1.442334  1.340462
  N     7.588597  2.285917  1.256165
  N     5.377238 -2.553726  0.117337
  N     5.474597  1.446183  0.183224
  N     4.351220 -2.047493  3.913068
  N     4.775665  1.924966  3.989815
  S     3.801482 -2.825188  2.486368
  S     3.985184  1.501003  2.570194
  S     6.860679 -1.822324 -0.200732
  S     6.984836  1.942641 -0.253048
  S     5.956526 -1.545386  3.849222
  S     6.411265  2.323279  3.818489
