16  
    
  C     5.695153 -1.981623  1.655671
  C     5.201728  1.485333  1.706068
  C     4.436757 -2.482823  1.137219
  C     4.035871  0.779720  1.182215
  N     6.707977 -1.965805  0.815919
  N     6.159126  1.787188  0.838964
  N     4.527597 -2.777137 -0.127302
  N     4.103413  0.563532 -0.129398
  N     4.124492 -2.353812  3.698844
  N     3.557406  1.137885  3.652137
  S     3.223372 -2.681631  2.366429
  S     2.745909  0.623027  2.297843
  S     6.079039 -2.398462 -0.651353
  S     5.548266  1.278070 -0.642135
  S     5.663453 -1.833864  3.393253
  S     5.186737  1.500627  3.414963
