16  
    
  C    10.218488  0.485424  2.897639
  C    10.707252  4.476131  2.884794
  C     8.978044 -0.030827  2.268060
  C     9.553837  4.014464  2.107287
  N    11.069762  0.963496  2.011523
  N    11.756465  4.717645  2.097872
  N     9.039877 -0.184031  0.954901
  N     9.716643  3.993270  0.775136
  N     8.474487  0.104379  4.771660
  N     8.891577  3.876114  4.622204
  S     7.771640 -0.536265  3.376703
  S     8.234526  3.698234  3.117263
  S    10.459158  0.620769  0.479130
  S    11.278879  4.375622  0.490090
  S    10.120324  0.448784  4.669469
  S    10.522090  4.289160  4.659978
