16  
    
  C    11.097735  0.728722  2.841942
  C    11.176796  4.197870  3.294109
  C     9.882606  0.045689  2.336334
  C     9.865181  3.971914  2.698958
  N    12.050127  0.911863  1.943691
  N    12.191648  4.220539  2.427379
  N    10.069830 -0.534638  1.154772
  N     9.896423  4.018184  1.389373
  N     9.403514  0.590451  4.871764
  N     9.400627  4.275512  5.196597
  S     8.685643 -0.240878  3.614553
  S     8.549581  3.975635  3.791101
  S    11.559540  0.064175  0.580808
  S    11.501852  4.135193  0.950433
  S    10.991423  1.044766  4.596805
  S    11.041782  4.450694  5.002927
