16  
    
  C    12.840710  1.532999  3.341632
  C    12.468955  5.095327  3.298239
  C    11.606360  1.120694  2.777137
  C    11.238265  4.710993  2.698965
  N    13.806693  1.727330  2.440541
  N    13.512407  5.390934  2.514705
  N    11.596296  0.901975  1.460619
  N    11.352693  4.623153  1.352551
  N    11.299872  1.337804  5.339221
  N    10.599199  4.909605  5.162112
  S    10.350487  1.006818  3.987405
  S     9.899485  4.450204  3.711332
  S    13.117605  1.345400  0.938819
  S    12.886330  5.108834  0.941730
  S    12.857666  2.006219  5.055820
  S    12.238186  5.245923  5.021427
