16  
    
  C     4.617339 -2.301089  1.571255
  C     5.138670  1.569682  1.911902
  C     3.583940 -3.039505  0.838452
  C     3.810870  1.340912  1.314422
  N     5.592821 -1.901498  0.813696
  N     6.095024  1.480270  1.002031
  N     3.711604 -3.098277 -0.475085
  N     3.782951  1.234898 -0.012505
  N     2.911100 -3.042440  3.348116
  N     3.648751  1.520138  3.839829
  S     2.280271 -3.494305  1.875504
  S     2.609038  1.439033  2.619747
  S     5.173013 -2.339277 -0.796791
  S     5.390619  1.273196 -0.453486
  S     4.381741 -2.293021  3.304542
  S     5.262038  1.731342  3.624165
