16  
    
  C    11.373597  0.986816  3.044946
  C    11.371581  4.627430  3.405843
  C    10.178153  0.409534  2.458805
  C    10.205067  3.927849  2.820796
  N    12.394694  1.132172  2.245248
  N    12.314118  4.918336  2.559842
  N    10.375349  0.037653  1.214169
  N    10.372270  3.612521  1.523994
  N     9.622890  0.833947  4.913173
  N     9.506576  4.503334  5.190004
  S     8.891477  0.202331  3.589140
  S     8.854686  3.751538  3.875665
  S    11.843605  0.571248  0.775943
  S    11.820101  4.249363  1.044097
  S    11.211238  1.247653  4.700756
  S    11.045199  5.149175  5.033930
