16  
    
  C     3.205939 -2.852626  1.601607
  C     3.624757  0.589889  1.416176
  C     2.085010 -3.207995  0.779235
  C     2.332744  0.308547  0.799434
  N     4.309950 -2.500454  0.902894
  N     4.584737  0.907339  0.553400
  N     2.375880 -3.143751 -0.560559
  N     2.355433  0.398299 -0.526270
  N     1.384671 -3.549113  3.238460
  N     1.906765  0.120796  3.289510
  S     0.699974 -3.680439  1.770148
  S     1.031104 -0.023327  1.884047
  S     3.966030 -2.812790 -0.650763
  S     3.931111  0.811089 -0.936958
  S     2.953997 -3.063303  3.270370
  S     3.518825  0.684293  3.197942
