16  
    
  C    10.987636  0.530171  2.995316
  C    10.882607  4.317859  2.842388
  C     9.725798  0.175423  2.355192
  C     9.840197  3.592504  2.208775
  N    12.036014  0.579689  2.209818
  N    11.915617  4.660867  2.059771
  N     9.814075 -0.125531  1.069155
  N    10.139762  3.201737  0.980538
  N     9.303949  0.465890  4.919904
  N     9.009303  4.128507  4.597172
  S     8.453595 -0.059002  3.575063
  S     8.341328  3.506425  3.193815
  S    11.460470  0.169850  0.694281
  S    11.655876  3.899822  0.658213
  S    10.886355  0.897931  4.678628
  S    10.564686  4.713971  4.470719
