16  
    
  C     7.915728 -0.677089  2.405593
  C     8.291373  3.008998  2.326559
  C     6.836331 -1.299337  1.711082
  C     7.020991  2.585389  1.790373
  N     9.015538 -0.438592  1.665682
  N     9.268825  3.046489  1.425290
  N     7.046168 -1.442104  0.384998
  N     7.012172  2.270035  0.503446
  N     6.158745 -1.131510  4.131100
  N     6.746016  2.757903  4.320015
  S     5.495228 -1.717016  2.688391
  S     5.797562  2.621854  3.038879
  S     8.596764 -0.892977  0.132708
  S     8.610918  2.541407 -0.031295
  S     7.745124 -0.476383  4.123631
  S     8.290012  3.266003  4.032133
