16  
    
  C     5.380865 -2.134741  1.497684
  C     5.071353  1.759547  1.565249
  C     4.268189 -2.789358  0.842587
  C     4.057711  0.886086  1.068049
  N     6.488869 -1.989471  0.791719
  N     6.175211  1.831419  0.836394
  N     4.513122 -3.016716 -0.426445
  N     4.440612  0.221500 -0.040482
  N     3.540958 -2.450783  3.256556
  N     3.082379  1.842088  3.199659
  S     2.855156 -2.890833  1.816276
  S     2.564732  0.883565  2.012101
  S     6.044032 -2.452908 -0.765405
  S     5.902964  0.820789 -0.440057
  S     5.058799 -1.853580  3.180839
  S     4.672096  2.379967  3.181145
