16  
    
  C    12.083479  1.416712  3.347095
  C    12.285314  5.154040  3.763779
  C    10.959643  0.930188  2.668222
  C    11.022137  4.889864  3.213106
  N    13.166579  1.579020  2.581677
  N    13.227053  5.282906  2.828071
  N    11.134226  0.587082  1.397881
  N    10.939932  4.753316  1.859838
  N    10.316892  1.146917  5.183768
  N    10.578242  4.877089  5.661356
  S     9.600638  0.707896  3.758306
  S     9.710088  4.616512  4.280058
  S    12.685360  1.128126  1.016074
  S    12.544638  4.916506  1.352217
  S    11.856705  1.711375  5.010336
  S    12.135685  5.330673  5.487468
