16  
    
  C     8.707114 -0.086227  2.519520
  C     8.485655  3.150761  2.555053
  C     7.578497 -0.698855  1.821757
  C     7.346235  2.647689  1.815290
  N     9.718603  0.182667  1.679379
  N     9.571128  3.307748  1.801301
  N     7.704409 -0.765647  0.485296
  N     7.629586  2.359838  0.542249
  N     7.081701 -0.777310  4.408275
  N     6.710935  2.880079  4.366754
  S     6.246274 -0.965267  2.997192
  S     6.089268  2.386276  2.912522
  S     9.233966 -0.210179  0.136334
  S     9.179547  2.858948  0.245903
  S     8.636327 -0.117061  4.310662
  S     8.332277  3.282249  4.279703
