16  
    
  C     3.921020 -2.788321  1.461692
  C     4.122893  1.240732  1.515680
  C     2.774030 -3.398931  0.824975
  C     2.876517  0.824067  0.909930
  N     4.979592 -2.733693  0.707566
  N     5.132226  1.296964  0.661147
  N     2.930298 -3.835262 -0.382344
  N     2.940875  0.555653 -0.384724
  N     2.050663 -2.759088  3.213561
  N     2.334217  1.170238  3.435290
  S     1.407529 -3.501415  1.849792
  S     1.520501  0.593037  2.105173
  S     4.477596 -3.298713 -0.801512
  S     4.468748  0.897591 -0.862096
  S     3.710151 -2.420839  3.117892
  S     4.054470  1.447996  3.211619
