16  
    
  C     8.687477 -0.410415  2.429973
  C     8.614948  3.017465  2.596270
  C     7.528406 -0.888118  1.755829
  C     7.379574  2.720799  1.985865
  N     9.844513 -0.385071  1.694476
  N     9.676375  3.233919  1.818597
  N     7.700350 -1.053814  0.408706
  N     7.503784  2.665279  0.673367
  N     6.854151 -0.601259  4.262156
  N     6.800775  2.936870  4.464191
  S     6.112803 -0.959226  2.839664
  S     6.000146  2.492131  3.028820
  S     9.328387 -0.783259  0.160280
  S     9.083303  2.929529  0.222953
  S     8.424462 -0.163992  4.107072
  S     8.438622  3.215870  4.253887
