16  
    
  C     7.223806 -1.333060  2.296730
  C     7.789234  2.879075  2.351176
  C     6.096388 -1.783646  1.522280
  C     6.657550  2.295533  1.704890
  N     8.301437 -0.918870  1.592906
  N     8.847161  3.059032  1.552855
  N     6.341419 -1.813865  0.220392
  N     6.834182  2.129080  0.400072
  N     5.220694 -1.861257  3.965808
  N     6.016377  2.483886  4.107115
  S     4.742868 -2.438950  2.481552
  S     5.280087  2.069651  2.704659
  S     7.866064 -1.187745 -0.002534
  S     8.300737  2.643693 -0.007213
  S     6.771455 -1.264249  4.046358
  S     7.587675  2.990425  4.026407
