16  
    
  C    11.344188  0.816532  3.037299
  C    11.186246  4.771685  3.431069
  C    10.168390  0.318153  2.324296
  C    10.099690  3.934759  2.900209
  N    12.420382  0.980127  2.275705
  N    12.183231  4.877826  2.592065
  N    10.398561  0.130008  1.013827
  N    10.290616  3.525066  1.629254
  N     9.533178  0.768605  4.814708
  N     9.446196  4.545676  5.371826
  S     8.905757 -0.001511  3.488442
  S     8.734055  3.855494  4.031744
  S    12.041005  0.470179  0.724823
  S    11.754151  4.199590  1.153674
  S    11.159543  1.280372  4.710447
  S    10.973103  5.125108  5.096653
