16  
    
  C     6.309808 -1.626935  1.595683
  C     6.380891  2.127688  1.885786
  C     5.147409 -2.180102  0.925195
  C     5.252458  1.542792  1.237795
  N     7.353344 -1.377545  0.764201
  N     7.369139  2.404626  1.042627
  N     5.302732 -2.360857 -0.404642
  N     5.454060  1.209140 -0.032914
  N     4.433788 -1.791345  3.326741
  N     4.642985  1.832422  3.732032
  S     3.818476 -2.529908  2.008344
  S     3.878750  1.358348  2.344234
  S     6.881516 -1.977805 -0.722442
  S     6.972171  1.722166 -0.378256
  S     5.975235 -1.174553  3.243726
  S     6.140052  2.442060  3.571714
