16  
    
  C     6.046537 -2.282551  1.798045
  C     6.074681  1.562618  1.872205
  C     4.797340 -2.646786  1.146819
  C     4.754317  1.655448  1.273284
  N     7.073212 -2.221035  0.947342
  N     7.031415  1.412628  0.949584
  N     4.834462 -2.714059 -0.188380
  N     4.751953  1.620912 -0.063622
  N     4.219666 -2.099128  3.654215
  N     4.473519  2.190757  3.793395
  S     3.377011 -2.456376  2.204228
  S     3.535862  1.969200  2.454137
  S     6.433647 -2.519889 -0.578361
  S     6.322968  1.432510 -0.518951
  S     5.898676 -2.073155  3.510383
  S     6.097923  1.902721  3.563722
