16  
    
  C     9.823773 -0.068735  2.622518
  C     9.763445  3.913606  2.563160
  C     8.507362 -0.484851  2.035689
  C     8.661991  3.159745  2.010664
  N    10.646485  0.419506  1.728339
  N    10.699999  4.172087  1.656390
  N     8.474723 -0.482224  0.741779
  N     8.676575  2.944506  0.697539
  N     8.220957 -0.525196  4.623028
  N     8.226458  3.110811  4.526900
  S     7.366322 -1.035113  3.282730
  S     7.437172  2.708140  3.161357
  S     9.940159  0.171115  0.226363
  S    10.115242  3.527873  0.201951
  S     9.830769 -0.070616  4.362215
  S     9.593567  3.949090  4.269666
