16  
    
  C    10.200342  0.473060  2.848365
  C    10.810721  4.406608  2.818287
  C     9.040227 -0.210098  2.281761
  C     9.564365  3.987983  2.198230
  N    11.113183  0.878464  1.952588
  N    11.822441  4.684009  1.964447
  N     9.059459 -0.125065  0.950481
  N     9.700089  3.725432  0.912035
  N     8.527349 -0.030201  4.760899
  N     8.936177  3.882297  4.622109
  S     7.703335 -0.443955  3.378670
  S     8.182665  3.708268  3.141481
  S    10.436024  0.553453  0.486785
  S    11.213923  4.289998  0.470312
  S    10.051334  0.608671  4.560464
  S    10.499339  4.377549  4.549008
