16  
    
  C     9.751864  0.008100  2.875371
  C     9.790502  3.589641  2.722925
  C     8.601589 -0.588549  2.240255
  C     8.483183  3.444137  2.076267
  N    10.713973  0.344609  2.042731
  N    10.793379  3.739519  1.862428
  N     8.626782 -0.691050  0.911737
  N     8.481818  3.467302  0.756046
  N     7.970119 -0.409152  4.736220
  N     8.094251  3.167837  4.684681
  S     7.274349 -1.008256  3.303566
  S     7.282450  2.927589  3.246885
  S    10.104642 -0.020771  0.481596
  S    10.101847  3.610112  0.358354
  S     9.569312  0.115735  4.641624
  S     9.692183  3.446463  4.443959
