16  
    
  C    11.752726  1.042469  2.821710
  C    11.739761  4.914493  3.198306
  C    10.531157  0.296747  2.387163
  C    10.590160  4.371345  2.472031
  N    12.608994  1.468941  1.871466
  N    12.722740  5.165746  2.338092
  N    10.517171  0.339458  1.035323
  N    10.679633  4.222746  1.153621
  N    10.106719  0.870630  4.876420
  N     9.891018  4.660169  4.916880
  S     9.263208  0.186322  3.598558
  S     9.235298  4.047622  3.493267
  S    11.885097  1.122066  0.424342
  S    12.205931  4.865178  0.837434
  S    11.651864  1.401398  4.522639
  S    11.469486  5.204293  4.858756
