16  
    
  C     9.973561 -0.054613  2.991967
  C    10.229060  3.463804  2.885718
  C     8.805669 -0.609352  2.266196
  C     8.862776  3.685968  2.383697
  N    11.037677  0.126044  2.248311
  N    11.228105  3.523547  1.983044
  N     8.951813 -0.662690  0.973850
  N     8.847819  3.785192  1.072361
  N     8.045945 -0.631941  4.668699
  N     8.543523  3.391832  4.903248
  S     7.433442 -0.998308  3.192994
  S     7.610622  3.630184  3.574990
  S    10.508767 -0.188618  0.657812
  S    10.460290  3.640879  0.530087
  S     9.638465 -0.213277  4.687153
  S    10.168214  3.395097  4.596341
