16  
    
  C    11.796837  1.135283  3.353857
  C    11.914423  5.046502  3.307865
  C    10.679666  0.569904  2.693104
  C    10.690468  4.567804  2.732553
  N    12.886437  1.135778  2.627047
  N    12.987914  5.109511  2.565792
  N    10.847605  0.292252  1.391042
  N    10.897606  4.263887  1.457845
  N    10.008738  0.920885  5.198514
  N    10.129493  4.851579  5.157090
  S     9.241763  0.581518  3.731114
  S     9.313508  4.436077  3.802803
  S    12.420122  0.699579  1.094988
  S    12.455245  4.463534  1.098041
  S    11.572370  1.654527  5.073041
  S    11.714698  5.306099  5.014397
