16  
    
  C    12.546105  1.630264  3.338247
  C    12.855770  5.440039  3.633361
  C    11.302415  1.004640  2.776772
  C    11.767740  4.958128  2.805646
  N    13.489203  1.945203  2.461032
  N    13.952765  5.756748  3.015479
  N    11.448484  0.759519  1.488451
  N    12.068016  4.846859  1.527006
  N    10.874324  1.119756  5.337395
  N    10.829442  5.057667  5.296646
  S    10.139055  0.501419  3.962921
  S    10.311840  4.579359  3.700386
  S    12.997334  1.303948  1.027538
  S    13.606841  5.453262  1.390654
  S    12.391961  1.737326  5.041390
  S    12.450170  5.616062  5.338228
