16  
    
  C     7.212032 -1.638960  2.228791
  C     7.520193  2.271780  2.204427
  C     6.043115 -2.180597  1.618836
  C     6.292575  1.785387  1.600543
  N     8.322687 -1.543768  1.449180
  N     8.544744  2.334498  1.367724
  N     6.220151 -2.391026  0.293019
  N     6.372008  1.365206  0.348503
  N     5.398736 -1.495922  4.071880
  N     5.733245  2.131869  4.134562
  S     4.701543 -2.226016  2.722066
  S     4.971525  1.655477  2.685348
  S     7.774876 -1.931567 -0.060650
  S     7.991940  1.784699 -0.118073
  S     7.040576 -1.379652  3.968876
  S     7.313112  2.669250  3.907940
