16  
    
  C     7.300782 -1.642460  2.235927
  C     7.445266  2.395511  2.136536
  C     6.091906 -2.123450  1.544043
  C     6.160025  1.988051  1.579095
  N     8.364142 -1.542411  1.457421
  N     8.463031  2.474111  1.279896
  N     6.208844 -2.171855  0.239018
  N     6.197931  1.727675  0.277217
  N     5.521341 -2.046998  4.016702
  N     5.710893  2.277057  4.096443
  S     4.699986 -2.265939  2.606468
  S     4.968989  1.653441  2.764400
  S     7.807170 -1.836653 -0.058938
  S     7.826579  2.001850 -0.232590
  S     7.175582 -1.600014  3.936994
  S     7.363367  2.582942  3.884733
