16  
    
  C    10.926513  0.611985  3.247306
  C    11.074137  4.300617  3.287040
  C     9.826313  0.019112  2.471122
  C     9.798886  3.869305  2.736076
  N    12.009639  0.942163  2.550236
  N    12.059688  4.557556  2.428026
  N     9.996878  0.079107  1.152537
  N     9.901401  3.709311  1.411155
  N     9.079083  0.185768  5.018423
  N     9.506334  3.930767  5.306687
  S     8.450904 -0.271646  3.534658
  S     8.620041  3.491039  3.949227
  S    11.592293  0.705548  0.943494
  S    11.464421  4.217416  0.972693
  S    10.710416  0.586154  4.993202
  S    11.097829  4.348905  5.053624
