16  
    
  C    11.093180  0.470095  3.150254
  C    11.126912  4.276197  3.006087
  C     9.880962  0.020402  2.492822
  C     9.979825  3.713443  2.370365
  N    12.051995  0.806487  2.295474
  N    12.140147  4.495084  2.199468
  N     9.975295 -0.256996  1.185161
  N    10.066587  3.545998  1.040540
  N     9.316639  0.311112  4.999809
  N     9.212595  4.133933  4.769682
  S     8.591759 -0.190534  3.592282
  S     8.583781  3.393038  3.426633
  S    11.452966  0.414118  0.772700
  S    11.614497  3.991719  0.639473
  S    10.931745  0.675760  4.924303
  S    10.840252  4.508791  4.727943
