16  
    
  C    12.660801  1.651143  3.727542
  C    12.277570  4.956940  3.414865
  C    11.436686  1.316417  3.109946
  C    11.116220  4.463475  2.713923
  N    13.769725  1.573615  2.994116
  N    13.309342  5.205555  2.696518
  N    11.557316  1.199521  1.798195
  N    11.340768  4.308125  1.404078
  N    10.899041  1.496081  5.580159
  N    10.456003  4.859930  5.201964
  S    10.031013  1.320373  4.210046
  S     9.790244  4.253077  3.771475
  S    13.138688  1.348372  1.413161
  S    12.988710  4.797875  1.171024
  S    12.487498  1.803502  5.456193
  S    12.134100  5.097911  5.144658
