16  
    
  C     9.910807 -0.176528  2.876893
  C    10.137997  3.631889  2.726409
  C     8.744475 -0.631196  2.196425
  C     8.804313  3.278598  2.262732
  N    10.996951  0.014621  2.139799
  N    11.104063  3.825448  1.837620
  N     8.933382 -0.703316  0.885041
  N     8.858315  3.243322  0.930134
  N     8.199945 -0.699056  4.737217
  N     8.641929  3.396913  4.802332
  S     7.378608 -0.798373  3.309331
  S     7.617058  3.159141  3.554478
  S    10.512905 -0.285024  0.612530
  S    10.353144  3.504097  0.372704
  S     9.741839 -0.189538  4.543558
  S    10.172991  3.804130  4.433341
