16  
    
  C     9.053348 -0.491988  2.426729
  C     9.637733  3.339883  2.759655
  C     7.889240 -0.947239  1.715836
  C     8.318312  2.968370  2.208731
  N    10.184653 -0.370522  1.654430
  N    10.629693  3.345970  1.840898
  N     8.184289 -1.253484  0.430701
  N     8.338479  2.694228  0.885502
  N     6.963595 -0.212126  3.914539
  N     7.781276  3.437658  4.656939
  S     6.408378 -1.089352  2.655226
  S     6.944231  3.280508  3.256161
  S     9.724528 -0.840438  0.112031
  S     9.880459  2.953492  0.415240
  S     8.612663 -0.022385  4.068594
  S     9.381699  3.722711  4.396035
