16  
    
  C    12.745232  1.456095  3.720987
  C    12.338192  5.025641  3.458829
  C    11.507233  1.296541  3.003594
  C    11.186130  4.447255  2.726516
  N    13.792204  1.556170  2.926092
  N    13.453506  5.205788  2.693095
  N    11.572826  1.201272  1.681261
  N    11.420493  4.312181  1.456474
  N    10.917738  1.863476  5.453479
  N    10.422890  4.519067  5.119827
  S    10.135822  1.378383  4.063739
  S     9.764375  4.200939  3.691169
  S    13.179050  1.346484  1.322784
  S    12.962559  4.795389  1.123849
  S    12.601528  1.879043  5.429501
  S    11.951762  5.118064  5.148734
