16  
    
  C     3.417778 -3.085893  1.017300
  C     3.846613  0.707873  1.419719
  C     2.202658 -3.496692  0.435423
  C     2.629127  0.319821  0.767169
  N     4.493802 -3.058785  0.196198
  N     4.907977  0.835510  0.601656
  N     2.339137 -3.757433 -0.871134
  N     2.753169  0.087499 -0.538069
  N     1.747543 -3.053883  2.903081
  N     2.070693  0.389917  3.306085
  S     0.982322 -3.794040  1.597991
  S     1.279547  0.010416  1.863187
  S     3.865677 -3.336192 -1.278011
  S     4.326936  0.484920 -0.920837
  S     3.362531 -2.689108  2.680046
  S     3.571274  0.973982  3.133653
