16  
    
  C     8.901731 -0.268390  2.558965
  C     8.569714  3.302061  2.499555
  C     7.711838 -0.746113  1.906336
  C     7.358096  2.787362  1.943595
  N     9.939308 -0.084205  1.764871
  N     9.520693  3.725078  1.654896
  N     7.770954 -0.706546  0.608875
  N     7.393974  2.802791  0.620333
  N     7.209386 -0.717037  4.426886
  N     6.930139  2.701518  4.464257
  S     6.375588 -0.897172  3.009877
  S     6.107020  2.168939  3.078603
  S     9.327877 -0.244720  0.247028
  S     8.897362  3.357778  0.174184
  S     8.752916 -0.160952  4.208463
  S     8.467003  3.342477  4.243543
