16  
    
  C    10.443613  0.623682  3.037899
  C    10.604964  4.427445  2.848401
  C     9.258318 -0.009997  2.446907
  C     9.341167  4.025216  2.240904
  N    11.407993  0.843000  2.180602
  N    11.620440  4.598212  2.032749
  N     9.308704 -0.151288  1.143202
  N     9.443946  3.803046  0.914417
  N     8.750032  0.447986  4.974108
  N     8.907830  4.542896  4.740456
  S     8.027796 -0.253892  3.654378
  S     8.125403  3.712439  3.508382
  S    10.833723  0.409077  0.686377
  S    11.022669  4.127017  0.512163
  S    10.296325  0.976351  4.713829
  S    10.541108  4.840896  4.444822
