16  
    
  C     8.665391 -0.969194  2.351411
  C     8.335447  3.149061  2.191333
  C     7.527268 -1.645446  1.741871
  C     7.148403  2.498189  1.572258
  N     9.629602 -0.680651  1.473160
  N     9.256511  3.402739  1.289657
  N     7.646528 -1.829574  0.413843
  N     7.267869  2.205423  0.266438
  N     6.941166 -1.450731  4.244883
  N     6.707362  2.804132  4.056270
  S     6.223023 -1.910845  2.852935
  S     5.945985  2.204777  2.741518
  S     9.120181 -1.171952 -0.039704
  S     8.749030  2.784685 -0.177236
  S     8.550478 -0.894766  4.129984
  S     8.282626  3.366646  3.963784
