16  
    
  C     7.552459 -1.216962  1.895820
  C     7.725692  2.827716  2.146005
  C     6.287880 -1.638236  1.299697
  C     6.491157  2.206406  1.612269
  N     8.508503 -1.050490  1.021311
  N     8.699053  3.042749  1.286114
  N     6.287398 -1.583260 -0.009712
  N     6.528756  1.965260  0.300109
  N     5.793087 -1.225788  3.862065
  N     6.043396  2.680956  4.035666
  S     5.018617 -1.784232  2.526751
  S     5.148562  2.183059  2.701388
  S     7.867853 -1.225194 -0.516658
  S     8.148600  2.456693 -0.142242
  S     7.388011 -0.937549  3.636954
  S     7.560215  3.266467  3.835729
