16  
    
  C     5.162301 -2.385179  1.595372
  C     4.941703  1.538591  2.087664
  C     3.956622 -2.958213  1.004022
  C     3.834931  0.887707  1.387391
  N     6.098649 -2.239787  0.688201
  N     5.989494  1.659011  1.305185
  N     4.090469 -3.340411 -0.262874
  N     3.981689  0.669366  0.078809
  N     3.379844 -2.416429  3.457831
  N     3.034398  1.311046  3.793006
  S     2.579825 -2.964980  2.100986
  S     2.420101  0.771560  2.321652
  S     5.644461 -2.964307 -0.698457
  S     5.560809  1.110451 -0.211157
  S     4.929302 -1.826292  3.256121
  S     4.607660  2.087904  3.730474
