16  
    
  C    10.370870  0.417310  2.995414
  C    10.804202  4.386878  2.973991
  C     9.144512 -0.019112  2.357055
  C     9.566691  4.205317  2.259997
  N    11.253760  0.903558  2.113962
  N    11.824375  4.651701  2.146908
  N     9.120253  0.003491  1.029845
  N     9.583987  4.337549  0.951758
  N     8.677302 -0.200725  4.872282
  N     9.023546  3.636719  4.706439
  S     7.952545 -0.590272  3.424916
  S     8.194448  3.866925  3.293328
  S    10.589184  0.694925  0.579187
  S    11.124225  4.681770  0.548241
  S    10.147574  0.537180  4.724796
  S    10.591112  4.220289  4.687673
