16  
    
  C     7.117582 -1.711720  1.632423
  C     6.873372  2.083308  1.916308
  C     5.853255 -2.116266  1.001022
  C     5.666096  1.559723  1.301967
  N     8.142616 -1.509216  0.797596
  N     7.833484  2.302965  1.020277
  N     6.005420 -2.379507 -0.283787
  N     5.660041  1.551907 -0.031980
  N     5.371964 -1.767334  3.526687
  N     5.226051  1.636341  3.826786
  S     4.596052 -2.352441  2.208200
  S     4.417158  1.208759  2.464731
  S     7.604442 -2.020913 -0.709516
  S     7.219602  2.079780 -0.487896
  S     7.002296 -1.452788  3.381000
  S     6.785657  2.214945  3.675457
