16  
    
  C     8.981464 -0.407834  2.494183
  C     9.329041  3.575751  2.820762
  C     7.716172 -0.750085  1.901059
  C     8.117336  3.120844  2.128401
  N     9.976325 -0.115897  1.680879
  N    10.397339  3.523215  2.038526
  N     7.829787 -0.933791  0.583355
  N     8.242504  2.841564  0.821125
  N     7.419586 -0.864599  4.489229
  N     7.607374  3.452657  4.695462
  S     6.541498 -1.138823  3.094626
  S     6.814498  3.088077  3.273880
  S     9.427012 -0.518674  0.166339
  S     9.884791  3.200213  0.509937
  S     9.017325 -0.386615  4.250412
  S     9.205308  3.900927  4.565712
