16  
    
  C     7.268526 -1.709114  2.270245
  C     7.479505  2.255109  2.226349
  C     6.031451 -2.062124  1.578650
  C     6.297898  1.726092  1.606145
  N     8.319405 -1.564703  1.499897
  N     8.504454  2.357537  1.388630
  N     6.181153 -2.330427  0.297488
  N     6.434226  1.346224  0.327735
  N     5.388222 -1.588424  4.034059
  N     5.729389  2.114025  4.114531
  S     4.707192 -2.259338  2.703431
  S     4.984771  1.707273  2.716206
  S     7.769390 -1.941785 -0.008497
  S     7.949094  1.829607 -0.147774
  S     7.071433 -1.418273  3.927235
  S     7.316417  2.664716  3.901237
