16  
    
  C    10.997583  0.502347  3.233086
  C    11.052443  4.287917  3.371343
  C     9.835206  0.035277  2.516436
  C     9.832123  3.729785  2.799376
  N    11.958775  0.978563  2.433918
  N    12.059077  4.581714  2.506499
  N    10.027910 -0.057522  1.208251
  N     9.881133  3.767875  1.481986
  N     9.139034  0.150633  4.945022
  N     9.330555  4.009349  5.304733
  S     8.415755 -0.161932  3.470632
  S     8.576687  3.502258  3.927664
  S    11.456251  0.714883  0.855949
  S    11.407258  4.218690  1.011978
  S    10.720045  0.619614  4.911071
  S    10.888910  4.543168  5.111984
