16  
    
  C    12.544979  1.575219  3.528949
  C    12.363609  5.218083  3.488349
  C    11.338508  1.044021  3.016005
  C    11.111222  4.791669  2.876066
  N    13.571902  1.790689  2.690977
  N    13.332515  5.410109  2.546292
  N    11.404644  0.876571  1.691787
  N    11.147080  4.524200  1.574897
  N    10.821443  1.368715  5.497011
  N    10.663719  4.895358  5.423459
  S    10.031384  0.748262  4.109447
  S     9.873833  4.644717  3.962192
  S    12.863777  1.385839  1.173912
  S    12.741168  4.902001  1.089235
  S    12.464969  1.769889  5.266672
  S    12.230975  5.492875  5.234422
