16  
    
  C    10.072345 -0.200837  2.905280
  C    10.323278  3.800425  3.141703
  C     8.825262 -0.321079  2.136326
  C     9.088606  3.922477  2.437299
  N    11.145438  0.101014  2.160470
  N    11.384446  3.566652  2.373106
  N     9.045820 -0.337417  0.813809
  N     9.258947  3.934476  1.113641
  N     8.224257 -0.494825  4.650264
  N     8.485058  3.677493  4.969949
  S     7.470725 -0.673620  3.171598
  S     7.682595  3.917237  3.533967
  S    10.681832  0.004346  0.562169
  S    10.817367  3.702354  0.820984
  S     9.886201 -0.331653  4.615617
  S    10.177634  3.689413  4.796417
