16  
    
  C     3.868179 -2.776949  1.415731
  C     4.115808  1.249255  1.506195
  C     2.738889 -3.425810  0.812144
  C     2.871517  0.755579  0.922289
  N     4.941091 -2.699180  0.685065
  N     5.127914  1.304521  0.642385
  N     2.954689 -3.855931 -0.405873
  N     2.929376  0.527247 -0.381791
  N     2.053060 -2.775328  3.210532
  N     2.331885  1.141101  3.436690
  S     1.390249 -3.505936  1.850817
  S     1.527235  0.570916  2.081864
  S     4.470153 -3.312970 -0.810898
  S     4.461093  0.881938 -0.841664
  S     3.705960 -2.435231  3.096150
  S     4.044233  1.422950  3.207192
