16  
    
  C    12.554684  1.646606  3.778559
  C    12.454807  5.020978  3.457416
  C    11.385354  1.154453  3.144877
  C    11.188279  4.616578  2.803620
  N    13.612838  1.744202  3.004612
  N    13.409930  5.120761  2.581244
  N    11.423601  0.981427  1.843294
  N    11.232958  4.493773  1.492361
  N    10.908965  1.164940  5.603319
  N    10.529454  5.004152  5.280148
  S    10.054515  1.123115  4.238494
  S     9.841146  4.444436  3.854172
  S    12.971300  1.346291  1.451908
  S    12.813019  4.779182  1.054052
  S    12.422504  1.746612  5.487107
  S    12.202736  5.244303  5.195019
