16  
    
  C     4.730306 -2.042034  1.650622
  C     4.400751  1.439458  1.405062
  C     3.388641 -2.163469  1.079201
  C     3.175662  1.039003  0.750731
  N     5.725901 -2.056067  0.793239
  N     5.420925  1.705683  0.587494
  N     3.400127 -2.369611 -0.216804
  N     3.295277  0.819547 -0.557850
  N     3.025507 -1.805907  3.598668
  N     2.713811  0.743099  3.238505
  S     2.121651 -2.169163  2.290392
  S     1.874699  0.686381  1.801481
  S     5.020680 -2.306729 -0.713130
  S     4.854408  1.325025 -0.931233
  S     4.682139 -1.787537  3.386104
  S     4.203741  1.477140  3.151131
