16  
    
  C    10.278924  0.077175  2.757126
  C    10.276468  4.097359  3.103198
  C     9.130061 -0.476997  2.150958
  C     8.994904  3.811392  2.526254
  N    11.340632  0.074747  1.932126
  N    11.269692  4.060985  2.202046
  N     9.215074 -0.748539  0.811366
  N     8.999984  3.426454  1.256605
  N     8.539508  0.158995  4.572250
  N     8.584649  4.406371  4.990054
  S     7.800574 -0.555287  3.277820
  S     7.751675  3.917929  3.689816
  S    10.814922 -0.480926  0.494948
  S    10.551469  3.573648  0.751590
  S    10.219201  0.358958  4.522074
  S    10.207040  4.515277  4.849914
