16  
    
  C     4.718032 -2.285475  1.612722
  C     4.937493  1.308886  1.872998
  C     3.569422 -2.846439  0.907079
  C     3.603628  1.248503  1.295102
  N     5.725312 -1.931183  0.847627
  N     5.957215  1.449651  1.027560
  N     3.678933 -2.839994 -0.384967
  N     3.688228  1.193233 -0.056936
  N     2.850783 -2.702996  3.404057
  N     3.268702  1.631990  3.894862
  S     2.225624 -3.192303  1.907513
  S     2.335843  1.412549  2.514984
  S     5.235841 -2.316520 -0.741320
  S     5.283387  1.268511 -0.470191
  S     4.346234 -1.973780  3.295290
  S     4.995715  1.476310  3.630742
