16  
    
  C     6.110278 -2.086740  1.739439
  C     6.174598  1.890435  1.809685
  C     4.858280 -2.304742  1.072310
  C     4.913432  1.846769  1.161585
  N     7.162391 -2.072153  0.920333
  N     7.225770  1.763255  0.994979
  N     4.912077 -2.631092 -0.207845
  N     5.015973  1.685406 -0.168085
  N     4.328214 -2.078827  3.574962
  N     4.385108  1.739382  3.693372
  S     3.537298 -2.516594  2.174368
  S     3.597805  1.996685  2.253801
  S     6.568309 -2.495673 -0.608199
  S     6.601526  1.600448 -0.497879
  S     5.915333 -1.702584  3.409558
  S     6.057582  1.855246  3.585715
