16  
    
  C     5.658050 -2.025369  1.733358
  C     5.204999  1.452933  1.699097
  C     4.433462 -2.457343  1.173268
  C     4.030641  0.742776  1.170313
  N     6.642051 -1.896901  0.818865
  N     6.138193  1.888315  0.846498
  N     4.540781 -2.777684 -0.144445
  N     4.117213  0.584808 -0.130825
  N     4.077661 -2.369825  3.767037
  N     3.551612  1.092878  3.650971
  S     3.202991 -2.696671  2.342606
  S     2.743494  0.604516  2.299528
  S     6.081057 -2.405998 -0.604043
  S     5.548547  1.353241 -0.633943
  S     5.616517 -1.825307  3.399777
  S     5.181324  1.491521  3.397651
