16  
    
  C    11.285956  1.041161  3.317541
  C    11.645577  4.571276  2.888292
  C     9.974764  0.651473  2.814157
  C    10.404663  4.205944  2.219673
  N    12.301244  1.055823  2.455481
  N    12.579575  4.874262  2.018352
  N    10.043167  0.431498  1.504269
  N    10.471434  4.099855  0.856721
  N     9.596705  0.941524  5.230426
  N     9.863009  4.537753  4.770713
  S     8.706296  0.431860  3.901123
  S     9.127104  3.965213  3.393884
  S    11.560863  0.688645  0.966847
  S    12.025472  4.528869  0.428796
  S    11.247349  1.142403  5.046635
  S    11.493398  4.801953  4.605737
