16  
    
  C    10.377678  0.434559  2.979382
  C    10.764063  4.517533  2.939996
  C     9.182628 -0.025946  2.381208
  C     9.511275  4.216754  2.305339
  N    11.247025  0.928843  2.122001
  N    11.811841  4.688681  2.147892
  N     9.187662  0.015685  1.071536
  N     9.561892  4.301810  0.978524
  N     8.673847 -0.144208  4.888993
  N     9.047985  3.665081  4.726246
  S     7.945771 -0.594008  3.453790
  S     8.173111  3.880958  3.348922
  S    10.601789  0.661222  0.589656
  S    11.128722  4.648215  0.546897
  S    10.153973  0.547161  4.699949
  S    10.612074  4.203118  4.621390
