16  
    
  C     7.139570 -1.643205  1.995707
  C     7.059663  2.080346  1.982250
  C     5.955865 -2.000354  1.228114
  C     5.840301  1.721088  1.316382
  N     8.194315 -1.365595  1.225430
  N     8.082554  2.335702  1.165613
  N     6.149024 -2.179424 -0.100849
  N     5.946542  1.648571  0.004439
  N     5.232426 -1.766938  3.716297
  N     5.221052  1.758242  3.816347
  S     4.545126 -2.132883  2.279035
  S     4.474148  1.512981  2.369946
  S     7.771107 -1.821992 -0.324826
  S     7.549509  1.980718 -0.383281
  S     6.862042 -1.338581  3.649639
  S     6.831448  2.163832  3.748225
