16  
    
  C    12.534128  1.478934  3.339555
  C    12.876953  5.461801  3.631444
  C    11.351849  0.915059  2.733312
  C    11.806300  4.864902  2.815965
  N    13.468096  1.884999  2.477069
  N    13.961464  5.824537  2.906835
  N    11.423602  0.780266  1.410642
  N    12.043468  4.803248  1.499133
  N    10.880154  0.995971  5.272131
  N    10.872358  4.897300  5.210454
  S    10.096575  0.613859  3.823731
  S    10.317460  4.669625  3.660039
  S    12.843414  1.548498  0.964375
  S    13.563792  5.393903  1.263123
  S    12.423691  1.728938  5.116696
  S    12.376766  5.552492  5.304593
