16  
    
  C    11.319727  0.994579  3.029645
  C    11.320042  4.609600  3.386307
  C    10.202963  0.355534  2.434711
  C    10.152720  3.939912  2.834409
  N    12.409213  1.064963  2.249834
  N    12.316792  4.916410  2.538085
  N    10.336390  0.051208  1.114072
  N    10.379053  3.565455  1.580979
  N     9.637829  0.820954  4.874466
  N     9.468835  4.522879  5.262957
  S     8.907964  0.160189  3.563074
  S     8.814954  3.777906  3.933452
  S    11.895197  0.561798  0.804383
  S    11.807598  4.249941  1.064266
  S    11.193469  1.252672  4.675926
  S    11.012921  5.144993  5.057053
