16  
    
  C     5.790065 -2.134696  1.874315
  C     6.114987  1.630763  2.028954
  C     4.587900 -2.666611  1.222776
  C     4.780389  1.622802  1.442031
  N     6.857267 -1.929396  1.106742
  N     7.043315  1.423902  1.096229
  N     4.686850 -2.679343 -0.093706
  N     4.770463  1.376497  0.122084
  N     3.982598 -2.330769  3.656194
  N     4.477144  2.115412  3.971681
  S     3.212007 -2.854211  2.319189
  S     3.511976  1.924369  2.637334
  S     6.326492 -2.292784 -0.471440
  S     6.297584  1.193003 -0.332360
  S     5.586887 -1.965501  3.609347
  S     6.104284  2.144231  3.703022
