16  
    
  C    12.674176  1.705858  3.573127
  C    12.847033  5.520210  3.723374
  C    11.504907  1.133705  2.966308
  C    11.732601  4.838143  3.133669
  N    13.764977  1.699880  2.850311
  N    13.852319  5.742390  2.890443
  N    11.712916  0.806463  1.711458
  N    11.920642  4.560423  1.826201
  N    10.832603  1.591754  5.372388
  N    11.174421  5.284177  5.628919
  S    10.119206  0.993808  3.993588
  S    10.336080  4.753785  4.284593
  S    13.325303  1.095820  1.383563
  S    13.415575  5.209857  1.432814
  S    12.461727  1.967089  5.281572
  S    12.679561  5.831971  5.406781
