16  
    
  C     8.443741 -1.025662  2.491492
  C     8.266929  2.322099  2.101620
  C     7.186626 -1.192326  1.779817
  C     7.180990  1.809405  1.338429
  N     9.526293 -0.849169  1.683314
  N     9.378482  2.633096  1.409888
  N     7.373335 -1.339947  0.451859
  N     7.453061  1.795823  0.030224
  N     6.521091 -0.899252  4.148676
  N     6.199892  2.262799  3.711262
  S     5.730658 -0.967710  2.669147
  S     5.677024  1.667571  2.231640
  S     8.962538 -1.118749  0.147338
  S     8.945979  2.340181 -0.201482
  S     8.196672 -0.685763  4.120173
  S     7.872352  2.492139  3.734513
