16  
    
  C     4.112283 -2.918880  1.569337
  C     4.129313  1.261609  1.516015
  C     2.906118 -3.367904  0.947154
  C     2.876077  0.914560  0.914450
  N     5.151969 -2.853763  0.728264
  N     5.132417  1.250437  0.650892
  N     3.012157 -3.492367 -0.364589
  N     2.853439  0.821542 -0.428198
  N     2.094443 -2.669422  3.279348
  N     2.453735  1.300280  3.496419
  S     1.470520 -3.437925  1.948286
  S     1.623568  0.830472  2.142011
  S     4.554629 -3.300509 -0.780805
  S     4.518890  0.998253 -0.826852
  S     3.705841 -2.329703  3.257054
  S     4.035466  1.584405  3.246188
