16  
    
  C     4.925827 -2.472508  1.614049
  C     4.873571  1.672221  1.972630
  C     3.697470 -2.916334  1.009903
  C     3.756514  1.052969  1.335334
  N     5.936526 -2.407903  0.767347
  N     5.937990  1.887558  1.219387
  N     3.866415 -3.349949 -0.225041
  N     3.944099  0.832288  0.028566
  N     3.189690 -2.384106  3.454808
  N     3.100629  1.197618  3.887698
  S     2.344753 -2.836155  2.061297
  S     2.429661  0.717204  2.458927
  S     5.422666 -2.965292 -0.669679
  S     5.494223  1.314459 -0.291166
  S     4.804236 -2.032553  3.301980
  S     4.746847  1.585180  3.744394
