16  
    
  C     8.809619 -0.968745  2.387493
  C     8.521529  3.240218  2.534469
  C     7.578207 -1.230109  1.674330
  C     7.340434  2.633713  1.971244
  N     9.929340 -0.848452  1.617261
  N     9.515433  3.519626  1.677263
  N     7.757499 -1.355203  0.332692
  N     7.433452  2.515893  0.659110
  N     6.866515 -0.796566  4.134009
  N     6.805526  2.845513  4.404139
  S     6.222462 -1.403427  2.720738
  S     6.066270  2.194671  3.062089
  S     9.371822 -1.132034  0.051148
  S     8.911500  3.061428  0.118427
  S     8.508215 -0.646058  4.073229
  S     8.295300  3.483836  4.207058
