16  
    
  C    10.041582 -0.185832  2.785643
  C    10.073278  3.898329  2.723305
  C     8.813367 -0.476316  2.165883
  C     9.011786  2.987991  2.279447
  N    11.058808  0.043172  1.915889
  N    10.938298  4.157531  1.733739
  N     8.837614 -0.595776  0.806843
  N     8.993248  2.638435  1.008583
  N     8.246030 -0.281557  4.659403
  N     8.482692  3.493037  4.701483
  S     7.507064 -0.761128  3.245501
  S     7.807854  2.674502  3.447152
  S    10.406562 -0.283209  0.425487
  S    10.367668  3.346978  0.357651
  S     9.855968 -0.123326  4.502609
  S     9.959566  4.225121  4.463173
