16  
    
  C     8.936293 -0.366294  2.567948
  C     8.836521  3.337095  2.618662
  C     7.702149 -0.729776  1.929855
  C     7.632292  2.889801  2.050976
  N     9.958111 -0.082066  1.743917
  N     9.780356  3.745737  1.750805
  N     7.819106 -0.839007  0.578895
  N     7.605405  2.919083  0.716814
  N     7.237157 -0.567086  4.450920
  N     7.225641  2.986730  4.608139
  S     6.425912 -1.043224  3.029858
  S     6.308851  2.716775  3.239666
  S     9.388642 -0.372990  0.239216
  S     9.130347  3.443335  0.264665
  S     8.913739 -0.300626  4.263334
  S     8.816986  3.406654  4.326753
