16  
    
  C    10.193731  0.561678  2.660121
  C    10.760334  4.289290  2.840772
  C     8.980384  0.045635  2.015375
  C     9.479982  3.927271  2.281271
  N    11.196625  0.735218  1.812432
  N    11.726905  4.237878  1.902889
  N     9.129809 -0.253136  0.740770
  N     9.437851  3.666077  0.985338
  N     8.331693  0.488175  4.457340
  N     8.965157  4.179159  4.748008
  S     7.754143 -0.376067  3.157596
  S     8.146134  3.651608  3.383015
  S    10.666774  0.078558  0.397708
  S    10.996318  3.854622  0.473959
  S     9.955131  0.831631  4.379126
  S    10.556692  4.666985  4.544210
