16  
    
  C     9.836923 -0.236827  2.836763
  C     9.683737  3.984762  2.734493
  C     8.687398 -0.606540  2.097590
  C     8.481685  3.568789  2.092508
  N    10.921258  0.066871  2.061522
  N    10.782660  3.996044  1.968972
  N     8.935614 -0.765523  0.780962
  N     8.656874  3.458174  0.781355
  N     7.882235 -0.287770  4.491340
  N     7.789158  3.579458  4.533109
  S     7.293046 -0.930242  3.088674
  S     7.097249  3.153376  3.086556
  S    10.509216 -0.374032  0.543765
  S    10.218903  3.621058  0.423180
  S     9.544896  0.022319  4.462109
  S     9.403264  4.027993  4.486225
