16  
    
  C     8.995659 -0.381359  2.562223
  C     9.224091  3.503619  2.816343
  C     7.755904 -0.789352  1.891991
  C     8.026690  3.133233  2.134503
  N     9.974564 -0.128855  1.671066
  N    10.282982  3.573756  2.026671
  N     7.810269 -0.911032  0.556292
  N     8.180916  2.983825  0.823837
  N     7.448247 -0.899065  4.419401
  N     7.538710  3.418057  4.677331
  S     6.485737 -1.112544  3.071598
  S     6.786647  3.011711  3.295939
  S     9.369567 -0.471834  0.188561
  S     9.780250  3.197654  0.497218
  S     9.027139 -0.355652  4.281239
  S     9.117982  3.815730  4.508565
