16  
    
  C     9.755775 -0.174733  2.512583
  C     9.852143  3.566949  2.550829
  C     8.522184 -0.612902  2.021611
  C     8.588698  3.127614  1.967415
  N    10.675732  0.067493  1.531625
  N    10.755858  3.909350  1.657101
  N     8.440940 -0.678244  0.674228
  N     8.541365  3.137498  0.637346
  N     8.275565 -0.660678  4.553219
  N     8.216359  2.979416  4.507950
  S     7.296768 -0.983676  3.197674
  S     7.367119  2.695059  3.110631
  S     9.921487 -0.290446  0.085763
  S    10.024154  3.692669  0.170666
  S     9.815035 -0.108513  4.263853
  S     9.663565  3.634936  4.221591
