16  
    
  C     8.747852 -1.006943  2.324300
  C     8.324831  3.239725  2.198977
  C     7.534466 -1.532272  1.706157
  C     7.228205  2.526149  1.670778
  N     9.708134 -0.626110  1.474919
  N     9.274957  3.528771  1.341915
  N     7.705942 -1.804309  0.429718
  N     7.302033  2.283449  0.393487
  N     7.008411 -1.490443  4.323873
  N     6.730818  2.819405  4.184462
  S     6.184681 -1.893299  2.879505
  S     5.978754  2.220501  2.824686
  S     9.199161 -1.202413 -0.045487
  S     8.799695  2.823737 -0.141906
  S     8.543666 -0.872647  4.082761
  S     8.270693  3.393702  3.917805
