16  
    
  C     9.689386 -0.260748  2.485256
  C     9.751989  3.526699  2.575330
  C     8.419241 -0.573285  1.939652
  C     8.521836  3.129100  1.910343
  N    10.658108 -0.096452  1.600185
  N    10.689328  3.744489  1.658749
  N     8.473985 -0.832272  0.653689
  N     8.512810  3.216883  0.563851
  N     8.195295 -0.586514  4.540999
  N     8.119736  2.924363  4.455866
  S     7.298612 -1.039253  3.233988
  S     7.233491  2.747302  3.074461
  S    10.022985 -0.523712  0.143249
  S    10.054585  3.640907  0.162680
  S     9.772731 -0.222092  4.215205
  S     9.767567  3.379928  4.391557
