16  
    
  C     5.744066 -1.995328  1.654050
  C     5.213275  1.454789  1.718281
  C     4.495018 -2.504107  1.132207
  C     4.048692  0.887303  1.146245
  N     6.782032 -2.005481  0.801138
  N     6.151301  1.662691  0.797539
  N     4.502997 -2.779764 -0.195545
  N     4.117318  0.573887 -0.142154
  N     4.192980 -2.332498  3.633412
  N     3.595481  1.187742  3.660405
  S     3.234881 -2.661347  2.375170
  S     2.762565  0.629024  2.304281
  S     6.058109 -2.393932 -0.705920
  S     5.557251  1.167749 -0.649856
  S     5.730979 -1.831733  3.397818
  S     5.176266  1.523248  3.463220
