16  
    
  C     9.646765  0.005097  2.875003
  C     9.754960  3.591272  2.726135
  C     8.548493 -0.593608  2.237561
  C     8.435679  3.376208  2.105962
  N    10.649439  0.323901  2.039736
  N    10.758758  3.816444  1.864763
  N     8.677978 -0.709689  0.890456
  N     8.552800  3.407818  0.783509
  N     7.892716 -0.256715  4.691469
  N     8.053596  3.220649  4.649592
  S     7.235064 -0.974664  3.361716
  S     7.097120  3.036217  3.252642
  S    10.194506 -0.177530  0.552327
  S    10.108736  3.674083  0.371623
  S     9.528493  0.046484  4.569674
  S     9.718347  3.410270  4.448588
