16  
    
  C    10.230823  0.475570  2.913153
  C    10.770632  4.268194  2.926190
  C     9.005917  0.030355  2.305065
  C     9.550152  4.053787  2.179321
  N    11.142029  0.991123  2.126503
  N    11.877327  4.489196  2.215245
  N     9.089914  0.033670  0.992381
  N     9.703296  4.345307  0.881306
  N     8.595344 -0.096344  4.845897
  N     8.955266  3.734127  4.673230
  S     7.829152 -0.640756  3.448811
  S     8.170825  3.745447  3.220785
  S    10.596893  0.698610  0.570739
  S    11.280335  4.732252  0.615700
  S    10.169224  0.412366  4.610881
  S    10.514903  4.271302  4.586906
