16  
    
  C     7.817672 -0.888024  1.799124
  C     7.889101  2.930439  2.406778
  C     6.578739 -1.428031  1.281774
  C     6.747345  2.453171  1.661802
  N     8.875808 -0.897696  0.970031
  N     8.963526  3.137000  1.659275
  N     6.672875 -1.696528 -0.027021
  N     7.084169  2.191655  0.394903
  N     6.188055 -1.004384  3.693733
  N     5.941890  2.636547  4.123035
  S     5.302113 -1.489790  2.342575
  S     5.295897  2.157701  2.645619
  S     8.194617 -1.394355 -0.464584
  S     8.532552  2.741602  0.057003
  S     7.727118 -0.581226  3.464208
  S     7.475959  3.180446  4.070248
