16  
    
  C     5.879323 -2.172215  1.707609
  C     5.468609  1.177531  1.715728
  C     4.595076 -2.484200  1.164776
  C     4.238561  0.753645  1.138065
  N     6.889776 -2.030965  0.835578
  N     6.523197  1.103871  0.904553
  N     4.583534 -2.593439 -0.172180
  N     4.348131  0.565354 -0.182160
  N     4.317512 -2.322245  3.742964
  N     3.745806  1.231283  3.654765
  S     3.379604 -2.574150  2.390970
  S     2.937815  0.712204  2.269162
  S     6.171807 -2.285440 -0.675925
  S     5.928611  0.786588 -0.590382
  S     5.966705 -2.033770  3.452438
  S     5.334970  1.642186  3.434386
