16  
    
  C    12.125047  1.351215  3.406362
  C    12.161231  5.167295  3.800529
  C    10.967711  0.814057  2.726935
  C    10.927657  4.736567  3.212626
  N    13.083260  1.686118  2.584736
  N    13.133623  5.322509  2.935896
  N    11.113112  0.727115  1.409565
  N    10.859442  4.656537  1.875732
  N    10.336477  1.143740  5.208747
  N    10.610554  4.742388  5.779796
  S     9.599824  0.518501  3.831583
  S     9.644057  4.494701  4.404721
  S    12.663666  1.307049  1.052058
  S    12.457022  5.107065  1.414872
  S    11.851944  1.801095  5.097583
  S    12.221269  5.161200  5.521412
