16  
    
  C     7.364714 -1.600887  2.205709
  C     7.476817  2.380985  2.125681
  C     6.179144 -2.059243  1.512497
  C     6.217854  2.055282  1.527540
  N     8.358936 -1.326744  1.346172
  N     8.461943  2.541420  1.255387
  N     6.249607 -2.133955  0.165606
  N     6.348057  1.881507  0.209960
  N     5.588300 -2.078683  4.034080
  N     5.897660  2.056428  4.135439
  S     4.806604 -2.435776  2.550709
  S     4.984753  1.853944  2.729700
  S     7.765945 -1.611267 -0.208361
  S     7.802894  2.343449 -0.245620
  S     7.176031 -1.677804  3.918536
  S     7.418656  2.703688  3.839827
