16  
    
  C    12.586079  1.555982  3.455626
  C    12.893356  5.551889  3.680836
  C    11.464386  0.954986  2.835418
  C    11.691468  5.067594  2.934088
  N    13.577640  1.762634  2.612396
  N    14.003538  5.788153  3.007277
  N    11.526442  0.622382  1.572384
  N    11.991529  4.920695  1.624946
  N    10.821526  1.329243  5.301672
  N    10.879567  5.114213  5.430046
  S    10.175921  0.540313  3.972344
  S    10.363022  4.540627  3.912692
  S    13.080250  1.203071  1.142921
  S    13.576208  5.337922  1.395337
  S    12.387663  1.906783  5.151112
  S    12.478337  5.682847  5.385839
