16  
    
  C    10.291238  0.049554  2.790903
  C    10.219312  4.039113  3.114551
  C     9.003263 -0.331913  2.139059
  C     8.938596  3.626427  2.501486
  N    11.321957  0.085946  1.995408
  N    11.200939  4.045682  2.247279
  N     9.191823 -0.630162  0.878668
  N     8.955818  3.439869  1.168011
  N     8.556492  0.066580  4.642916
  N     8.612987  4.445845  5.011688
  S     7.739776 -0.621291  3.306399
  S     7.704430  3.946658  3.669913
  S    10.799413 -0.418050  0.485431
  S    10.643993  3.660323  0.779227
  S    10.235416  0.193416  4.526068
  S    10.275808  4.400580  4.806236
