16  
    
  C     7.098543 -1.540934  2.161883
  C     7.069507  2.130153  2.087909
  C     5.871691 -1.797714  1.419365
  C     5.902036  1.715754  1.324314
  N     8.166319 -1.287677  1.362981
  N     8.132321  2.264447  1.289158
  N     6.069771 -1.955603  0.112940
  N     6.120514  1.590915  0.011984
  N     5.164519 -1.638975  3.891699
  N     5.209833  1.933694  3.782001
  S     4.501949 -2.125148  2.417781
  S     4.462372  1.594854  2.326705
  S     7.696172 -1.619067 -0.183625
  S     7.683901  1.983082 -0.212398
  S     6.794867 -1.529675  3.925189
  S     6.777498  2.408743  3.804175
