16  
    
  C     7.189815 -1.331585  2.329151
  C     7.841278  2.772904  2.306054
  C     6.153576 -1.932602  1.544470
  C     6.624998  2.283755  1.675018
  N     8.255300 -0.955301  1.595854
  N     8.847405  3.073366  1.462404
  N     6.310085 -1.798010  0.211062
  N     6.717574  2.110998  0.352601
  N     5.294522 -1.813939  3.945005
  N     6.032628  2.475841  4.179155
  S     4.729258 -2.268269  2.446633
  S     5.258812  2.063964  2.719616
  S     7.817205 -1.165021  0.008263
  S     8.311544  2.600993 -0.026946
  S     6.825865 -1.243070  3.965991
  S     7.581738  3.063739  4.031412
