16  
    
  C    12.507862  1.613427  3.350961
  C    12.882928  5.432485  3.652305
  C    11.403189  0.929343  2.799156
  C    11.823820  4.915341  2.860213
  N    13.463804  1.894497  2.476185
  N    13.976830  5.779089  2.887177
  N    11.453059  0.797692  1.446510
  N    12.088405  4.812890  1.575364
  N    10.921715  1.042058  5.255466
  N    10.850003  4.975734  5.188335
  S    10.092343  0.553856  3.898454
  S    10.307336  4.636161  3.682182
  S    12.902642  1.411155  0.969016
  S    13.590673  5.447256  1.321953
  S    12.407790  1.729963  5.086062
  S    12.376478  5.569462  5.330352
