16  
    
  C    10.637785  0.846414  2.933653
  C    10.613225  4.435495  2.798032
  C     9.418447  0.185916  2.432790
  C     9.539559  3.584725  2.286804
  N    11.671389  0.922941  2.085219
  N    11.693180  4.664916  2.037459
  N     9.512377 -0.167100  1.153732
  N     9.866006  3.147560  1.093997
  N     8.901690  0.630576  4.907479
  N     8.825226  4.369244  4.649621
  S     8.051759  0.183885  3.533368
  S     8.146094  3.582850  3.347119
  S    11.097114  0.177386  0.684801
  S    11.298572  3.846801  0.594130
  S    10.444800  1.217286  4.618272
  S    10.312227  5.072438  4.372388
