16  
    
  C    11.857355  1.154333  3.407278
  C    11.900317  5.007805  3.384665
  C    10.670840  0.562850  2.719320
  C    10.669335  4.612911  2.746848
  N    12.954208  1.175254  2.614428
  N    12.969621  5.080497  2.552400
  N    10.872264  0.387998  1.403024
  N    10.899589  4.244813  1.490971
  N    10.026088  0.966564  5.194485
  N    10.074084  4.838148  5.177890
  S     9.259936  0.560621  3.760067
  S     9.311380  4.436788  3.769363
  S    12.464114  0.705291  1.096560
  S    12.465434  4.489106  1.112144
  S    11.559782  1.644010  4.999811
  S    11.685653  5.253802  5.058226
