16  
    
  C    10.446783  0.090035  2.701649
  C    10.293161  4.209890  3.117047
  C     9.218894 -0.549513  2.160680
  C     9.003128  3.844643  2.529985
  N    11.489300  0.035464  1.855392
  N    11.294382  4.053229  2.269790
  N     9.371421 -0.922074  0.902810
  N     9.036967  3.506648  1.239484
  N     8.481103  0.275151  4.469014
  N     8.673636  4.185590  5.059744
  S     7.774951 -0.418007  3.159228
  S     7.718691  3.935632  3.723722
  S    10.870564 -0.535693  0.417057
  S    10.638742  3.513538  0.858231
  S    10.120799  0.694621  4.331025
  S    10.222913  4.725298  4.755689
