16  
    
  C    12.760886  1.667881  3.392033
  C    12.646221  5.439397  3.208742
  C    11.490111  1.195402  2.748527
  C    11.393767  4.853367  2.730600
  N    13.644250  1.931788  2.452661
  N    13.588002  5.614793  2.298294
  N    11.496962  1.127908  1.427722
  N    11.378890  4.678688  1.419849
  N    11.064273  1.458547  5.274502
  N    11.070364  4.821388  5.205063
  S    10.237042  0.850396  3.924180
  S    10.214763  4.428501  3.904724
  S    13.044092  1.606127  0.969583
  S    12.829826  5.111226  0.856580
  S    12.716428  1.638807  5.142417
  S    12.561021  5.496550  5.000876
