16  
    
  C     9.408744 -0.508618  2.722893
  C     9.341408  3.276633  2.524248
  C     8.218651 -1.001731  2.138456
  C     8.094967  3.014280  1.927506
  N    10.469750 -0.474882  1.859123
  N    10.418356  3.298509  1.695225
  N     8.264652 -1.203366  0.796012
  N     8.202605  2.679552  0.641389
  N     7.706206 -0.670221  4.628443
  N     7.485986  3.375360  4.406605
  S     6.835394 -1.014101  3.202117
  S     6.709242  2.927329  2.982658
  S     9.842865 -0.944429  0.392407
  S     9.749124  2.847240  0.241195
  S     9.304461 -0.231913  4.421785
  S     9.124403  3.495432  4.275792
