16  
    
  C     7.105091 -1.558544  2.172878
  C     7.069362  2.145943  2.082051
  C     5.883760 -1.803986  1.417161
  C     5.917250  1.702291  1.339483
  N     8.142588 -1.284018  1.372484
  N     8.144026  2.278332  1.289951
  N     6.058730 -1.929802  0.119335
  N     6.124455  1.602613  0.008680
  N     5.172569 -1.638735  3.905918
  N     5.206232  1.937797  3.779208
  S     4.502243 -2.122238  2.438465
  S     4.466526  1.603167  2.331845
  S     7.690468 -1.606297 -0.170734
  S     7.685285  1.969907 -0.207430
  S     6.784619 -1.529921  3.930028
  S     6.766606  2.419515  3.811169
