16  
    
  C    12.552882  1.541302  3.740435
  C    12.354976  5.096778  3.379683
  C    11.356642  0.942539  3.057467
  C    11.086332  4.788353  2.841837
  N    13.512070  1.789085  2.864721
  N    13.396705  5.152086  2.614890
  N    11.408535  0.905297  1.725729
  N    11.186883  4.557878  1.513762
  N    10.819414  1.435863  5.607296
  N    10.659371  4.943101  5.405409
  S    10.034755  0.860780  4.249528
  S     9.788202  4.556648  3.995030
  S    12.922071  1.409875  1.292336
  S    12.813196  4.840269  1.099643
  S    12.452119  1.722626  5.450857
  S    12.273232  5.402603  5.069580
