16  
    
  C     6.148982 -1.586244  2.487326
  C     6.571064  2.171036  2.194838
  C     4.991595 -2.092450  1.799242
  C     5.401546  1.600888  1.613776
  N     7.113494 -1.242170  1.609585
  N     7.584174  2.416900  1.370871
  N     5.117088 -2.281670  0.478198
  N     5.480781  1.523002  0.302136
  N     4.438203 -2.188104  4.260951
  N     5.004073  1.623378  4.157142
  S     3.709929 -2.702118  2.845412
  S     4.104688  1.363946  2.798381
  S     6.607748 -1.667892  0.091802
  S     6.968527  2.059879 -0.136805
  S     5.930833 -1.548023  4.208652
  S     6.557230  2.255797  3.938609
