16  
    
  C    11.889356  1.262840  3.313959
  C    11.878331  4.828127  3.490459
  C    10.761067  0.706647  2.653607
  C    10.719045  4.412171  2.786512
  N    12.999053  1.240621  2.601621
  N    12.907826  4.985337  2.729878
  N    10.922659  0.473589  1.354742
  N    10.913404  4.246910  1.465219
  N     9.992510  1.227540  5.089270
  N     9.937731  4.842243  5.205580
  S     9.424176  0.435622  3.702806
  S     9.262823  4.396120  3.783387
  S    12.510422  0.797518  1.069980
  S    12.466473  4.615593  1.162783
  S    11.661688  1.609177  5.071142
  S    11.565850  5.111619  5.215967
