16  
    
  C     7.207720 -1.138736  2.164329
  C     7.786255  2.834143  2.218422
  C     6.090163 -1.750718  1.481954
  C     6.537404  2.357533  1.629793
  N     8.310273 -0.879883  1.404921
  N     8.811276  2.924574  1.389514
  N     6.322024 -1.806179  0.158438
  N     6.575275  2.089914  0.335803
  N     5.450639 -1.806531  3.964376
  N     6.057713  2.648017  4.129118
  S     4.693163 -2.015424  2.476624
  S     5.256998  2.006425  2.772224
  S     7.853841 -1.231977 -0.181574
  S     8.187796  2.522899 -0.079058
  S     6.975011 -1.230832  3.908038
  S     7.585595  3.152944  3.901844
