16  
    
  C    10.377671  0.414815  2.990765
  C    10.793175  4.422650  2.970543
  C     9.156058 -0.014454  2.364311
  C     9.559908  4.207858  2.272284
  N    11.248250  0.909826  2.118650
  N    11.824288  4.659695  2.151353
  N     9.136677  0.005407  1.043889
  N     9.578039  4.329117  0.960752
  N     8.676225 -0.188157  4.877232
  N     9.030168  3.642261  4.710799
  S     7.952930 -0.590842  3.431263
  S     8.188115  3.870632  3.307444
  S    10.591846  0.687100  0.580081
  S    11.123704  4.674114  0.544969
  S    10.146990  0.540115  4.717547
  S    10.595646  4.215177  4.669759
