16  
    
  C    11.977207  1.606418  3.530510
  C    12.088495  5.033954  3.829044
  C    10.901156  0.847118  2.850815
  C    10.812841  4.612546  3.282875
  N    12.886330  2.099377  2.692509
  N    12.908815  5.392851  2.857161
  N    11.106234  0.696991  1.531801
  N    10.764540  4.568530  1.912390
  N    10.393180  0.857768  5.392734
  N    10.558085  4.453645  5.781736
  S     9.699833  0.247024  4.007190
  S     9.652481  4.091792  4.419408
  S    12.518903  1.472373  1.156595
  S    12.149891  5.179885  1.411140
  S    11.882308  1.639992  5.287071
  S    12.136726  4.981375  5.564857
