16  
    
  C     9.009057 -0.553675  2.481873
  C     9.499522  3.487576  2.677074
  C     7.884296 -0.923164  1.658413
  C     8.254071  3.145524  2.091005
  N    10.155232 -0.414765  1.767001
  N    10.561345  3.408438  1.873672
  N     8.225059 -1.214327  0.364271
  N     8.284638  2.832926  0.768220
  N     7.068427 -0.523487  4.040281
  N     7.833544  3.773543  4.590925
  S     6.434576 -1.041358  2.616152
  S     6.996021  3.376116  3.237055
  S     9.827942 -0.887958  0.217757
  S     9.954815  2.887520  0.458999
  S     8.685528 -0.166005  4.104387
  S     9.476500  3.844262  4.435128
