16  
    
  C     4.637222 -2.549577  1.599983
  C     5.057715  1.254546  1.744074
  C     3.397575 -2.789816  0.894734
  C     3.781990  1.060006  1.132821
  N     5.696429 -2.655539  0.794083
  N     6.064392  1.530048  0.951182
  N     3.474262 -2.862508 -0.422111
  N     3.834761  1.226205 -0.190676
  N     2.836618 -2.545760  3.423158
  N     3.402458  0.906279  3.684953
  S     2.018731 -2.850085  1.966168
  S     2.551463  0.739419  2.328930
  S     5.097139 -2.865462 -0.719083
  S     5.467959  1.610033 -0.614611
  S     4.508490 -2.314179  3.329366
  S     4.955769  1.429577  3.520640
