16  
    
  C    10.215164  0.460642  2.856025
  C    10.798940  4.426198  2.841492
  C     9.053645 -0.125856  2.279237
  C     9.607934  4.055519  2.158678
  N    11.123806  0.931671  1.960355
  N    11.790728  4.717852  1.989362
  N     9.050433 -0.161496  0.938420
  N     9.708886  3.803606  0.849494
  N     8.508215  0.022297  4.773313
  N     8.905959  3.873255  4.624039
  S     7.709837 -0.483338  3.377284
  S     8.209749  3.702972  3.126721
  S    10.426306  0.581881  0.492782
  S    11.226152  4.320459  0.484938
  S    10.079703  0.545025  4.613288
  S    10.491328  4.335147  4.601687
