16  
    
  C    12.574921  1.440479  3.348941
  C    12.830932  5.444168  3.564503
  C    11.377661  0.929080  2.728965
  C    11.772706  4.935661  2.749506
  N    13.450664  1.892512  2.466541
  N    13.888035  5.808378  2.872974
  N    11.405426  0.832066  1.410171
  N    12.021999  4.791748  1.451189
  N    10.866193  1.017449  5.276442
  N    10.878331  4.854672  5.258185
  S    10.084771  0.639184  3.827681
  S    10.303128  4.655166  3.650573
  S    12.849483  1.623138  0.974830
  S    13.557219  5.367672  1.274536
  S    12.391480  1.687598  5.074209
  S    12.437039  5.565717  5.275806
