16  
    
  C    12.574691  1.631409  3.783480
  C    12.442328  4.989525  3.449182
  C    11.318005  1.198621  3.136129
  C    11.212723  4.647887  2.837403
  N    13.610606  1.736474  2.944036
  N    13.464333  5.145819  2.542805
  N    11.453532  1.058153  1.819674
  N    11.253218  4.424076  1.519883
  N    10.901818  1.136481  5.655402
  N    10.491148  5.002277  5.269500
  S    10.070010  1.193478  4.216677
  S     9.817355  4.392666  3.834615
  S    13.023871  1.320515  1.471955
  S    12.846003  4.784012  1.066047
  S    12.438293  1.771084  5.529959
  S    12.168973  5.188566  5.174751
