16  
    
  C     7.096218 -1.533065  2.157772
  C     7.069443  2.124566  2.088883
  C     5.869746 -1.797534  1.420424
  C     5.896135  1.720906  1.320375
  N     8.173925 -1.289994  1.361789
  N     8.129526  2.260983  1.292028
  N     6.073731 -1.963819  0.109822
  N     6.117458  1.586591  0.014201
  N     5.160811 -1.639553  3.886085
  N     5.209282  1.931866  3.783481
  S     4.501805 -2.125946  2.411261
  S     4.461706  1.592217  2.325034
  S     7.697195 -1.623416 -0.187758
  S     7.683579  1.987233 -0.215621
  S     6.799077 -1.529264  3.922617
  S     6.781538  2.404963  3.801093
