16  
    
  C     3.218448 -2.690665  1.656668
  C     3.570969  0.863525  1.411442
  C     2.142052 -3.330097  0.890533
  C     2.361646  0.379331  0.816296
  N     4.264025 -2.332303  0.907783
  N     4.597586  1.130329  0.604428
  N     2.411836 -3.461267 -0.417401
  N     2.456810  0.373777 -0.505113
  N     1.343623 -3.498529  3.337296
  N     1.974680  0.161824  3.381528
  S     0.751116 -3.803212  1.782854
  S     1.151779 -0.012551  1.940538
  S     3.873704 -2.651263 -0.691157
  S     3.915850  0.869287 -0.950057
  S     2.958200 -2.910067  3.384313
  S     3.537351  0.649486  3.151780
