16  
    
  C     7.709304 -0.910145  1.702052
  C     7.714323  2.914045  2.304187
  C     6.442702 -1.376185  1.167314
  C     6.602996  2.402714  1.580676
  N     8.682120 -0.744383  0.826875
  N     8.792590  3.124256  1.560384
  N     6.595076 -1.770554 -0.076882
  N     6.833419  2.247450  0.278570
  N     6.111805 -1.112730  3.832506
  N     5.915141  2.706787  4.081126
  S     5.200146 -1.448613  2.439698
  S     5.233668  2.100546  2.604546
  S     8.142339 -1.434877 -0.630180
  S     8.418583  2.580388  0.052573
  S     7.680931 -0.729088  3.516571
  S     7.494283  3.266645  3.962563
