16  
    
  C     8.714929 -0.513222  2.408585
  C     8.546742  3.219814  2.612557
  C     7.556152 -0.999639  1.701451
  C     7.382449  2.744313  1.975572
  N     9.847373 -0.543330  1.637107
  N     9.555994  3.465187  1.762442
  N     7.725832 -1.297754  0.380420
  N     7.504167  2.458650  0.676848
  N     6.854548 -0.816870  4.144116
  N     6.815738  2.783314  4.499460
  S     6.142670 -0.940863  2.653466
  S     6.032599  2.453114  3.024132
  S     9.350916 -1.059535  0.119211
  S     9.005459  3.011401  0.186890
  S     8.431162 -0.343613  4.156315
  S     8.445840  3.238704  4.377760
