16  
    
  C     6.830171 -1.817671  1.730681
  C     6.605636  2.269540  2.019159
  C     5.551848 -2.200384  1.149886
  C     5.520114  1.491285  1.445958
  N     7.821371 -1.690470  0.868529
  N     7.537739  2.609050  1.136846
  N     5.563126 -2.250482 -0.178397
  N     5.625715  1.291224  0.131883
  N     5.160121 -2.101566  3.711515
  N     5.059307  1.520087  3.979280
  S     4.304692 -2.473062  2.331380
  S     4.271180  1.096593  2.576675
  S     7.119471 -1.801543 -0.645121
  S     7.020106  2.113575 -0.327337
  S     6.732064 -1.763926  3.447289
  S     6.497708  2.348112  3.715186
