16  
    
  C    12.524244  1.506261  3.306224
  C    12.729884  5.507075  3.521216
  C    11.390468  0.922967  2.758673
  C    11.633515  4.988823  2.711992
  N    13.517407  1.947911  2.518409
  N    13.862839  5.740183  2.805892
  N    11.436304  1.031069  1.410672
  N    11.963135  4.826209  1.441405
  N    10.835900  1.089320  5.221988
  N    10.988226  4.870889  5.173474
  S    10.049639  0.640734  3.865048
  S    10.256650  4.592046  3.718279
  S    12.865815  1.669808  0.975997
  S    13.561482  5.335691  1.256744
  S    12.373675  1.607841  5.039451
  S    12.499676  5.564768  5.196473
