16  
    
  C     9.935471 -0.236890  2.858093
  C    10.094045  3.727560  2.703346
  C     8.727818 -0.546988  2.207288
  C     8.851827  3.220491  2.246379
  N    11.030570  0.003310  2.093119
  N    11.101161  3.891590  1.840830
  N     8.933489 -0.720928  0.874322
  N     8.828993  3.129563  0.936999
  N     8.216052 -0.621177  4.746562
  N     8.637879  3.465539  4.813323
  S     7.357444 -0.798960  3.283893
  S     7.622800  3.059117  3.568233
  S    10.493981 -0.283734  0.575176
  S    10.380342  3.477075  0.371249
  S     9.787359 -0.186446  4.571362
  S    10.158429  3.849647  4.374501
