16  
    
  C     4.682213 -2.053603  1.577122
  C     4.400519  1.549643  1.439707
  C     3.341735 -2.149307  1.009726
  C     3.228739  1.014778  0.801373
  N     5.633755 -2.204736  0.688482
  N     5.429398  1.836523  0.655319
  N     3.342237 -2.168709 -0.298928
  N     3.387009  0.960982 -0.498124
  N     2.996785 -1.774409  3.579029
  N     2.757509  0.977516  3.331060
  S     2.105190 -2.167241  2.230070
  S     1.993857  0.613899  1.925461
  S     4.885314 -2.342817 -0.771008
  S     4.970879  1.409038 -0.856906
  S     4.683152 -1.790036  3.347122
  S     4.366120  1.609351  3.158899
