16  
    
  C    11.536519  1.390292  2.836890
  C    11.447808  5.061509  3.166916
  C    10.356039  0.744771  2.390526
  C    10.368863  4.531696  2.381668
  N    12.481766  1.710259  1.943291
  N    12.542812  5.322395  2.464844
  N    10.480605  0.427715  1.082341
  N    10.557024  4.402919  1.088668
  N    10.215109  0.610582  4.989698
  N     9.680376  4.348455  4.822635
  S     9.369159  0.003923  3.680708
  S     9.019858  3.989879  3.345640
  S    11.952222  0.912896  0.517424
  S    12.084838  4.973413  0.849324
  S    11.495477  1.611615  4.648134
  S    11.222295  5.006959  4.845734
