16  
    
  C     5.285219 -2.243053  1.505271
  C     4.933100  1.660371  1.876765
  C     4.085929 -2.831024  0.918628
  C     3.831937  0.889314  1.290277
  N     6.314373 -2.126546  0.718843
  N     6.071573  1.695698  1.210278
  N     4.291936 -3.222183 -0.312953
  N     4.163157  0.425614  0.081528
  N     3.405862 -2.244021  3.332422
  N     3.028833  1.627676  3.650166
  S     2.818102 -3.132102  2.077497
  S     2.425326  0.800826  2.276587
  S     5.826646 -2.757946 -0.723454
  S     5.758795  0.904398 -0.230211
  S     5.010266 -1.784212  3.179360
  S     4.591607  2.283601  3.440673
