16  
    
  C     8.493914 -1.065371  2.350175
  C     8.207393  2.716198  2.051572
  C     7.257508 -1.308433  1.603137
  C     7.011256  2.285310  1.334334
  N     9.540213 -0.862575  1.587417
  N     9.284079  2.747595  1.297707
  N     7.417516 -1.460316  0.308272
  N     7.205128  2.177947  0.043345
  N     6.638644 -1.174942  4.172258
  N     6.448594  2.359785  3.865398
  S     6.006458 -1.696892  2.742215
  S     5.709405  1.985608  2.394815
  S     9.039874 -1.105389  0.032763
  S     8.779412  2.536100 -0.302074
  S     8.302618 -0.934362  4.098005
  S     8.068440  2.940807  3.754814
