16  
    
  C     9.744477 -0.611772  2.726005
  C     9.655090  3.232032  2.623727
  C     8.497278 -1.037527  2.112306
  C     8.339454  3.123596  1.943215
  N    10.767362 -0.549982  1.876119
  N    10.685958  3.427341  1.770932
  N     8.497009 -1.066403  0.782550
  N     8.459413  3.073597  0.622709
  N     7.924047 -0.540382  4.575517
  N     7.749064  2.917310  4.420943
  S     7.102565 -0.950067  3.192248
  S     6.991161  3.013559  2.972365
  S    10.096888 -0.715663  0.355162
  S    10.023223  3.339318  0.222344
  S     9.587950 -0.380805  4.431076
  S     9.427441  3.241009  4.358005
