16  
    
  C     5.479585 -2.327213  1.772377
  C     5.244942  1.682084  1.512094
  C     4.314895 -2.665898  1.014243
  C     4.149926  1.128937  0.782329
  N     6.605392 -2.068989  1.054721
  N     6.364488  1.903912  0.842269
  N     4.513307 -2.839513 -0.326302
  N     4.477841  0.934081 -0.482140
  N     3.566572 -2.655594  3.539272
  N     3.230323  1.220174  3.189746
  S     2.894017 -2.958783  2.004447
  S     2.722894  0.678062  1.711462
  S     6.072862 -2.297224 -0.544660
  S     6.070164  1.412952 -0.707756
  S     5.179440 -2.192274  3.444466
  S     4.826499  1.821008  3.175962
