16  
    
  C    11.359206  0.973214  3.317335
  C    11.515553  4.734571  2.758345
  C    10.058867  0.584633  2.811689
  C    10.310421  4.216546  2.178714
  N    12.293238  1.203961  2.403510
  N    12.512598  4.906251  1.897213
  N    10.071404  0.333473  1.502739
  N    10.311498  4.167261  0.804545
  N     9.596622  0.784366  5.281910
  N     9.879720  4.363551  4.766371
  S     8.693035  0.474193  3.860050
  S     9.052866  4.010525  3.384239
  S    11.524471  0.879089  0.973090
  S    11.909669  4.516602  0.372096
  S    11.261896  1.217928  5.062965
  S    11.396906  4.976126  4.539607
