16  
    
  C     5.754842 -2.159814  1.876270
  C     6.093625  1.632832  2.016420
  C     4.589674 -2.709384  1.260147
  C     4.779825  1.569979  1.462104
  N     6.828409 -1.883706  1.094655
  N     7.087068  1.449024  1.131425
  N     4.688393 -2.680594 -0.081650
  N     4.760741  1.404522  0.148414
  N     3.956389 -2.314528  3.696733
  N     4.446727  2.132066  3.960970
  S     3.219993 -2.875868  2.317102
  S     3.486097  1.888530  2.634604
  S     6.327172 -2.296278 -0.455098
  S     6.321320  1.216447 -0.335484
  S     5.576000 -1.958009  3.602349
  S     6.088562  2.133246  3.705072
