16  
    
  C    10.921878  0.585127  3.238650
  C    11.077135  4.275898  3.331642
  C     9.813268  0.012509  2.466917
  C     9.818329  3.870066  2.727229
  N    12.010690  0.940915  2.527997
  N    12.051939  4.576202  2.458183
  N    10.023626  0.045432  1.136215
  N     9.901703  3.718250  1.409207
  N     9.075889  0.184123  5.011409
  N     9.484018  3.946092  5.317014
  S     8.438352 -0.254395  3.531548
  S     8.603371  3.488877  3.959424
  S    11.574185  0.722718  0.934000
  S    11.455037  4.214404  0.969897
  S    10.716847  0.592056  4.994983
  S    11.067483  4.376460  5.051752
