16  
    
  C    10.944435  0.553169  2.974006
  C    10.729402  4.429653  2.785528
  C     9.698985  0.166500  2.340665
  C     9.743751  3.592385  2.157484
  N    11.979744  0.474598  2.166619
  N    11.881518  4.620260  2.109343
  N     9.773163 -0.074507  1.053686
  N    10.100473  3.209602  0.944639
  N     9.222204  0.469992  4.883461
  N     8.909090  4.162654  4.545880
  S     8.389677  0.098847  3.486546
  S     8.343657  3.445485  3.191274
  S    11.374901  0.107429  0.660924
  S    11.625414  3.805132  0.605859
  S    10.744872  1.097697  4.629539
  S    10.410720  4.896839  4.447157
