16  
    
  C    11.527399  1.200090  3.102747
  C    11.386943  4.905480  3.019538
  C    10.480130  0.342789  2.603290
  C    10.278462  4.293588  2.357413
  N    12.318650  1.672791  2.142453
  N    12.431110  5.243101  2.273274
  N    10.413342  0.277896  1.252817
  N    10.522962  4.150178  1.093021
  N     9.909053  0.822376  5.112003
  N     9.540972  4.572779  4.759778
  S     9.201891  0.099289  3.795985
  S     8.955611  3.877018  3.345754
  S    11.723979  1.130993  0.649136
  S    11.953510  4.859020  0.748149
  S    11.409847  1.449457  4.848024
  S    11.134760  5.116440  4.720007
