16  
    
  C     7.201290 -1.358607  2.246651
  C     7.218204  2.225995  2.056387
  C     6.024920 -1.979336  1.668919
  C     5.997303  1.735731  1.485262
  N     8.232490 -1.245139  1.371711
  N     8.210595  2.357387  1.207322
  N     6.100155 -2.140480  0.335706
  N     6.122428  1.472889  0.190805
  N     5.359676 -1.204141  4.055630
  N     5.495048  2.012176  4.030265
  S     4.661299 -2.026198  2.767136
  S     4.657265  1.595732  2.660967
  S     7.646031 -1.696645 -0.150123
  S     7.637136  1.808784 -0.267917
  S     7.004165 -1.058015  3.971032
  S     7.101674  2.464057  3.746255
