16  
    
  C    10.218695  0.504533  2.964714
  C    10.796313  4.232498  2.945282
  C     9.051621 -0.031953  2.301616
  C     9.582535  4.040222  2.176552
  N    11.175999  0.900385  2.100154
  N    11.824822  4.497200  2.152223
  N     9.141004  0.064328  0.967817
  N     9.624246  4.387642  0.889885
  N     8.653102 -0.182329  4.840540
  N     8.976335  3.679973  4.678185
  S     7.850169 -0.627947  3.431255
  S     8.213873  3.793749  3.207943
  S    10.579734  0.717872  0.572089
  S    11.246618  4.753580  0.601635
  S    10.180733  0.453368  4.678662
  S    10.523766  4.270747  4.693368
