16  
    
  C     3.253523 -2.995045  1.569527
  C     3.576048  0.536637  1.438997
  C     2.061227 -3.152925  0.744249
  C     2.336989  0.282629  0.761817
  N     4.400549 -2.836158  0.891984
  N     4.578011  0.716474  0.602355
  N     2.273015 -3.059955 -0.584633
  N     2.362602  0.397249 -0.566996
  N     1.394254 -3.551396  3.177264
  N     1.859370  0.142245  3.303730
  S     0.653764 -3.609698  1.615756
  S     1.027170  0.003469  1.864703
  S     3.948197 -2.852852 -0.735998
  S     3.953357  0.712736 -0.972533
  S     3.016489 -3.150026  3.224778
  S     3.403528  0.685579  3.138266
