16  
    
  C    10.058959 -0.169983  2.958909
  C    10.344140  3.484890  3.078485
  C     8.877973 -0.396614  2.214487
  C     9.060843  3.640363  2.489801
  N    11.110001  0.161526  2.236809
  N    11.410111  3.515800  2.238952
  N     9.035707 -0.476710  0.918980
  N     9.154927  3.879337  1.198330
  N     8.059682 -0.585145  4.628784
  N     8.414093  3.563645  4.948547
  S     7.460950 -0.822046  3.129901
  S     7.720734  3.991069  3.521436
  S    10.583304 -0.011589  0.659320
  S    10.663283  3.796549  0.721854
  S     9.680675 -0.285993  4.632555
  S    10.120628  3.354162  4.832313
