16  
    
  C    12.487642  1.642024  3.416106
  C    12.811862  5.506992  3.662307
  C    11.366691  0.926473  2.819519
  C    11.728142  5.054402  2.896666
  N    13.517454  1.775673  2.581093
  N    13.965903  5.776548  2.980623
  N    11.523213  0.665297  1.505698
  N    12.006835  4.961933  1.596981
  N    10.858317  1.292844  5.283417
  N    10.917192  5.129608  5.332033
  S    10.200270  0.513382  3.975952
  S    10.344332  4.531642  3.899717
  S    13.074744  1.210598  1.118871
  S    13.619413  5.365986  1.430244
  S    12.402763  1.865859  5.150132
  S    12.455001  5.659002  5.355678
