16  
    
  C     9.654917 -0.663243  2.771038
  C     9.602353  3.257755  2.580004
  C     8.386044 -0.895774  2.138061
  C     8.365382  3.046882  1.949998
  N    10.724514 -0.524725  1.923826
  N    10.677875  3.317319  1.773900
  N     8.560557 -1.023359  0.806693
  N     8.407402  3.047980  0.619679
  N     7.925788 -0.551938  4.586025
  N     7.709533  2.962569  4.414392
  S     7.037471 -0.975528  3.218455
  S     6.919429  3.034648  2.967739
  S    10.120900 -0.819091  0.411501
  S     9.994715  3.260716  0.270692
  S     9.553546 -0.423920  4.456026
  S     9.277312  3.316244  4.252713
