16  
    
  C    12.727852  1.652081  3.383740
  C    12.654824  5.426222  3.240802
  C    11.508757  1.141302  2.782008
  C    11.436387  4.896170  2.733248
  N    13.693989  1.968419  2.492184
  N    13.606764  5.640318  2.312601
  N    11.477307  1.173894  1.435479
  N    11.407624  4.638625  1.410405
  N    11.049193  1.366011  5.265539
  N    11.091809  4.868855  5.266400
  S    10.184997  0.865608  3.921737
  S    10.231630  4.416418  3.903912
  S    13.027356  1.643815  0.976288
  S    12.839936  5.130687  0.820046
  S    12.664334  1.630752  5.128693
  S    12.621281  5.508808  5.005284
