16  
    
  C     8.955156 -0.277845  2.548779
  C     8.570790  3.441732  2.553668
  C     7.730468 -0.666228  1.903597
  C     7.373278  2.922359  1.941045
  N     9.962309 -0.058323  1.694347
  N     9.517294  3.750745  1.665114
  N     7.808919 -0.760330  0.570829
  N     7.426300  2.799329  0.625889
  N     7.146437 -0.581883  4.487176
  N     7.075103  2.740712  4.529151
  S     6.404824 -0.956069  2.989490
  S     6.268604  2.470600  3.100377
  S     9.387812 -0.374001  0.151248
  S     8.884270  3.443947  0.172497
  S     8.807138 -0.233189  4.378337
  S     8.638975  3.266679  4.320596
