16  
    
  C     5.577162  6.291043 -4.656269
  C     6.598849  5.539062 -3.925921
  C     5.683530  9.508367 -4.478176
  C     6.879843  9.101023 -3.797734
  N     7.709642  5.346800 -4.617420
  N     5.960446  6.687859 -5.847687
  N     4.557670  5.734685 -2.299243
  N     7.952937  9.054377 -4.575733
  N     5.830231  9.740014 -5.804133
  N     5.048331  9.188506 -1.998927
  S     7.379379  5.953738 -6.113429
  S     4.173181  6.559605 -3.715184
  S     6.091166  5.185365 -2.276719
  S     7.497104  9.520523 -6.076074
  S     4.350133  9.786465 -3.376884
  S     6.633737  8.772661 -2.113539
