16  
    
  C     5.561106  6.279035 -4.410174
  C     6.741598  5.577759 -3.862134
  C     5.370932  9.758204 -4.261372
  C     6.547602  9.223835 -3.654906
  N     7.747887  5.388267 -4.730276
  N     5.657105  6.472130 -5.718160
  N     5.007414  5.620138 -1.945917
  N     7.605048  8.949385 -4.394387
  N     5.621900 10.009510 -5.523698
  N     5.013544  9.687156 -1.683511
  S     7.132864  6.018848 -6.163432
  S     4.203132  6.392001 -3.214800
  S     6.661358  5.189480 -2.157417
  S     7.116607  9.409810 -5.938454
  S     4.145553 10.043703 -3.074767
  S     6.506383  9.058270 -1.898885
