16  
    
  C     5.458531  5.638025 -4.367150
  C     6.725393  5.182623 -3.774702
  C     5.697486  9.082011 -4.390797
  C     6.930012  8.799395 -3.703928
  N     7.685810  5.006652 -4.683648
  N     5.499640  5.865934 -5.697370
  N     5.082918  5.663653 -1.838834
  N     8.011244  8.584003 -4.448081
  N     5.921879  9.147824 -5.703876
  N     5.121361  9.216486 -1.840801
  S     6.982722  5.471140 -6.159402
  S     4.306867  6.171999 -3.175505
  S     6.596055  4.991791 -2.083331
  S     7.528954  8.853038 -6.000115
  S     4.325224  9.489452 -3.286339
  S     6.717588  8.741213 -1.960129
