16  
    
  C     5.770441  5.600675 -4.298050
  C     6.980812  5.050084 -3.653220
  C     5.553827  9.515083 -4.336070
  C     6.682076  8.895273 -3.692611
  N     8.042578  5.066425 -4.440815
  N     6.007371  5.940799 -5.536189
  N     5.147913  5.249286 -1.877111
  N     7.742999  8.743116 -4.446928
  N     5.746088  9.795052 -5.627878
  N     4.776383  8.576158 -2.057300
  S     7.570556  5.585697 -5.946647
  S     4.414523  5.801923 -3.282659
  S     6.643157  4.666449 -2.024494
  S     7.298645  9.388966 -5.957046
  S     4.189693  9.609395 -3.278687
  S     6.419757  8.300500 -2.094430
