16  
    
  C     5.529712  6.017252 -4.195267
  C     6.651413  5.438578 -3.660762
  C     5.366936  9.556055 -4.416768
  C     6.588925  9.137073 -3.770293
  N     7.658542  5.310984 -4.518709
  N     5.581716  6.444627 -5.447660
  N     4.957143  5.586070 -1.721779
  N     7.588563  9.028753 -4.583983
  N     5.444725  9.736766 -5.697362
  N     4.898820  9.154003 -1.869239
  S     7.133698  5.952332 -5.969847
  S     4.189327  6.125964 -3.120983
  S     6.531477  5.115568 -1.961489
  S     7.055460  9.454760 -6.077585
  S     4.108196  9.628600 -3.214617
  S     6.553799  8.874438 -2.077006
