16  
    
  C     5.827146  5.516599 -4.307107
  C     7.066772  5.169562 -3.707642
  C     5.452826  9.407319 -4.464123
  C     6.581052  8.814843 -3.784916
  N     8.121447  5.139666 -4.545880
  N     5.846624  5.673407 -5.649667
  N     5.236747  5.244156 -1.771766
  N     7.624699  8.498424 -4.559203
  N     5.621706  9.423726 -5.779915
  N     4.945009  9.537605 -1.949938
  S     7.389507  5.353919 -6.077824
  S     4.445049  5.537034 -3.225237
  S     6.851034  4.957310 -1.988300
  S     7.081587  8.846284 -6.130523
  S     4.096558  9.743420 -3.388800
  S     6.414934  8.711063 -2.035701
