16  
    
  C     5.737544  6.026019 -4.398587
  C     6.853831  5.515197 -3.690378
  C     5.867108  9.544221 -4.298638
  C     7.002007  8.967362 -3.662038
  N     7.913485  5.427618 -4.461669
  N     5.924343  6.264390 -5.674109
  N     5.127322  5.837887 -1.883035
  N     8.002152  8.670335 -4.506554
  N     6.030566  9.681420 -5.632144
  N     5.217224  9.338808 -1.824705
  S     7.558989  5.955905 -6.003925
  S     4.343174  6.146523 -3.340354
  S     6.652021  5.189459 -1.967075
  S     7.503317  9.016117 -6.021503
  S     4.533057  9.729976 -3.274727
  S     6.776228  8.808318 -1.896536
