16  
    
  C     5.585459  6.176189 -4.371036
  C     6.729351  5.492063 -3.811994
  C     5.635939  9.618157 -4.270194
  C     6.816861  9.171077 -3.674124
  N     7.721362  5.285752 -4.630434
  N     5.750695  6.524797 -5.625435
  N     5.055306  5.771864 -1.871481
  N     7.763747  8.965868 -4.599051
  N     5.590505  9.786030 -5.638842
  N     5.115305  9.303105 -1.655801
  S     7.241260  5.820433 -6.140417
  S     4.278166  6.342393 -3.242153
  S     6.622503  5.170431 -2.062990
  S     7.159468  9.386552 -6.059209
  S     4.345945  9.650810 -3.127396
  S     6.710315  8.900916 -1.904167
