16  
    
  C     5.635021  6.588988 -4.538956
  C     6.832664  6.146052 -3.902898
  C     5.601912 10.180569 -4.640578
  C     6.669107  9.619929 -3.902812
  N     7.813533  5.909924 -4.774290
  N     5.713651  6.686414 -5.861832
  N     5.063087  6.446351 -2.051262
  N     7.720520  9.243074 -4.671055
  N     5.708009 10.192908 -6.011419
  N     5.040455 10.082350 -2.039554
  S     7.265266  6.202589 -6.276486
  S     4.314154  7.065961 -3.415112
  S     6.551629  5.761592 -2.229772
  S     7.257027  9.588837 -6.249463
  S     4.256733 10.539290 -3.484558
  S     6.516957  9.449268 -2.191244
