16  
    
  C     5.610209  5.566901 -4.343496
  C     6.893845  5.202709 -3.754272
  C     5.741692  9.536183 -4.001596
  C     6.939110  8.899779 -3.474519
  N     7.930851  5.197590 -4.602513
  N     5.711740  5.739963 -5.660913
  N     5.102584  5.543831 -1.911202
  N     7.920897  8.836254 -4.338307
  N     5.775156  9.829446 -5.313655
  N     5.288430  8.800046 -1.517860
  S     7.301905  5.492290 -6.133480
  S     4.289950  5.899729 -3.341415
  S     6.785949  5.238964 -2.020410
  S     7.417390  9.437783 -5.787999
  S     4.501490  9.662143 -2.756540
  S     6.889810  8.488870 -1.795077
