16  
    
  C     5.364162  5.996415 -4.409670
  C     6.635083  5.638877 -3.761766
  C     5.704465  9.717432 -4.403106
  C     6.864513  9.099080 -3.828674
  N     7.681158  5.454037 -4.588964
  N     5.483291  6.156644 -5.722703
  N     4.921598  5.915999 -1.888478
  N     7.912807  8.869018 -4.577672
  N     5.881371  9.899607 -5.676790
  N     5.113353  9.497708 -1.903643
  S     7.072785  5.743959 -6.096184
  S     4.082173  6.351026 -3.250764
  S     6.469277  5.331456 -2.016794
  S     7.373126  9.272773 -6.152614
  S     4.358995 10.070796 -3.385359
  S     6.614564  8.843225 -2.115284
