16  
    
  C     5.404085  5.948303 -4.288832
  C     6.609521  5.524583 -3.696789
  C     5.397092  9.359986 -4.375348
  C     6.681595  9.038135 -3.805230
  N     7.653265  5.379691 -4.509774
  N     5.459971  6.128870 -5.602723
  N     4.831703  5.558836 -1.819158
  N     7.657205  8.881059 -4.664648
  N     5.442465  9.509246 -5.692603
  N     4.972045  9.566361 -1.861793
  S     7.053638  5.745026 -6.030500
  S     4.047332  6.068981 -3.212653
  S     6.484478  5.332386 -1.979230
  S     6.940082  9.222752 -6.175852
  S     4.066122  9.679030 -3.287022
  S     6.589802  9.205671 -2.081099
