16  
    
  C     5.393420  5.937561 -4.348613
  C     6.656194  5.599020 -3.810063
  C     5.623416  9.385880 -4.464642
  C     6.843858  9.062806 -3.763863
  N     7.626956  5.461924 -4.680657
  N     5.445571  6.161812 -5.648148
  N     4.969898  5.904935 -1.807573
  N     7.852933  8.936084 -4.625098
  N     5.624487  9.471311 -5.779663
  N     4.878614  9.079319 -2.003544
  S     6.961190  5.880322 -6.173470
  S     4.174572  6.272588 -3.203758
  S     6.542655  5.404084 -2.091066
  S     7.225991  9.261944 -6.164784
  S     4.146333  9.230436 -3.479427
  S     6.574854  8.788481 -2.067807
