16  
    
  C     5.230204  5.527248 -4.146402
  C     6.364023  4.855332 -3.591877
  C     5.499412  9.507368 -4.380718
  C     6.671728  8.974411 -3.771023
  N     7.304737  4.516413 -4.440268
  N     5.313221  5.669134 -5.443186
  N     4.666492  5.269868 -1.643793
  N     7.729296  8.727575 -4.549117
  N     5.693161  9.632827 -5.697304
  N     4.933814  9.281944 -1.887943
  S     6.779198  5.009357 -5.911550
  S     3.945563  5.884248 -3.020522
  S     6.232938  4.670433 -1.900263
  S     7.168401  9.111409 -6.052861
  S     4.159632  9.663697 -3.274924
  S     6.566753  8.971934 -2.062195
