16  
    
  C     5.496450  5.873277 -4.303880
  C     6.592619  5.151808 -3.642097
  C     5.518158  9.921630 -4.592779
  C     6.639756  9.292475 -3.925936
  N     7.600611  4.893420 -4.471983
  N     5.648750  6.077138 -5.617090
  N     4.780655  5.496728 -1.762980
  N     7.769736  9.117142 -4.613687
  N     5.783956 10.189292 -5.859576
  N     4.719063  9.113718 -2.243556
  S     7.124416  5.453904 -5.988040
  S     4.184432  6.195238 -3.180248
  S     6.333029  4.844026 -1.963984
  S     7.447345  9.735416 -6.107232
  S     4.175264 10.023039 -3.534684
  S     6.292164  8.634100 -2.359129
