16  
    
  C     5.534210  5.769742 -4.536583
  C     6.785371  5.544817 -3.798081
  C     5.078690  9.442513 -4.464247
  C     6.251629  9.003225 -3.721140
  N     7.798472  5.487715 -4.641684
  N     5.661187  5.902570 -5.841379
  N     4.950519  5.603141 -2.046830
  N     7.321279  8.772989 -4.497313
  N     5.273183  9.361117 -5.804201
  N     4.577976 10.034228 -1.993153
  S     7.265287  5.623856 -6.204831
  S     4.172045  5.933123 -3.489802
  S     6.553778  5.333958 -2.108096
  S     6.840302  9.048544 -6.072251
  S     3.888473 10.198495 -3.503733
  S     6.089982  9.277853 -1.927554
