16  
    
  C     5.229035  6.139698 -4.335193
  C     6.397242  5.612528 -3.732206
  C     5.472277  9.767265 -4.317308
  C     6.668398  9.276802 -3.744355
  N     7.401573  5.340052 -4.558362
  N     5.310592  6.312762 -5.636748
  N     4.670730  5.982695 -1.806033
  N     7.679875  9.145232 -4.597792
  N     5.513589  9.966270 -5.658855
  N     5.000244  9.398050 -1.808019
  S     6.937798  5.806671 -6.062919
  S     3.933647  6.481749 -3.174869
  S     6.152004  5.279552 -2.040086
  S     7.062495  9.454863 -6.070158
  S     4.178076 10.039461 -3.097563
  S     6.615082  9.051960 -2.111617
