16  
    
  C     5.709833  5.994999 -4.391239
  C     6.833782  5.496315 -3.686276
  C     5.898188  9.517758 -4.294541
  C     7.038192  8.983147 -3.638230
  N     7.899319  5.452831 -4.458103
  N     5.915050  6.261082 -5.669230
  N     5.108498  5.831476 -1.873698
  N     8.044066  8.672000 -4.487571
  N     6.052460  9.659882 -5.616175
  N     5.227674  9.332304 -1.803343
  S     7.546364  5.953666 -6.010150
  S     4.346406  6.163318 -3.325282
  S     6.647493  5.174999 -1.970630
  S     7.489739  9.010156 -6.012156
  S     4.529529  9.711918 -3.261107
  S     6.772172  8.791506 -1.896998
