16  
    
  C     5.646212  6.067397 -4.281415
  C     6.794009  5.540274 -3.653544
  C     5.838236  9.217166 -4.233516
  C     7.047981  8.904854 -3.515062
  N     7.797957  5.286820 -4.481730
  N     5.730144  6.122591 -5.607327
  N     4.917359  5.477533 -1.927169
  N     8.147503  8.847646 -4.287586
  N     6.001079  9.330168 -5.562405
  N     5.382907  9.114234 -1.635716
  S     7.299588  5.760036 -6.000960
  S     4.317383  6.336784 -3.208207
  S     6.573582  5.144960 -1.948092
  S     7.600155  9.119335 -5.833270
  S     4.584867  9.469059 -3.028570
  S     6.945997  8.583210 -1.798481
