16  
    
  C     5.467270  6.171413 -4.396984
  C     6.666329  5.729802 -3.742841
  C     5.472495  9.648185 -4.343494
  C     6.713805  9.305135 -3.657759
  N     7.730010  5.496344 -4.529781
  N     5.580768  6.237574 -5.731961
  N     4.834324  5.989567 -1.833784
  N     7.740287  9.196441 -4.447758
  N     5.587926  9.860999 -5.648229
  N     4.864368  9.336360 -1.770720
  S     7.107191  5.783771 -6.103416
  S     4.108587  6.490578 -3.261946
  S     6.463817  5.600610 -1.978349
  S     7.215407  9.590891 -5.971088
  S     4.082343  9.574109 -3.169604
  S     6.544747  9.018911 -2.047818
