16  
    
  C     5.503959  5.957260 -4.410098
  C     6.678761  5.727843 -3.642985
  C     5.580885  9.646686 -4.348182
  C     6.716794  9.198340 -3.613744
  N     7.779013  5.542638 -4.368847
  N     5.753954  6.038071 -5.701352
  N     4.803207  6.083049 -1.946685
  N     7.831668  8.907145 -4.298182
  N     5.800411  9.630001 -5.682767
  N     4.892214  9.444850 -1.782660
  S     7.372829  5.737758 -5.935259
  S     4.127791  6.343874 -3.495119
  S     6.405606  5.608833 -1.985744
  S     7.436804  9.237034 -5.830738
  S     4.187847  9.732100 -3.284923
  S     6.516912  9.067010 -1.889070
