16  
    
  C     5.163258  6.109585 -4.296900
  C     6.368475  5.564138 -3.621040
  C     5.526308  9.791675 -4.257107
  C     6.690186  9.164204 -3.632038
  N     7.372221  5.333897 -4.472262
  N     5.311738  6.409579 -5.598863
  N     4.555257  5.955437 -1.829721
  N     7.590316  8.904344 -4.566520
  N     5.541575  9.933885 -5.574114
  N     4.996912  9.721116 -1.705524
  S     6.840829  5.853166 -5.951431
  S     3.887363  6.583084 -3.262110
  S     6.179780  5.336349 -1.915200
  S     7.060870  9.459734 -6.052461
  S     4.251873  9.991005 -3.119893
  S     6.573545  8.979707 -1.874984
