16  
    
  C     5.591413  5.773007 -4.420394
  C     6.762822  5.257846 -3.767860
  C     5.690920  9.549251 -4.238689
  C     6.872586  9.015574 -3.597487
  N     7.840319  5.013889 -4.547271
  N     5.706451  5.876956 -5.747338
  N     4.877641  5.494068 -1.955764
  N     7.918565  8.766939 -4.380885
  N     5.845872  9.653069 -5.539364
  N     5.104981  9.346298 -1.802223
  S     7.247154  5.409307 -6.072682
  S     4.301101  6.266916 -3.322856
  S     6.464730  4.972683 -2.068113
  S     7.349748  9.029701 -5.876546
  S     4.318831  9.773189 -3.175465
  S     6.628756  8.694184 -1.921956
