16  
    
  C     5.705748  5.705686 -4.302446
  C     6.925273  5.274057 -3.751337
  C     5.747450  9.656175 -4.458871
  C     6.963870  9.132155 -3.906203
  N     7.928668  5.296915 -4.614007
  N     5.711759  6.151049 -5.571888
  N     5.324527  5.187737 -1.739839
  N     8.043202  9.225802 -4.675844
  N     5.889335 10.014965 -5.745160
  N     5.202866  9.291470 -1.924961
  S     7.272985  5.764143 -6.073552
  S     4.439438  5.638714 -3.093738
  S     6.875889  4.695619 -2.102021
  S     7.528322  9.837144 -6.080558
  S     4.527642  9.882570 -3.333901
  S     6.782820  8.738120 -2.143294
