16  
    
  C     5.597561  6.091227 -4.377430
  C     6.717423  5.585511 -3.640834
  C     5.369112  9.663601 -4.258142
  C     6.649627  9.327542 -3.673496
  N     7.765432  5.381535 -4.420671
  N     5.826154  6.341205 -5.663147
  N     4.859079  5.825308 -1.916505
  N     7.680460  9.261274 -4.483433
  N     5.417246  9.813428 -5.564648
  N     4.922283  9.465039 -1.717870
  S     7.414244  5.795849 -6.003242
  S     4.211352  6.345616 -3.367667
  S     6.431918  5.542257 -1.965854
  S     7.063284  9.633588 -5.955269
  S     4.039455  9.670149 -3.079406
  S     6.497046  9.062651 -1.948304
