16  
    
  C     5.455696  6.382674 -4.555196
  C     6.726852  5.990286 -3.932203
  C     5.692340  9.786258 -4.425849
  C     6.924989  9.418700 -3.734889
  N     7.640836  5.611414 -4.804485
  N     5.510169  6.429569 -5.872436
  N     4.892285  6.263409 -2.096077
  N     7.994869  9.296413 -4.517319
  N     5.805261  9.872607 -5.739991
  N     5.138978  9.745908 -1.907790
  S     7.039413  5.887796 -6.259841
  S     4.136794  6.787091 -3.516477
  S     6.519477  5.831589 -2.160243
  S     7.406693  9.451055 -6.105298
  S     4.330790  9.965962 -3.398385
  S     6.706025  9.258451 -1.903983
