16  
    
  C     5.542006  5.734010 -4.415151
  C     6.648550  5.173850 -3.746334
  C     5.712291  9.435087 -4.274993
  C     6.876908  8.988465 -3.552904
  N     7.736529  5.035464 -4.513441
  N     5.731205  5.936726 -5.708557
  N     4.796205  5.454086 -1.994640
  N     7.890663  8.754056 -4.364114
  N     5.825222  9.575666 -5.592546
  N     5.105159  9.227604 -1.699304
  S     7.287440  5.397263 -6.082985
  S     4.255869  6.244033 -3.349110
  S     6.387990  4.970969 -2.004243
  S     7.400626  9.113652 -5.973584
  S     4.372990  9.626578 -3.176521
  S     6.704463  8.725103 -1.834832
