16  
    
  C     5.667648  5.505950 -4.378044
  C     6.907917  5.240200 -3.721749
  C     5.706729  9.444868 -4.026379
  C     6.908514  8.854245 -3.515038
  N     7.922381  5.180281 -4.578140
  N     5.715824  5.629001 -5.674389
  N     5.107954  5.626889 -1.884889
  N     7.952213  8.801918 -4.371024
  N     5.855708  9.789127 -5.296758
  N     5.217558  8.882464 -1.562900
  S     7.274185  5.396010 -6.070306
  S     4.308688  5.899161 -3.340087
  S     6.698635  5.276061 -2.020386
  S     7.386389  9.498156 -5.758272
  S     4.454152  9.689835 -2.823730
  S     6.869116  8.538089 -1.797555
