16  
    
  C     5.220607  6.474116 -4.633742
  C     6.461869  6.003452 -4.019282
  C     5.799177  9.649549 -4.384510
  C     7.062179  9.264729 -3.780835
  N     7.456170  5.809967 -4.888334
  N     5.315340  6.490035 -5.977718
  N     4.727038  6.356513 -2.148465
  N     8.026797  9.177780 -4.677428
  N     5.788882  9.926342 -5.676943
  N     5.347579  9.436869 -1.839607
  S     6.868495  6.050008 -6.465217
  S     3.891591  6.705044 -3.546893
  S     6.334012  5.999686 -2.276520
  S     7.321734  9.455151 -6.192134
  S     4.457597  9.831326 -3.293776
  S     6.948173  9.082508 -2.023245
