16  
    
  C     5.521558  5.740184 -4.386730
  C     6.786963  5.299097 -3.768585
  C     5.500585  9.472974 -4.651157
  C     6.727796  9.286488 -3.882601
  N     7.768336  5.086345 -4.635761
  N     5.625127  5.790292 -5.709158
  N     5.104839  5.719722 -1.839005
  N     7.757469  9.322478 -4.739967
  N     5.554649  9.593112 -5.972316
  N     4.856796  9.331453 -2.176209
  S     7.189840  5.528905 -6.117841
  S     4.340100  6.063158 -3.232510
  S     6.683695  5.221068 -2.037433
  S     7.230909  9.467645 -6.274355
  S     4.056862  9.668879 -3.610107
  S     6.471838  8.977040 -2.203510
