16  
    
  C     5.477724  5.803835 -4.369437
  C     6.728175  5.355835 -3.790649
  C     5.373725  9.732701 -4.598239
  C     6.624424  9.336452 -3.954420
  N     7.667914  5.183459 -4.716255
  N     5.554194  5.969744 -5.684014
  N     5.045872  5.691525 -1.885060
  N     7.633983  8.922467 -4.726361
  N     5.515435  9.765127 -5.899471
  N     4.845591  9.370904 -2.127325
  S     7.026285  5.478172 -6.190714
  S     4.165350  6.033796 -3.243590
  S     6.651843  5.312501 -2.114099
  S     7.093190  9.205529 -6.232808
  S     4.032584  9.735664 -3.544246
  S     6.467496  9.173450 -2.207769
