16  
    
  C     5.211838  6.412808 -4.643632
  C     6.483101  6.110322 -3.968903
  C     5.742208  9.694110 -4.444233
  C     6.961254  9.314755 -3.817387
  N     7.499880  5.814366 -4.760658
  N     5.294648  6.444991 -5.980818
  N     4.740639  6.332463 -2.123653
  N     7.940099  9.136305 -4.655719
  N     5.823797  9.741104 -5.785999
  N     5.340449  9.446119 -1.882636
  S     6.844742  6.042318 -6.309316
  S     3.987598  6.769352 -3.517411
  S     6.371321  5.968327 -2.300280
  S     7.399900  9.438202 -6.170433
  S     4.468553  9.776476 -3.179423
  S     6.951607  9.064862 -2.139564
