16  
    
  C     5.451294  5.865591 -4.393958
  C     6.720876  5.475829 -3.824914
  C     5.397887  9.702462 -4.574546
  C     6.584894  9.221582 -3.901124
  N     7.634378  5.160142 -4.718235
  N     5.485832  5.991777 -5.701565
  N     5.028885  5.698354 -1.834729
  N     7.574993  8.850437 -4.686621
  N     5.530753  9.780595 -5.915993
  N     4.829500  9.401005 -2.125562
  S     6.992033  5.476919 -6.207237
  S     4.173350  6.010515 -3.260132
  S     6.619492  5.300778 -2.115683
  S     7.059163  9.199860 -6.245103
  S     4.014021  9.777271 -3.552454
  S     6.504490  9.212911 -2.183259
