16  
    
  C     5.680815  5.407267 -4.157089
  C     6.881344  4.899454 -3.512013
  C     5.404168  9.249015 -4.660427
  C     6.611822  8.844165 -3.981364
  N     7.903759  4.762977 -4.315663
  N     5.910229  5.676311 -5.431898
  N     5.072863  5.139888 -1.694339
  N     7.638609  8.671628 -4.833208
  N     5.540513  9.457448 -5.974150
  N     4.836282  9.129190 -2.175864
  S     7.471445  5.298526 -5.843983
  S     4.344306  5.465782 -3.116353
  S     6.690005  4.784047 -1.812517
  S     7.147510  9.008872 -6.324233
  S     4.107952  9.747650 -3.550365
  S     6.438565  8.813664 -2.296284
