16  
    
  C     5.534527  6.056158 -4.322429
  C     6.755128  5.656420 -3.663664
  C     5.632971  9.432637 -4.436781
  C     6.894397  9.087170 -3.748611
  N     7.762288  5.440238 -4.577532
  N     5.625813  6.159515 -5.653287
  N     4.944490  5.903326 -1.811796
  N     7.974485  9.030319 -4.534998
  N     5.761080  9.531745 -5.741355
  N     5.011982  9.310423 -1.911182
  S     7.197159  5.724100 -6.028452
  S     4.187725  6.313026 -3.236526
  S     6.568641  5.541208 -1.933168
  S     7.422097  9.357677 -6.114046
  S     4.275358  9.669384 -3.321961
  S     6.661211  8.831152 -2.022576
