16  
    
  C     5.475576  5.753246 -4.396708
  C     6.713563  5.267469 -3.843901
  C     5.477456  9.709802 -4.605673
  C     6.673501  9.386239 -3.902309
  N     7.764537  5.151709 -4.660219
  N     5.550334  5.935088 -5.698304
  N     5.077328  5.682514 -1.901952
  N     7.658558  9.072172 -4.725109
  N     5.548118  9.725155 -5.964191
  N     4.805106  9.349679 -2.098826
  S     7.077444  5.494903 -6.173295
  S     4.175756  6.062578 -3.241309
  S     6.692594  5.307526 -2.058141
  S     7.110949  9.230671 -6.267173
  S     4.047219  9.699074 -3.523921
  S     6.435234  9.119924 -2.249131
