16  
    
  C     5.434818  6.019594 -4.232289
  C     6.592499  5.459077 -3.686088
  C     5.500131  9.626378 -4.267259
  C     6.721682  9.062104 -3.650390
  N     7.610418  5.189121 -4.514942
  N     5.526553  6.348907 -5.531138
  N     4.901030  5.554455 -1.706334
  N     7.742291  8.869793 -4.458402
  N     5.659172  9.846625 -5.530776
  N     4.820856  9.335213 -1.846990
  S     7.002446  5.747382 -5.993120
  S     4.150457  6.256359 -3.042191
  S     6.500818  5.206337 -1.971790
  S     7.202359  9.486936 -5.991767
  S     4.076552  9.655427 -3.292215
  S     6.407716  8.792832 -1.921187
