16  
    
  C     5.643870  5.679497 -4.142133
  C     6.883234  5.377605 -3.551985
  C     5.559911  9.110975 -4.219907
  C     6.836740  8.966373 -3.576763
  N     7.853438  5.113292 -4.460299
  N     5.668308  5.678441 -5.503689
  N     5.222608  5.687931 -1.601385
  N     7.871161  8.988583 -4.404865
  N     5.664336  9.337832 -5.526433
  N     5.143376  8.835495 -1.647149
  S     7.176430  5.164985 -5.957769
  S     4.295213  5.686823 -2.983896
  S     6.887395  5.340588 -1.749900
  S     7.277627  9.269727 -5.870426
  S     4.232700  8.947804 -3.060427
  S     6.740669  8.974164 -1.868961
