16  
    
  C     5.492091  5.709498 -4.437456
  C     6.651317  5.353356 -3.693237
  C     5.653582  9.030505 -4.127072
  C     6.949293  8.823611 -3.494575
  N     7.747283  5.034499 -4.430613
  N     5.609644  5.544348 -5.753236
  N     4.673995  5.549281 -1.944953
  N     7.948102  8.678597 -4.376470
  N     5.677045  8.968460 -5.437503
  N     5.194528  9.359514 -1.666480
  S     7.183181  5.227412 -6.025264
  S     4.070742  5.999373 -3.387357
  S     6.340979  5.305552 -1.986416
  S     7.197555  8.711739 -5.901231
  S     4.308694  9.305103 -3.072311
  S     6.832612  9.107570 -1.760559
