16  
    
  C     5.554511  6.318777 -4.478680
  C     6.705458  5.708748 -3.907125
  C     5.366024  9.918385 -4.722287
  C     6.602933  9.568846 -4.104881
  N     7.760770  5.524003 -4.713591
  N     5.750557  6.613484 -5.758758
  N     4.996217  5.928471 -2.026968
  N     7.673045  9.433045 -4.840498
  N     5.503991 10.124455 -6.022982
  N     4.917288  9.723561 -2.110635
  S     7.271781  6.128482 -6.220230
  S     4.234985  6.516380 -3.374106
  S     6.630616  5.560898 -2.184985
  S     7.121909  9.744697 -6.397055
  S     4.046130 10.116701 -3.576435
  S     6.564658  9.554202 -2.330508
