16  
    
  C     5.339646  5.565782 -4.348423
  C     6.450642  4.911062 -3.731988
  C     5.553875  9.172716 -4.393214
  C     6.596183  8.349456 -3.827135
  N     7.518728  4.715396 -4.497790
  N     5.466449  5.748021 -5.640837
  N     4.674971  5.187271 -1.884961
  N     7.664507  8.299225 -4.647292
  N     5.742196  9.627748 -5.626481
  N     4.976571  8.902893 -1.904946
  S     7.007598  5.294275 -5.990853
  S     4.061557  5.858556 -3.258725
  S     6.221253  4.571837 -2.057417
  S     7.285825  9.059707 -6.038858
  S     4.194183  9.437473 -3.328673
  S     6.218773  7.835672 -2.200681
