16  
    
  C     5.620152  5.528929 -4.404466
  C     6.865270  5.335861 -3.709100
  C     5.647984  9.574766 -4.182688
  C     6.812274  9.010391 -3.566158
  N     7.954215  5.093832 -4.438200
  N     5.773127  5.480996 -5.715826
  N     5.020800  5.707789 -1.920544
  N     7.825161  8.762769 -4.412443
  N     5.854525  9.879045 -5.479419
  N     5.053330  9.208571 -1.676307
  S     7.317695  5.024229 -5.984298
  S     4.204551  5.788711 -3.336003
  S     6.646963  5.274955 -1.983674
  S     7.341507  9.355829 -5.912514
  S     4.255656  9.544036 -3.084455
  S     6.652336  8.669013 -1.852314
