16  
    
  C     5.141307  6.216074 -4.294714
  C     6.188587  5.580253 -3.611965
  C     5.750325  9.626212 -4.195859
  C     6.969100  9.141232 -3.597174
  N     7.260448  5.405841 -4.360143
  N     5.369761  6.454145 -5.570294
  N     4.464480  6.205532 -1.856500
  N     7.982061  8.894661 -4.463402
  N     5.817256  9.690070 -5.555052
  N     5.297418  9.497034 -1.633213
  S     6.950976  5.879719 -5.883878
  S     3.821415  6.775866 -3.309128
  S     5.895579  5.349406 -1.931808
  S     7.407931  9.301831 -5.916009
  S     4.526532  9.996213 -2.982489
  S     6.863529  8.833949 -1.963506
