16  
    
  C     5.600303  6.166763 -4.369925
  C     6.761057  5.577311 -3.717659
  C     5.493834  9.664837 -4.178372
  C     6.739541  9.283202 -3.560851
  N     7.837131  5.447127 -4.502274
  N     5.775826  6.342458 -5.661822
  N     4.914522  5.854735 -1.952677
  N     7.702107  9.163808 -4.447848
  N     5.442197  9.851947 -5.479477
  N     4.853618  9.341865 -1.739306
  S     7.311532  5.970694 -6.023757
  S     4.214346  6.379349 -3.356847
  S     6.499259  5.209873 -2.050061
  S     6.978560  9.451217 -5.950350
  S     4.119332  9.889299 -3.058174
  S     6.495825  9.084044 -1.872356
