16  
    
  C     5.655020  5.688309 -4.056538
  C     6.886913  5.141578 -3.485679
  C     5.865844  9.200402 -3.903503
  C     7.110419  8.780238 -3.311331
  N     7.839244  4.945896 -4.429127
  N     5.674522  5.766247 -5.380960
  N     5.188804  5.379170 -1.523021
  N     8.153462  8.760062 -4.185665
  N     5.961166  9.475533 -5.177537
  N     5.285935  9.120151 -1.361942
  S     7.236210  5.472266 -5.862455
  S     4.367597  5.971742 -2.852578
  S     6.779143  4.901741 -1.794777
  S     7.462589  9.217464 -5.683867
  S     4.492808  9.322462 -2.808108
  S     6.902375  8.758853 -1.548698
