16  
    
  C     5.568147  5.765486 -4.217570
  C     6.800856  5.353645 -3.591754
  C     5.534969  9.326951 -4.344001
  C     6.782793  9.010492 -3.708240
  N     7.819047  5.327014 -4.452526
  N     5.694288  5.937725 -5.529991
  N     5.046279  5.540730 -1.728714
  N     7.795665  8.932085 -4.560355
  N     5.593263  9.523974 -5.706071
  N     5.034051  9.136482 -1.826721
  S     7.216655  5.499037 -5.977322
  S     4.241713  5.805983 -3.165892
  S     6.632912  5.169283 -1.859948
  S     7.236913  9.327489 -6.050217
  S     4.252350  9.601698 -3.178417
  S     6.604247  8.728418 -2.008449
