16  
    
  C     5.505991  5.678397 -4.418068
  C     6.721968  5.125119 -3.710571
  C     5.486200  9.837780 -4.555756
  C     6.651369  9.205917 -3.941187
  N     7.787591  4.859167 -4.487885
  N     5.767750  5.916426 -5.706274
  N     4.948884  5.651510 -1.906072
  N     7.673368  9.060671 -4.807172
  N     5.618509 10.132059 -5.842444
  N     4.883581  9.317331 -2.078599
  S     7.313006  5.404923 -5.968339
  S     4.147689  5.849300 -3.310739
  S     6.362770  4.806177 -1.994156
  S     7.135919  9.682242 -6.285372
  S     4.112090 10.018389 -3.404053
  S     6.486788  8.938960 -2.272544
