16  
    
  C     5.663884  5.799124 -4.105501
  C     6.764819  5.221959 -3.426631
  C     5.530068  9.503042 -4.031851
  C     6.645149  8.860559 -3.376166
  N     7.841753  4.893879 -4.108715
  N     5.930084  5.937844 -5.383442
  N     4.915315  5.432990 -1.713034
  N     7.667044  8.623196 -4.190815
  N     5.721886  9.732987 -5.348751
  N     4.837221  9.081648 -1.598412
  S     7.440859  5.406700 -5.665399
  S     4.265443  5.951156 -3.150852
  S     6.543184  5.106452 -1.703112
  S     7.230708  9.113045 -5.656189
  S     4.117266  9.591965 -2.991150
  S     6.419618  8.583404 -1.708082
