16  
    
  C     5.238241  6.265633 -4.263349
  C     6.346518  5.569592 -3.630758
  C     5.552011  9.688716 -4.209580
  C     6.735683  9.103823 -3.560289
  N     7.384955  5.293184 -4.440084
  N     5.433002  6.362322 -5.587292
  N     4.563642  5.894674 -1.840713
  N     7.671863  8.842558 -4.475473
  N     5.617052 10.001029 -5.499000
  N     5.074082  9.825416 -1.720262
  S     6.905257  5.834239 -5.957852
  S     3.905606  6.566373 -3.194170
  S     6.101795  5.470555 -1.925108
  S     7.067351  9.388192 -5.946860
  S     4.206966 10.000573 -3.116614
  S     6.479413  8.969874 -1.869987
