16  
    
  C     5.526953  6.356509 -4.436226
  C     6.720520  5.796479 -3.735045
  C     5.668947  9.681937 -4.424599
  C     6.868674  9.355028 -3.737068
  N     7.764493  5.596941 -4.533381
  N     5.667782  6.450329 -5.730876
  N     4.869967  6.298134 -1.988823
  N     7.894940  9.318514 -4.558902
  N     5.782780  9.967017 -5.699889
  N     5.026580  9.579941 -1.881239
  S     7.204582  6.023926 -6.062970
  S     4.151070  6.670678 -3.433865
  S     6.491653  5.824109 -2.005827
  S     7.300063  9.537438 -6.142998
  S     4.282859  9.855418 -3.424492
  S     6.638730  9.309393 -1.954413
