16  
    
  C     5.652903  5.291121 -4.278637
  C     6.958414  5.016047 -3.665909
  C     5.573636  9.382862 -4.520954
  C     6.712912  8.943091 -3.751353
  N     7.895683  4.696262 -4.536339
  N     5.655137  5.361988 -5.600244
  N     5.241930  5.308260 -1.722258
  N     7.857531  8.740378 -4.409717
  N     5.885462  9.627361 -5.778441
  N     4.811516  9.099763 -2.102933
  S     7.246103  5.097416 -6.032877
  S     4.370815  5.443779 -3.178606
  S     6.851544  4.985974 -1.952917
  S     7.471988  9.150430 -6.013470
  S     4.172555  9.703215 -3.533136
  S     6.437945  8.709431 -2.071732
