16  
    
  C     5.450468  6.008080 -4.208655
  C     6.642379  5.404920 -3.639555
  C     5.623160  9.663539 -4.540036
  C     6.702069  9.052765 -3.810743
  N     7.656697  5.243212 -4.503610
  N     5.502768  6.261922 -5.520407
  N     4.965532  5.720300 -1.631204
  N     7.857053  8.887339 -4.452667
  N     6.013813 10.012339 -5.765381
  N     4.809074  9.295509 -2.104982
  S     7.010323  5.761665 -5.935414
  S     4.182647  6.349321 -2.973094
  S     6.579962  5.214247 -1.902502
  S     7.602358  9.550599 -5.958895
  S     4.187572  9.923053 -3.500115
  S     6.434427  8.855570 -2.113053
