16  
    
  C     5.448979  6.099677 -4.433052
  C     6.642186  5.511252 -3.839338
  C     5.435712  9.765449 -4.456479
  C     6.645321  9.290039 -3.817766
  N     7.592126  5.177478 -4.715542
  N     5.577475  6.224592 -5.731974
  N     4.845121  5.772493 -1.894868
  N     7.708695  9.233960 -4.640420
  N     5.547468 10.094811 -5.775560
  N     4.974208  9.596698 -1.916109
  S     7.046863  5.707425 -6.244659
  S     4.146840  6.366054 -3.318075
  S     6.448302  5.366299 -2.095171
  S     7.101613  9.671785 -6.160048
  S     4.081476  9.920642 -3.355294
  S     6.460035  9.052160 -2.188281
