16  
    
  C     5.584857  5.981072 -4.425626
  C     6.766979  5.674368 -3.729326
  C     5.602816  9.440972 -4.380482
  C     6.826031  9.139653 -3.682491
  N     7.822704  5.475575 -4.500920
  N     5.716581  6.071749 -5.742080
  N     4.850803  5.840783 -1.939775
  N     7.883896  9.065178 -4.478664
  N     5.754720  9.654018 -5.672929
  N     5.017904  9.505210 -1.865971
  S     7.360926  5.718154 -6.064974
  S     4.158931  6.225208 -3.449604
  S     6.485928  5.675471 -1.922642
  S     7.357219  9.302422 -6.042567
  S     4.188132  9.583609 -3.363515
  S     6.591852  9.081965 -1.920119
