16  
    
  C     5.609922  5.804090 -4.699730
  C     6.858680  5.641809 -4.039737
  C     5.414506  9.703785 -4.280570
  C     6.617431  9.223065 -3.688291
  N     7.884943  5.696006 -4.884269
  N     5.647627  5.927280 -6.003089
  N     5.038808  5.410902 -2.228572
  N     7.714503  9.299876 -4.460193
  N     5.618547 10.015408 -5.586498
  N     4.869654  9.167708 -1.807921
  S     7.224303  5.832604 -6.379149
  S     4.175978  5.737860 -3.622083
  S     6.644026  5.419336 -2.361418
  S     7.260287  9.848031 -5.872054
  S     4.100884  9.857785 -3.144851
  S     6.456394  8.813623 -2.039945
