16  
    
  C     5.525882  6.362830 -4.437856
  C     6.719913  5.792006 -3.739336
  C     5.662615  9.683029 -4.422878
  C     6.861692  9.358870 -3.738128
  N     7.762073  5.588503 -4.525465
  N     5.673825  6.446788 -5.728586
  N     4.869143  6.295684 -1.990795
  N     7.892886  9.316415 -4.561899
  N     5.790874  9.964089 -5.703405
  N     5.028801  9.586159 -1.888636
  S     7.204388  6.022342 -6.068579
  S     4.152081  6.674046 -3.436876
  S     6.497375  5.825163 -2.005757
  S     7.304084  9.537020 -6.142841
  S     4.283398  9.857575 -3.425210
  S     6.641914  9.311692 -1.949076
