16  
    
  C     5.082881  5.880076 -4.280597
  C     6.362467  5.517191 -3.641317
  C     5.451729  9.406231 -4.014904
  C     6.666635  8.864985 -3.445393
  N     7.302612  5.230056 -4.530495
  N     5.235715  5.977284 -5.590517
  N     4.576753  5.884865 -1.790292
  N     7.652342  8.645912 -4.339699
  N     5.470604  9.480661 -5.372863
  N     5.128140  9.568811 -1.436117
  S     6.797200  5.675819 -6.019242
  S     3.761068  6.234084 -3.208537
  S     6.198139  5.494151 -1.910907
  S     6.962586  8.987468 -5.885710
  S     4.282947  9.939620 -2.839422
  S     6.569478  8.743802 -1.701476
