16  
    
  C     5.480321  6.118971 -4.170732
  C     6.670980  5.644439 -3.593112
  C     5.659194  9.607686 -4.428692
  C     6.822910  9.197570 -3.716954
  N     7.651609  5.486484 -4.467387
  N     5.441689  6.189464 -5.513243
  N     5.002319  5.688146 -1.671274
  N     7.925956  9.003572 -4.457317
  N     5.829073  9.781877 -5.730261
  N     4.835625  9.320210 -2.011903
  S     6.984096  5.785567 -5.967241
  S     4.197522  6.275711 -2.950454
  S     6.585524  5.230761 -1.893351
  S     7.469045  9.398915 -6.005776
  S     4.318630  9.943380 -3.466638
  S     6.457183  8.978311 -1.981353
