16  
    
  C     5.458296  5.836709 -4.384845
  C     6.738370  5.419886 -3.795386
  C     5.368389  9.722739 -4.572388
  C     6.600077  9.278006 -3.936478
  N     7.636964  5.175066 -4.722385
  N     5.523724  5.982530 -5.686830
  N     5.036116  5.694858 -1.854281
  N     7.606889  8.876231 -4.703355
  N     5.520605  9.775613 -5.908264
  N     4.841546  9.386308 -2.131253
  S     7.007172  5.476155 -6.199744
  S     4.170188  6.020281 -3.253132
  S     6.632036  5.307814 -2.122116
  S     7.076041  9.201282 -6.237670
  S     4.022823  9.757665 -3.552177
  S     6.490204  9.196020 -2.191662
