16  
    
  C     5.543075  5.628514 -4.125801
  C     6.778922  5.150328 -3.545721
  C     5.535088  8.982094 -4.132236
  C     6.820735  8.922087 -3.510350
  N     7.745000  4.949507 -4.433019
  N     5.529163  5.759145 -5.450524
  N     5.174681  5.368702 -1.579809
  N     7.804254  8.965606 -4.403250
  N     5.520391  8.899392 -5.450854
  N     5.059085  9.153384 -1.638034
  S     7.120712  5.486551 -5.918433
  S     4.344256  5.980934 -2.899515
  S     6.823958  5.202747 -1.746674
  S     7.109472  8.871148 -5.913074
  S     4.237512  8.980995 -3.029535
  S     6.686745  8.723906 -1.776952
