16  
    
  C     5.553926  5.883633 -4.139620
  C     6.534477  4.951042 -3.577050
  C     5.660939  9.520146 -4.602674
  C     6.752054  8.803029 -3.949988
  N     7.513633  4.623678 -4.402098
  N     5.737192  6.195796 -5.416568
  N     5.082202  5.714022 -1.548988
  N     7.819733  8.548124 -4.681072
  N     5.888586  9.734149 -5.905953
  N     5.193002  9.401117 -2.007817
  S     7.083451  5.302302 -5.915372
  S     4.435604  6.432057 -2.939627
  S     6.355528  4.640019 -1.855607
  S     7.435135  9.191173 -6.212882
  S     4.397864  9.841727 -3.423887
  S     6.656115  8.623070 -2.190628
