16  
    
  C     5.188080  6.294534 -4.560301
  C     6.463863  5.912976 -3.997042
  C     5.508035  9.477992 -4.037549
  C     6.825410  9.099602 -3.475920
  N     7.511847  5.891308 -4.834785
  N     5.273311  6.419168 -5.904054
  N     4.800902  5.788669 -2.104295
  N     7.838615  9.222733 -4.315747
  N     5.635606  9.930185 -5.290959
  N     5.126181  9.010085 -1.524429
  S     6.810303  6.170365 -6.383727
  S     3.963696  6.459461 -3.360548
  S     6.445878  5.558162 -2.325694
  S     7.211213  9.674295 -5.788842
  S     4.229750  9.283849 -2.948895
  S     6.670637  8.552740 -1.805257
