16  
    
  C     5.694753  5.796749 -4.431872
  C     6.986161  5.303693 -3.969919
  C     5.651689  9.098435 -4.088567
  C     6.941758  8.619147 -3.648309
  N     7.948584  5.339635 -4.875307
  N     5.764095  6.226780 -5.685482
  N     5.323548  5.169277 -1.914427
  N     7.928156  8.607664 -4.532978
  N     5.754740  9.519998 -5.356714
  N     5.497959  8.824744 -1.554339
  S     7.329130  6.076253 -6.189091
  S     4.456108  5.833072 -3.146729
  S     6.878167  4.802947 -2.302536
  S     7.244394  9.278640 -5.890859
  S     4.512380  9.394243 -2.755219
  S     7.029447  8.367743 -1.953193
