16  
    
  C     5.733865  5.717162 -4.221708
  C     6.957683  5.254257 -3.713057
  C     5.787195  9.680300 -4.393803
  C     7.029804  9.164168 -3.825315
  N     7.941175  5.251513 -4.606036
  N     5.745206  5.927911 -5.533274
  N     5.287282  5.174766 -1.790971
  N     8.032716  9.076183 -4.653758
  N     5.933186 10.095537 -5.651021
  N     5.252307  9.277779 -1.981975
  S     7.306202  5.826217 -6.003587
  S     4.422765  5.647241 -3.094933
  S     6.886169  4.834245 -2.038967
  S     7.458397  9.672326 -6.141313
  S     4.404940  9.791599 -3.309437
  S     6.824244  8.752876 -2.147907
