16  
    
  C     5.797628  5.772463 -3.925861
  C     6.935299  5.002879 -3.442091
  C     5.591264  9.617326 -4.131330
  C     6.815416  9.029357 -3.678730
  N     7.863221  4.854471 -4.374771
  N     6.017377  6.423833 -5.068278
  N     5.160581  5.018376 -1.522918
  N     7.821780  8.915163 -4.566963
  N     5.755981 10.119925 -5.348502
  N     5.184893  8.898255 -1.636560
  S     7.381297  5.852653 -5.685819
  S     4.434513  5.765296 -2.842548
  S     6.715347  4.598890 -1.797068
  S     7.280064  9.731258 -5.889502
  S     4.299503  9.629094 -2.900480
  S     6.760914  8.503874 -1.997789
