16  
    
  C     5.564481  5.756314 -4.484343
  C     6.839355  5.389703 -3.828971
  C     5.180469  9.798838 -4.390825
  C     6.343104  9.262137 -3.699752
  N     7.828838  5.195619 -4.688981
  N     5.673473  5.955295 -5.800510
  N     5.166776  5.742306 -1.974799
  N     7.256508  8.765294 -4.516753
  N     5.237731  9.766811 -5.701972
  N     4.589209  9.681923 -1.885124
  S     7.245352  5.545673 -6.215180
  S     4.286747  5.821314 -3.313248
  S     6.782891  5.332171 -2.121555
  S     6.761973  9.032220 -6.056906
  S     3.822728 10.036413 -3.340405
  S     6.180212  9.149289 -1.958787
