16  
    
  C     5.292133  5.788471 -4.490491
  C     6.517616  5.322001 -3.866465
  C     5.471415  9.591062 -4.440167
  C     6.602943  9.049593 -3.732388
  N     7.572497  5.178230 -4.693346
  N     5.446254  5.982714 -5.803816
  N     4.753734  5.724701 -1.983411
  N     7.577509  8.735463 -4.582103
  N     5.497299  9.555054 -5.756225
  N     4.692895  9.553719 -1.913003
  S     6.962775  5.533510 -6.198062
  S     3.987112  6.183608 -3.411031
  S     6.351274  5.212340 -2.134551
  S     7.019847  8.957378 -6.140542
  S     4.088564 10.058344 -3.398538
  S     6.175035  8.894942 -2.046333
