16  
    
  C     5.581883  6.099386 -4.338902
  C     6.798118  5.541336 -3.795909
  C     5.476919  9.582850 -4.250166
  C     6.735074  9.084414 -3.709154
  N     7.764637  5.351276 -4.691499
  N     5.570189  6.267752 -5.649294
  N     5.025567  5.643736 -1.905416
  N     7.755427  8.930323 -4.567415
  N     5.622583  9.921946 -5.531926
  N     5.104997  9.429762 -1.715932
  S     7.134843  5.877981 -6.153808
  S     4.300954  6.328164 -3.222805
  S     6.649855  5.378836 -2.099540
  S     7.150352  9.472659 -5.968760
  S     4.181465  9.684865 -3.130430
  S     6.679302  8.960232 -2.024312
