16  
    
  C     5.613259  5.866831 -4.425923
  C     6.797906  5.305340 -3.762397
  C     5.700148  9.544909 -4.247097
  C     6.868787  9.037141 -3.561123
  N     7.801695  4.997943 -4.569083
  N     5.677109  5.872515 -5.762219
  N     4.971666  5.568518 -1.944024
  N     7.899086  8.696814 -4.323513
  N     5.869719  9.659780 -5.561168
  N     5.079937  9.382741 -1.770457
  S     7.259744  5.413913 -6.065452
  S     4.338909  6.218973 -3.316402
  S     6.525896  4.976392 -2.074439
  S     7.314924  9.033151 -5.913836
  S     4.307438  9.836117 -3.190018
  S     6.563166  8.679630 -1.945312
