16  
    
  C     5.656601  6.080902 -4.521934
  C     6.849408  5.546308 -3.845782
  C     5.569813  9.700316 -4.421295
  C     6.754498  9.158610 -3.759431
  N     7.858810  5.347573 -4.682102
  N     5.793664  6.343046 -5.823389
  N     4.962133  5.853478 -2.002398
  N     7.826798  9.077991 -4.559376
  N     5.797287 10.080592 -5.668153
  N     4.922820  9.339861 -1.977110
  S     7.344176  5.832955 -6.133271
  S     4.275237  6.158262 -3.483607
  S     6.553865  5.460043 -2.116157
  S     7.275668  9.538735 -6.059502
  S     4.221494  9.882175 -3.449401
  S     6.470894  8.951995 -1.954808
