16  
    
  C     5.458430  5.890623 -4.358294
  C     6.670386  5.571678 -3.726732
  C     5.293084  9.594148 -4.335520
  C     6.561071  9.232778 -3.767261
  N     7.777527  5.585558 -4.458109
  N     5.578296  6.294679 -5.621102
  N     4.810312  5.413558 -1.919934
  N     7.591443  9.094733 -4.568333
  N     5.406492  9.658812 -5.659443
  N     4.939219  9.435717 -1.839759
  S     7.186897  6.050108 -5.976936
  S     4.072418  6.010539 -3.288647
  S     6.445517  5.184093 -2.026529
  S     7.011517  9.439526 -6.104360
  S     3.981890  9.682361 -3.134715
  S     6.562274  9.000752 -2.059149
