16  
    
  C     5.473406  5.810106 -4.372135
  C     6.732467  5.367547 -3.787730
  C     5.368271  9.732199 -4.592056
  C     6.619069  9.326461 -3.953980
  N     7.659377  5.183019 -4.718945
  N     5.550068  5.972353 -5.683749
  N     5.043757  5.692167 -1.879119
  N     7.630179  8.911731 -4.722480
  N     5.515623  9.767556 -5.899674
  N     4.846021  9.373735 -2.128905
  S     7.022358  5.477503 -6.192474
  S     4.166158  6.031046 -3.245314
  S     6.647653  5.311960 -2.117247
  S     7.090292  9.204364 -6.232972
  S     4.030954  9.739799 -3.546392
  S     6.472062  9.178044 -2.203985
