16  
    
  C     5.592569  5.935193 -4.383006
  C     6.863221  5.486068 -3.835079
  C     5.736130  9.397189 -4.277960
  C     6.993368  8.975420 -3.679079
  N     7.891424  5.454667 -4.706723
  N     5.633355  6.128162 -5.724654
  N     5.163739  5.589411 -1.824944
  N     8.022152  8.915612 -4.513368
  N     5.858646  9.621932 -5.587589
  N     5.250764  9.148270 -1.758642
  S     7.220899  5.985100 -6.133177
  S     4.318930  6.145717 -3.176094
  S     6.705736  5.141848 -2.164393
  S     7.373538  9.390767 -6.020377
  S     4.446803  9.490070 -3.126195
  S     6.879831  8.709508 -1.900795
