16  
    
  C     5.645911  5.875766 -4.476739
  C     6.916082  5.451187 -3.875740
  C     5.608789  9.492184 -4.251585
  C     6.922740  9.242722 -3.665125
  N     7.971885  5.296233 -4.742927
  N     5.698234  6.014149 -5.804056
  N     5.097028  5.427109 -1.992516
  N     7.938677  9.207576 -4.473584
  N     5.649464  9.642122 -5.556240
  N     5.182316  9.153119 -1.726098
  S     7.235312  5.624750 -6.204898
  S     4.315457  6.047022 -3.335279
  S     6.753921  5.228078 -2.147422
  S     7.275551  9.529802 -6.005675
  S     4.264312  9.329978 -3.100049
  S     6.737554  8.704351 -2.038627
