16  
    
  C     5.304982  6.230290 -4.424303
  C     6.325924  5.518580 -3.684763
  C     5.441872  9.627532 -4.263898
  C     6.581184  9.077270 -3.527773
  N     7.359975  5.023806 -4.400760
  N     5.464063  6.158358 -5.756970
  N     4.457847  6.145938 -1.954017
  N     7.628584  8.953918 -4.294186
  N     5.694772 10.023272 -5.517797
  N     4.875706  9.437238 -1.641228
  S     6.918735  5.418696 -5.973986
  S     3.997362  6.737823 -3.399420
  S     6.028630  5.566580 -1.927484
  S     7.247502  9.524806 -5.829828
  S     4.109396  9.695105 -3.137911
  S     6.403718  8.814836 -1.849987
