16  
    
  C     5.515631  5.615431 -4.305622
  C     6.705836  5.154013 -3.601295
  C     5.529956  9.222619 -4.253144
  C     6.735995  8.784889 -3.604871
  N     7.817632  4.958444 -4.311537
  N     5.737290  5.748751 -5.604255
  N     4.998408  5.657593 -1.759039
  N     7.787559  8.646272 -4.415061
  N     5.649301  9.460392 -5.557438
  N     4.902761  9.070339 -1.753510
  S     7.297404  5.332802 -5.846449
  S     4.257489  6.058084 -3.210958
  S     6.505471  4.991904 -1.946850
  S     7.213347  9.157466 -5.960808
  S     4.196636  9.587261 -3.190572
  S     6.520475  8.559335 -1.897010
