16  
    
  C     5.751910  5.353549 -4.279955
  C     6.949717  4.871703 -3.598755
  C     5.643656  9.477631 -4.486882
  C     6.732096  8.863243 -3.780119
  N     7.919419  4.717647 -4.478795
  N     5.817211  5.498220 -5.604952
  N     5.179373  5.340766 -1.768657
  N     7.857699  8.739565 -4.513991
  N     5.918011  9.731858 -5.766432
  N     4.846207  9.102584 -2.048751
  S     7.365436  5.081970 -6.009315
  S     4.380920  5.495495 -3.202250
  S     6.814585  4.950413 -1.834006
  S     7.491116  9.286738 -6.000560
  S     4.237576  9.681228 -3.485801
  S     6.453118  8.728671 -2.033697
