16  
    
  C     5.489482  5.898074 -4.495871
  C     6.763402  5.588145 -3.810719
  C     5.358637  9.724008 -4.407484
  C     6.567057  9.323157 -3.725955
  N     7.805388  5.513497 -4.627693
  N     5.657912  5.993478 -5.789132
  N     4.940323  5.834663 -2.005045
  N     7.453661  8.830675 -4.590114
  N     5.392956  9.671227 -5.748586
  N     4.820883  9.537630 -1.900792
  S     7.226205  5.694432 -6.210948
  S     4.137372  5.924056 -3.502342
  S     6.548214  5.452890 -2.107313
  S     6.931831  8.992680 -6.103965
  S     4.015581  9.917592 -3.309062
  S     6.438697  9.297613 -1.986842
