16  
    
  C     5.213503  6.370036 -4.690088
  C     6.453482  5.989145 -4.060598
  C     5.812192  9.780970 -4.361640
  C     7.024549  9.331879 -3.770148
  N     7.457216  5.729284 -4.954344
  N     5.288621  6.527612 -6.026885
  N     4.765877  6.434979 -2.142766
  N     8.000535  9.039423 -4.651012
  N     5.767983  9.853204 -5.694576
  N     5.301534  9.460707 -1.842585
  S     6.834503  6.065115 -6.367657
  S     3.958556  6.644816 -3.615237
  S     6.338703  5.986173 -2.344614
  S     7.372437  9.532791 -6.127221
  S     4.467653  9.872975 -3.240074
  S     6.860056  9.147890 -2.051642
