16  
    
  C     5.722281  5.791996 -4.532829
  C     6.916946  5.333429 -3.833146
  C     5.547001  9.399323 -4.239654
  C     6.859442  9.121249 -3.703375
  N     7.957103  5.131771 -4.643404
  N     5.898973  5.977807 -5.839401
  N     5.157593  5.776363 -2.012845
  N     7.830301  9.151464 -4.613130
  N     5.501599  9.798536 -5.472866
  N     5.098238  8.945065 -1.784514
  S     7.427028  5.411066 -6.189116
  S     4.400603  6.087338 -3.469747
  S     6.806332  5.306661 -2.098353
  S     7.110787  9.694624 -5.997355
  S     4.206603  9.373941 -3.153050
  S     6.721320  8.924620 -2.016440
