16  
    
  C     5.540690  6.036344 -4.378918
  C     6.651336  5.421714 -3.724660
  C     5.632966  9.522287 -4.304932
  C     6.871851  9.091392 -3.630608
  N     7.781206  5.352392 -4.437497
  N     5.777520  6.282748 -5.673393
  N     4.792145  5.679537 -1.945300
  N     7.834509  8.908286 -4.463158
  N     5.701780  9.676431 -5.622199
  N     5.212582  9.422947 -1.696679
  S     7.326669  5.801925 -5.973122
  S     4.237893  6.447094 -3.290098
  S     6.365979  5.076151 -1.983531
  S     7.282702  9.337944 -6.028623
  S     4.463172  9.831018 -3.083770
  S     6.742927  8.848953 -1.902460
