16  
    
  C     5.491170  5.817981 -4.138958
  C     6.485050  4.942131 -3.599999
  C     5.687027  9.426045 -4.525092
  C     6.820947  8.859315 -3.870390
  N     7.413903  4.597649 -4.468831
  N     5.719329  6.114113 -5.407947
  N     5.066189  5.670425 -1.626674
  N     7.835414  8.661571 -4.714618
  N     5.855175  9.651616 -5.842207
  N     5.067657  9.303818 -2.044110
  S     7.030221  5.224415 -5.910212
  S     4.352237  6.448837 -2.911380
  S     6.353232  4.600934 -1.857290
  S     7.389923  9.185451 -6.177798
  S     4.416400  9.900649 -3.438668
  S     6.601365  8.613055 -2.188094
