16  
    
  C     5.529559  5.401273 -4.129605
  C     6.923221  5.257850 -3.629982
  C     5.506521  9.322090 -4.592098
  C     6.671857  8.825294 -3.888918
  N     7.826047  5.258030 -4.612449
  N     5.404947  5.459319 -5.479399
  N     5.409542  5.227957 -1.518058
  N     7.768018  8.618567 -4.645553
  N     5.725246  9.506084 -5.879236
  N     4.781524  9.246562 -2.123014
  S     6.946263  5.432639 -6.038649
  S     4.392670  5.342665 -2.835368
  S     7.037267  5.122759 -1.879992
  S     7.296653  8.991260 -6.178999
  S     4.206875  9.811968 -3.561661
  S     6.280115  8.567103 -2.182992
