16  
    
  C     5.765376  5.504084 -4.267175
  C     7.086745  5.225652 -3.696146
  C     5.494201  9.324354 -4.387874
  C     6.643125  8.766230 -3.726759
  N     8.098012  5.172582 -4.533071
  N     5.844680  5.737306 -5.562468
  N     5.336107  5.196211 -1.784338
  N     7.564465  8.335420 -4.590392
  N     5.572654  9.475760 -5.723989
  N     4.872666  9.443105 -1.891096
  S     7.417111  5.408817 -6.030071
  S     4.524318  5.572902 -3.142023
  S     6.953040  4.932175 -1.999923
  S     7.111284  8.795795 -6.116506
  S     4.155710  9.754601 -3.373188
  S     6.350654  8.715929 -2.020931
