16  
    
  C     5.242284  5.250369 -3.993185
  C     6.463189  4.906739 -3.222472
  C     5.327995  9.498513 -4.198153
  C     6.555459  9.104067 -3.533991
  N     7.503253  4.839724 -4.025451
  N     5.413857  5.390698 -5.324820
  N     4.661667  5.188432 -1.456133
  N     7.590566  8.895183 -4.338719
  N     5.393563  9.468171 -5.507535
  N     4.720095  9.143556 -1.705899
  S     7.041436  5.119164 -5.598847
  S     3.804276  5.240860 -2.927630
  S     6.297367  4.728594 -1.509598
  S     7.047376  9.032731 -5.890565
  S     4.000228  9.644831 -3.119952
  S     6.335069  8.808056 -1.786284
