16  
    
  C     5.322333  5.781926 -4.450873
  C     6.546526  5.374563 -3.897553
  C     5.325037  9.604293 -4.552713
  C     6.475900  9.067929 -3.874497
  N     7.590292  5.224089 -4.725703
  N     5.342718  5.988321 -5.779684
  N     4.895001  5.733336 -1.903300
  N     7.510181  8.726422 -4.619759
  N     5.501408  9.561912 -5.851387
  N     4.812158  9.662271 -2.011700
  S     6.880821  5.589403 -6.214418
  S     4.029936  6.120268 -3.279209
  S     6.480252  5.261046 -2.176595
  S     7.038895  9.064460 -6.164348
  S     4.059107 10.080162 -3.483899
  S     6.383193  9.034882 -2.112406
