16  
    
  C     5.849219  5.524311 -4.000599
  C     7.111365  5.155569 -3.360465
  C     5.489683  9.383177 -4.222273
  C     6.619824  8.765991 -3.558895
  N     8.036486  5.004407 -4.318561
  N     5.823174  5.645376 -5.341157
  N     5.371782  5.193409 -1.504591
  N     7.648302  8.484290 -4.338534
  N     5.624108  9.493520 -5.526793
  N     4.740975  9.267836 -1.748173
  S     7.400944  5.375693 -5.817014
  S     4.503119  5.539718 -2.886855
  S     7.062801  4.853877 -1.637135
  S     7.188439  8.852129 -5.888361
  S     4.178818  9.797852 -3.243903
  S     6.182754  8.418721 -1.836923
