16  
    
  C     5.205063  6.214164 -4.313810
  C     6.374037  5.775762 -3.606685
  C     5.642885  9.577106 -4.058143
  C     6.845537  9.013692 -3.519685
  N     7.458319  5.479724 -4.328743
  N     5.302009  6.127815 -5.648240
  N     4.474739  5.866115 -1.835739
  N     7.777031  8.669139 -4.391354
  N     5.702677  9.707037 -5.367249
  N     5.175461  9.503330 -1.491506
  S     6.897332  5.738148 -5.931470
  S     3.751334  6.493710 -3.261190
  S     6.098897  5.599514 -1.864134
  S     7.131201  9.027674 -5.893096
  S     4.405668  9.925511 -2.863714
  S     6.697800  8.888900 -1.741846
