16  
    
  C     5.212535  6.412405 -4.643680
  C     6.480655  6.106757 -3.968652
  C     5.740276  9.695586 -4.443481
  C     6.964019  9.318051 -3.815281
  N     7.498891  5.817643 -4.750491
  N     5.296166  6.442416 -5.970123
  N     4.742408  6.334331 -2.126465
  N     7.940847  9.128667 -4.654635
  N     5.822843  9.730987 -5.787095
  N     5.344163  9.445194 -1.875465
  S     6.845816  6.041350 -6.308547
  S     3.993655  6.770426 -3.515037
  S     6.371724  5.967044 -2.300430
  S     7.400968  9.439279 -6.169101
  S     4.468623  9.775454 -3.178983
  S     6.946395  9.066318 -2.147608
