16  
    
  C     5.339926  6.089372 -4.361527
  C     6.556854  5.454288 -3.806126
  C     5.420393  9.171364 -4.349035
  C     6.683039  8.910977 -3.643848
  N     7.525036  5.279851 -4.703642
  N     5.429587  6.344362 -5.673545
  N     4.752209  5.541572 -1.937778
  N     7.684090  8.725091 -4.480632
  N     5.556909  9.281539 -5.659108
  N     4.936439  9.300224 -1.860163
  S     6.993857  5.836476 -6.123727
  S     4.007926  6.183959 -3.219225
  S     6.384075  5.341195 -2.071524
  S     7.182992  9.102250 -5.984205
  S     4.035839  9.216841 -3.184112
  S     6.579847  8.757885 -1.965031
