16  
    
  C     5.512289  5.995028 -4.381299
  C     6.714132  5.705075 -3.770101
  C     5.527551  9.377069 -4.498742
  C     6.800892  9.143989 -3.867247
  N     7.685669  5.464817 -4.597908
  N     5.580909  6.121388 -5.690673
  N     4.957612  5.783924 -1.920583
  N     7.906155  9.183765 -4.622033
  N     5.686678  9.543945 -5.786012
  N     4.995493  9.294408 -1.979386
  S     7.147422  5.769276 -6.093907
  S     4.155408  6.180141 -3.304083
  S     6.644691  5.578998 -2.077774
  S     7.344752  9.323220 -6.151977
  S     4.121170  9.418607 -3.347560
  S     6.693869  8.915563 -2.123779
