16  
    
  C     5.788084  5.408154 -4.250470
  C     6.974703  4.990447 -3.513784
  C     5.684513  9.537890 -4.396990
  C     6.845929  8.958248 -3.764423
  N     8.043149  4.781774 -4.263265
  N     6.003474  5.542740 -5.571755
  N     5.108000  5.317606 -1.749217
  N     7.907401  8.784219 -4.548008
  N     5.887896  9.892870 -5.657545
  N     4.929825  9.116945 -2.015525
  S     7.566802  5.103268 -5.848907
  S     4.389292  5.641301 -3.188312
  S     6.737229  4.814507 -1.882886
  S     7.425527  9.473544 -6.037147
  S     4.265909  9.671761 -3.408519
  S     6.529504  8.651113 -2.043208
