16  
    
  C     5.325058  5.588087 -4.412326
  C     6.447638  5.084490 -3.669908
  C     5.477975  9.126060 -4.313952
  C     6.685529  8.651574 -3.673596
  N     7.476428  4.777778 -4.422988
  N     5.543078  5.834229 -5.685935
  N     4.603949  5.317354 -1.962323
  N     7.667734  8.371858 -4.520263
  N     5.575502  9.348393 -5.627840
  N     4.909968  8.808483 -1.852400
  S     7.128696  5.205730 -5.941512
  S     3.997260  5.883501 -3.393382
  S     6.230029  4.902863 -2.002186
  S     7.122215  8.849725 -6.055806
  S     4.165634  9.367621 -3.239879
  S     6.527335  8.514356 -1.889096
