16  
    
  C     5.641024  5.813618 -4.365374
  C     6.875771  5.144790 -3.927151
  C     5.763761  9.222019 -4.060429
  C     7.025785  8.736430 -3.555059
  N     7.909073  5.243978 -4.759738
  N     5.767087  6.337072 -5.593902
  N     5.382284  5.239445 -1.876743
  N     7.954889  8.758281 -4.485800
  N     5.672161  9.435902 -5.367072
  N     5.380310  8.819425 -1.526879
  S     7.291168  6.008144 -6.121448
  S     4.453878  5.893397 -3.125050
  S     6.953743  4.776666 -2.231719
  S     7.228994  9.202074 -5.914955
  S     4.552844  9.295230 -2.896068
  S     6.973343  8.289250 -1.849176
