16  
    
  C     5.453456  5.185979 -4.220803
  C     6.752910  5.044309 -3.615088
  C     5.409317  9.204759 -4.511883
  C     6.570917  8.646432 -3.842580
  N     7.783998  5.009712 -4.445201
  N     5.515204  5.241911 -5.570553
  N     5.148281  5.270936 -1.632577
  N     7.577898  8.418424 -4.675932
  N     5.524341  9.405434 -5.823573
  N     4.811760  9.086611 -1.946136
  S     7.093863  5.137042 -5.994281
  S     4.268770  5.124096 -2.994001
  S     6.786685  5.088751 -1.873049
  S     7.077739  8.878480 -6.206183
  S     4.071956  9.544692 -3.394492
  S     6.453500  8.730112 -2.081359
