16  
    
  C     5.594425  6.082411 -4.482434
  C     6.793717  5.783652 -3.735134
  C     5.512528  9.638526 -4.493017
  C     6.678305  9.174846 -3.755382
  N     7.848930  5.563012 -4.541038
  N     5.782276  6.153374 -5.797857
  N     4.907485  5.975309 -1.928448
  N     7.799271  9.085630 -4.443173
  N     5.719406  9.839429 -5.813507
  N     4.899520  9.478014 -1.973347
  S     7.381193  5.805873 -6.101850
  S     4.300112  6.376909 -3.386669
  S     6.519146  5.577460 -2.068108
  S     7.379931  9.351898 -5.988494
  S     4.192214  9.899324 -3.346156
  S     6.528107  8.967595 -2.075184
