16  
    
  C     5.349961  5.725428 -4.424404
  C     6.617152  5.430396 -3.790645
  C     5.241561  9.964708 -4.647388
  C     6.470422  9.481903 -4.005871
  N     7.691038  5.400753 -4.640901
  N     5.450920  5.994518 -5.718823
  N     4.881826  5.609747 -1.894024
  N     7.504350  9.415970 -4.812392
  N     5.399775 10.232728 -5.956798
  N     4.738548  9.693709 -2.182808
  S     7.001095  5.847335 -6.198060
  S     4.026660  5.790136 -3.281849
  S     6.519789  5.192382 -2.096697
  S     7.066523  9.955778 -6.310857
  S     3.959548 10.140401 -3.546711
  S     6.288332  9.153402 -2.286133
