16  
    
  C     5.251210  6.288580 -4.318433
  C     6.359392  5.620940 -3.651626
  C     5.571343  9.547284 -4.254590
  C     6.811345  9.040862 -3.677434
  N     7.321507  5.277019 -4.526474
  N     5.485683  6.490030 -5.617779
  N     4.650353  6.278521 -1.868615
  N     7.846595  8.843133 -4.474644
  N     5.719635  9.740725 -5.549470
  N     5.121978  9.485266 -1.698470
  S     7.013581  5.909874 -6.005385
  S     3.891074  6.698340 -3.302668
  S     6.125939  5.565560 -1.972642
  S     7.280489  9.276079 -5.984503
  S     4.309609  9.829760 -3.062113
  S     6.638132  8.950889 -1.914628
