16  
    
  C     5.317330  6.021708 -4.427388
  C     6.529145  5.528997 -3.824099
  C     5.394442  9.228694 -4.408384
  C     6.600707  8.862580 -3.751628
  N     7.560535  5.271865 -4.650184
  N     5.451248  6.377085 -5.694453
  N     4.797847  5.576470 -1.834399
  N     7.705423  8.707604 -4.459456
  N     5.592956  9.306617 -5.734682
  N     4.980294  9.261630 -1.802465
  S     6.960728  5.863197 -6.162119
  S     4.047241  6.201342 -3.183108
  S     6.410760  5.373905 -2.086853
  S     7.229440  9.151758 -5.997745
  S     4.084156  9.164128 -3.265866
  S     6.559575  8.788973 -2.023940
