16  
    
  C     5.621479  5.744423 -4.314710
  C     6.674709  5.020184 -3.628313
  C     5.441557  9.284598 -4.184292
  C     6.581370  8.716765 -3.530698
  N     7.690880  4.723224 -4.379753
  N     5.863433  6.039062 -5.592009
  N     4.995807  5.534178 -1.766346
  N     7.576448  8.396437 -4.363780
  N     5.538686  9.383650 -5.496367
  N     4.789695  8.996407 -1.723349
  S     7.313908  5.242165 -5.934749
  S     4.363058  6.077918 -3.171303
  S     6.589707  4.958770 -1.931265
  S     7.058825  8.864714 -5.923186
  S     4.100624  9.515740 -3.139688
  S     6.424578  8.536215 -1.798883
