16  
    
  C     5.519442  6.149113 -4.400417
  C     6.725113  5.654428 -3.798892
  C     5.487969  9.802513 -4.220117
  C     6.649744  9.264168 -3.552113
  N     7.725115  5.475191 -4.640441
  N     5.691886  6.505031 -5.653230
  N     4.991757  5.686673 -1.902449
  N     7.596956  8.991403 -4.469668
  N     5.483120  9.898329 -5.579500
  N     4.883156  9.526364 -1.672938
  S     7.276385  5.974968 -6.153678
  S     4.267028  6.360257 -3.235604
  S     6.513079  5.186533 -2.137450
  S     7.071916  9.421441 -5.948428
  S     4.131504  9.991368 -3.083116
  S     6.548515  9.046950 -1.809697
