16  
    
  C     5.474288  5.873992 -4.555461
  C     6.710445  5.545350 -3.838727
  C     5.590199  9.341975 -4.174653
  C     6.858204  8.984124 -3.531715
  N     7.788390  5.426802 -4.642294
  N     5.551148  5.892336 -5.905117
  N     4.880512  5.769547 -1.956141
  N     7.900535  8.907708 -4.331419
  N     5.686931  9.403399 -5.475212
  N     5.146063  9.403448 -1.672060
  S     7.157501  5.523012 -6.177979
  S     4.195118  6.248817 -3.391108
  S     6.534128  5.358778 -2.070875
  S     7.318473  9.311094 -5.827696
  S     4.284559  9.580959 -3.083754
  S     6.691567  8.843872 -1.793887
