16  
    
  C     5.239999  5.972397 -4.297453
  C     6.476426  5.465446 -3.676271
  C     5.379913  9.497100 -4.108933
  C     6.588869  8.910985 -3.556325
  N     7.427242  5.065096 -4.530412
  N     5.263041  6.009753 -5.622509
  N     4.712967  5.698113 -1.795629
  N     7.515410  8.476217 -4.382433
  N     5.522174  9.648998 -5.375678
  N     4.960971  9.209353 -1.605282
  S     6.798550  5.524673 -6.054359
  S     3.829689  6.059706 -3.178058
  S     6.317700  5.291473 -1.944305
  S     6.912684  8.922644 -5.887692
  S     4.116449  9.703276 -2.942753
  S     6.588845  8.919260 -1.816562
