16  
    
  C     5.331111  5.583835 -4.195558
  C     6.407174  4.843980 -3.587856
  C     5.565958  9.548240 -4.448375
  C     6.774791  9.112104 -3.773660
  N     7.319168  4.526712 -4.475598
  N     5.445761  5.900945 -5.479330
  N     4.814692  5.403353 -1.650065
  N     7.759879  8.765370 -4.585530
  N     5.663082  9.641453 -5.769611
  N     4.961823  9.135479 -1.959028
  S     6.797312  5.044476 -6.001247
  S     4.053447  6.082089 -3.002463
  S     6.275268  4.633869 -1.804334
  S     7.273156  9.079936 -6.123320
  S     4.250191  9.793291 -3.345415
  S     6.579699  8.813785 -2.044289
