16  
    
  C     5.294087  6.022086 -4.380445
  C     6.531601  5.512641 -3.784844
  C     5.414334  9.186284 -4.462189
  C     6.650504  8.831732 -3.748888
  N     7.495765  5.342401 -4.660686
  N     5.459377  6.331497 -5.682813
  N     4.852050  5.645095 -1.850508
  N     7.745165  8.770758 -4.507520
  N     5.593378  9.423260 -5.761446
  N     4.940000  9.210409 -1.859996
  S     6.959687  5.873867 -6.168811
  S     4.062372  6.228141 -3.201312
  S     6.477382  5.371746 -2.081132
  S     7.234603  9.156614 -6.023810
  S     4.132943  9.156622 -3.306891
  S     6.533519  8.802693 -2.034501
