16  
    
  C     5.759858  5.764172 -4.353987
  C     6.951540  5.240648 -3.724871
  C     5.694538  9.399233 -4.334730
  C     6.914480  8.818026 -3.832506
  N     7.946486  5.065333 -4.552114
  N     5.913451  6.008844 -5.635196
  N     5.122977  5.338885 -1.937550
  N     7.935701  8.950882 -4.699182
  N     5.833757 10.023094 -5.497361
  N     5.226216  8.852424 -1.844403
  S     7.472299  5.597238 -6.084612
  S     4.417511  5.849200 -3.308455
  S     6.769527  4.972159 -2.009489
  S     7.414950  9.744013 -5.981833
  S     4.355713  9.412883 -3.171474
  S     6.902053  8.654825 -2.108843
