16  
    
  C     5.398580  5.934325 -4.354536
  C     6.645048  5.603803 -3.813182
  C     5.632169  9.374238 -4.449297
  C     6.845424  9.040971 -3.761120
  N     7.633876  5.446958 -4.669079
  N     5.438954  6.168254 -5.648845
  N     4.974528  5.897950 -1.807789
  N     7.857512  8.929325 -4.619255
  N     5.629072  9.472955 -5.769950
  N     4.883786  9.079301 -1.993526
  S     6.948338  5.885915 -6.167350
  S     4.165174  6.277245 -3.209291
  S     6.545008  5.397310 -2.092347
  S     7.218741  9.257370 -6.170293
  S     4.131539  9.225062 -3.487041
  S     6.572099  8.787648 -2.058458
