16  
    
  C     5.772924  5.648344 -4.279597
  C     6.982774  5.259949 -3.599445
  C     5.193986  9.894870 -4.666667
  C     6.305163  9.306365 -3.903964
  N     7.951000  4.960573 -4.463048
  N     5.852342  5.771491 -5.570448
  N     5.164954  5.610352 -1.805143
  N     7.295687  8.915593 -4.720665
  N     5.349362  9.929482 -6.015319
  N     4.530210  9.724968 -2.173397
  S     7.391661  5.296116 -5.998527
  S     4.389768  5.795524 -3.246004
  S     6.785081  5.198838 -1.887439
  S     6.860639  9.354771 -6.247824
  S     3.828085 10.218382 -3.635244
  S     6.044830  9.161116 -2.184249
