16  
    
  C     5.591520  6.040639 -4.303985
  C     6.747425  5.463392 -3.665773
  C     5.901353  9.100695 -4.080569
  C     7.140284  8.778481 -3.443368
  N     7.764627  5.196369 -4.473065
  N     5.737489  6.266658 -5.605291
  N     4.913230  5.503525 -1.866614
  N     8.187029  8.852948 -4.298149
  N     5.962756  9.314099 -5.393105
  N     5.440442  9.069038 -1.534395
  S     7.228043  5.571508 -6.007434
  S     4.268051  6.284176 -3.191537
  S     6.516321  5.163873 -1.908013
  S     7.613650  9.182141 -5.798137
  S     4.571438  9.285861 -2.936280
  S     6.981852  8.512892 -1.769638
