16  
    
  C     5.732872  5.532093 -4.348369
  C     7.024598  5.208057 -3.714235
  C     5.422959  9.368452 -4.490433
  C     6.582044  8.873836 -3.770385
  N     8.020067  5.060795 -4.595280
  N     5.852657  5.585213 -5.655750
  N     5.171460  5.310801 -1.844247
  N     7.598644  8.623590 -4.562670
  N     5.572774  9.434713 -5.823494
  N     4.957137  9.515747 -1.976769
  S     7.429002  5.332163 -6.094059
  S     4.386998  5.521016 -3.272689
  S     6.840583  4.958866 -1.928817
  S     7.114592  8.870539 -6.111753
  S     4.104550  9.756600 -3.381117
  S     6.436043  8.727750 -2.072295
