16  
    
  C     5.492965  5.745997 -4.384863
  C     6.686291  5.393839 -3.656597
  C     5.646004  9.076879 -4.188368
  C     6.896578  8.897594 -3.509251
  N     7.670202  5.043894 -4.480707
  N     5.562427  5.710157 -5.696282
  N     4.794834  5.518971 -1.975951
  N     7.919524  8.626181 -4.307511
  N     5.699039  9.047092 -5.495444
  N     5.208290  9.348793 -1.663105
  S     7.148016  5.192084 -6.020323
  S     4.113123  5.982354 -3.451752
  S     6.421723  5.319617 -1.962541
  S     7.314682  8.681093 -5.853186
  S     4.362422  9.323984 -3.099485
  S     6.871119  9.087023 -1.791359
