16  
    
  C     5.583683  6.289972 -4.458534
  C     6.717890  5.792142 -3.768910
  C     5.582252  9.595011 -4.447750
  C     6.781023  9.166874 -3.758116
  N     7.766547  5.486189 -4.547558
  N     5.655879  6.366747 -5.796052
  N     4.864659  6.096814 -1.929202
  N     7.814342  8.960537 -4.548479
  N     5.779546  9.766899 -5.757570
  N     5.073342  9.575954 -1.896928
  S     7.223993  5.851565 -6.089834
  S     4.206601  6.530385 -3.339208
  S     6.493768  5.817313 -2.008484
  S     7.291181  9.226815 -6.111495
  S     4.297869  9.865024 -3.359277
  S     6.693236  9.111560 -2.012613
