16  
    
  C     5.542782  5.696935 -4.622671
  C     6.870286  5.563373 -4.047631
  C     5.458750  9.702518 -4.105869
  C     6.727042  9.292634 -3.567113
  N     7.890230  5.565532 -4.905603
  N     5.623733  5.796066 -5.923555
  N     5.104789  5.357620 -2.139972
  N     7.741905  9.337976 -4.462479
  N     5.474709  9.960953 -5.425478
  N     4.859645  9.195763 -1.719029
  S     7.195326  5.891483 -6.370351
  S     4.187701  5.481540 -3.500856
  S     6.782653  5.319887 -2.243550
  S     7.072078  9.743004 -5.908702
  S     4.052728  9.749150 -3.116771
  S     6.437581  8.833998 -1.899655
