16  
    
  C     5.329727  6.382594 -4.437636
  C     6.599879  6.057108 -3.767047
  C     5.461652  9.738431 -4.423000
  C     6.713598  9.417102 -3.785116
  N     7.656851  5.942246 -4.611598
  N     5.461301  6.446961 -5.767654
  N     4.787142  6.178801 -1.946291
  N     7.769563  9.320457 -4.546534
  N     5.565329  9.918958 -5.725492
  N     5.021668  9.366330 -1.824642
  S     7.102751  6.175079 -6.086382
  S     3.939994  6.493847 -3.368069
  S     6.393458  5.812566 -2.023752
  S     7.239025  9.631196 -6.090659
  S     4.191341  9.742522 -3.226376
  S     6.737424  9.074894 -2.036808
