16  
    
  C     5.526523  5.881841 -4.372847
  C     6.762246  5.308987 -3.895284
  C     5.424627  9.886632 -4.583952
  C     6.647667  9.219090 -4.073433
  N     7.773158  5.205732 -4.794757
  N     5.529971  6.042871 -5.704282
  N     5.160244  5.567334 -1.831477
  N     7.549863  8.863991 -4.967643
  N     5.534102 10.077266 -5.871354
  N     5.063331  9.825244 -2.107586
  S     7.035108  5.658009 -6.276797
  S     4.296019  6.119050 -3.184682
  S     6.713223  4.987111 -2.140131
  S     6.888888  9.300051 -6.476970
  S     4.232183 10.364234 -3.485070
  S     6.479052  9.069471 -2.305707
