16  
    
  C     5.474543  5.697889 -4.274913
  C     6.549055  5.125092 -3.576863
  C     5.911447  9.200591 -3.966340
  C     7.140246  8.668772 -3.416213
  N     7.601300  4.864003 -4.372855
  N     5.685405  5.898637 -5.575835
  N     4.905463  5.838363 -1.773671
  N     8.131327  8.558372 -4.251743
  N     6.024715  9.509062 -5.268114
  N     5.421139  8.517399 -1.478378
  S     7.224031  5.382176 -5.902926
  S     4.175226  6.126046 -3.227504
  S     6.436367  5.182030 -1.816486
  S     7.525561  9.073699 -5.718468
  S     4.572565  8.976101 -2.805860
  S     7.096779  8.424213 -1.681942
