16  
    
  C     5.468750  5.828018 -4.494965
  C     6.696027  5.522582 -3.792667
  C     5.618636  9.264109 -4.077325
  C     6.892507  8.918294 -3.476915
  N     7.753577  5.490303 -4.601934
  N     5.631600  6.107619 -5.773911
  N     4.943184  5.700230 -1.968312
  N     7.835526  8.697831 -4.349954
  N     5.645270  9.451755 -5.386469
  N     5.096847  8.753233 -1.631159
  S     7.239375  5.794782 -6.164158
  S     4.179788  5.861684 -3.389425
  S     6.583120  5.498379 -2.062766
  S     7.244756  9.051027 -5.825209
  S     4.281009  9.166703 -3.081919
  S     6.765375  8.649281 -1.745421
