16  
    
  C     5.542931  5.774569 -4.544946
  C     6.768787  5.545700 -3.841291
  C     5.111164  9.431358 -4.475135
  C     6.275470  9.030851 -3.702734
  N     7.828170  5.493854 -4.642334
  N     5.650892  5.888318 -5.864084
  N     4.916102  5.601188 -2.046825
  N     7.337183  8.765456 -4.478816
  N     5.276883  9.346777 -5.800135
  N     4.575710 10.031455 -2.013816
  S     7.266828  5.639782 -6.183176
  S     4.151559  5.944035 -3.487909
  S     6.556310  5.338886 -2.114075
  S     6.831326  9.045452 -6.075435
  S     3.885017 10.205596 -3.510898
  S     6.105336  9.278442 -1.934660
