16  
    
  C     5.387097  6.082206 -4.371148
  C     6.604429  5.739301 -3.782999
  C     5.476908  9.754350 -4.399394
  C     6.671979  9.376671 -3.673891
  N     7.657220  5.722120 -4.609444
  N     5.405577  6.182379 -5.694026
  N     4.886585  5.944857 -1.897577
  N     7.665514  9.115914 -4.486956
  N     5.552989  9.832264 -5.709550
  N     4.883175  9.386657 -1.845432
  S     7.036584  5.846792 -6.150117
  S     4.050969  6.222116 -3.306118
  S     6.547839  5.619931 -2.000345
  S     7.172198  9.422337 -5.992736
  S     4.145302  9.942945 -3.239186
  S     6.477926  8.981392 -1.978487
