16  
    
  C     5.318623  6.153036 -4.418220
  C     6.555136  5.770046 -3.773455
  C     5.601011  9.597873 -4.317584
  C     6.781489  9.201210 -3.607131
  N     7.577436  5.510933 -4.598326
  N     5.398965  6.313817 -5.745010
  N     4.890404  6.127096 -1.896657
  N     7.789494  9.178318 -4.465592
  N     5.668632  9.773532 -5.628800
  N     4.957374  9.266248 -1.856393
  S     6.954474  5.915495 -6.059884
  S     4.102919  6.527565 -3.248758
  S     6.444353  5.560047 -2.043405
  S     7.242321  9.461322 -6.040463
  S     4.206460  9.663205 -3.242794
  S     6.644069  8.946294 -1.910897
