16  
    
  C     5.530514  5.486832 -4.198299
  C     6.767045  5.088991 -3.540487
  C     5.394295  9.222978 -4.276977
  C     6.545928  8.603386 -3.707779
  N     7.873403  5.028966 -4.283473
  N     5.692786  5.461090 -5.512733
  N     4.998478  5.360978 -1.710430
  N     7.501296  8.372482 -4.580144
  N     5.403086  9.316453 -5.607431
  N     4.884793  9.070388 -1.773855
  S     7.351509  5.142109 -5.831879
  S     4.212159  5.776300 -3.080428
  S     6.585076  4.804655 -1.843954
  S     6.922936  8.889067 -6.068135
  S     4.209788  9.714735 -3.141345
  S     6.448401  8.468337 -1.985241
