16  
    
  C     5.407493  6.583653 -4.531112
  C     6.499022  5.946871 -3.820121
  C     5.500055 10.083417 -4.329132
  C     6.705412  9.774321 -3.674882
  N     7.541900  5.572092 -4.497703
  N     5.653701  6.723733 -5.826245
  N     4.764743  6.444298 -2.022061
  N     7.767568  9.797090 -4.457050
  N     5.659499 10.304219 -5.619510
  N     4.940279  9.900452 -1.846490
  S     7.136930  6.076905 -6.117329
  S     4.032305  6.838999 -3.447514
  S     6.325741  5.802775 -2.106326
  S     7.263993 10.030960 -5.990213
  S     4.088701 10.206465 -3.270566
  S     6.567981  9.434204 -1.975641
