16  
    
  C     5.355757  6.046018 -4.232365
  C     6.573172  5.470228 -3.654232
  C     5.539566  9.628189 -4.318539
  C     6.683403  9.073085 -3.567412
  N     7.547104  5.250106 -4.535363
  N     5.459585  6.210260 -5.548086
  N     4.879376  5.653207 -1.761789
  N     7.684028  8.918541 -4.380597
  N     5.702289  9.911937 -5.580977
  N     4.832799  9.383198 -1.824913
  S     6.990803  5.672811 -6.008400
  S     4.127084  6.272105 -3.090738
  S     6.467634  5.187671 -1.947299
  S     7.272309  9.427927 -5.846971
  S     4.169479  9.718195 -3.293383
  S     6.376609  8.748034 -1.888808
