16  
    
  C     5.511922  5.141531 -4.171309
  C     6.899952  5.098244 -3.685634
  C     5.419085  9.212077 -4.540334
  C     6.578140  8.759108 -3.816542
  N     7.863084  5.149060 -4.605910
  N     5.476822  5.139191 -5.491617
  N     5.232914  5.214476 -1.673574
  N     7.639247  8.495401 -4.541114
  N     5.585060  9.309003 -5.863114
  N     4.809990  9.099232 -2.040442
  S     7.016479  5.106341 -6.081673
  S     4.235735  5.265422 -3.058923
  S     6.858476  5.033477 -1.906984
  S     7.187335  8.928362 -6.129868
  S     4.077440  9.566632 -3.456899
  S     6.393678  8.732775 -2.147299
