16  
    
  C     5.526047  6.375469 -4.432342
  C     6.705720  5.788026 -3.752242
  C     5.632558  9.696662 -4.414729
  C     6.841254  9.375797 -3.737715
  N     7.747942  5.557295 -4.501520
  N     5.694840  6.438135 -5.725947
  N     4.868246  6.284033 -1.994877
  N     7.890576  9.301109 -4.575547
  N     5.813765  9.947225 -5.722626
  N     5.029362  9.612506 -1.925706
  S     7.207188  6.014024 -6.093613
  S     4.157352  6.686817 -3.447629
  S     6.516527  5.829905 -2.008075
  S     7.323308  9.537189 -6.138114
  S     4.284281  9.865312 -3.421036
  S     6.657117  9.319913 -1.933262
