16  
    
  C     5.530439  5.770600 -4.528731
  C     6.789780  5.544378 -3.785997
  C     5.069782  9.445127 -4.461603
  C     6.241647  8.994892 -3.728109
  N     7.789709  5.481690 -4.640207
  N     5.665483  5.907986 -5.831340
  N     4.962988  5.606672 -2.046601
  N     7.313322  8.776897 -4.505253
  N     5.266149  9.374115 -5.802630
  N     4.582841 10.032267 -1.982796
  S     7.264271  5.616775 -6.214501
  S     4.182473  5.926718 -3.489483
  S     6.554619  5.331515 -2.104909
  S     6.845817  9.048139 -6.069127
  S     3.888477 10.194057 -3.498300
  S     6.081509  9.277239 -1.928263
