16  
    
  C     5.588794  5.545111 -4.398974
  C     6.858226  5.335855 -3.727659
  C     5.709018  9.357437 -4.061650
  C     6.936304  8.840369 -3.492446
  N     7.944452  5.129723 -4.500730
  N     5.695090  5.524424 -5.753755
  N     5.068648  5.696237 -1.895472
  N     7.920415  8.773176 -4.360126
  N     5.836812  9.833378 -5.293073
  N     5.201536  8.985956 -1.622657
  S     7.292480  5.300981 -6.058887
  S     4.336079  5.870110 -3.318047
  S     6.663121  5.281568 -1.978672
  S     7.356653  9.513694 -5.761800
  S     4.427638  9.672080 -2.913625
  S     6.809294  8.579803 -1.809436
