16  
    
  C     5.601306  5.457919 -4.248604
  C     6.777722  5.099996 -3.515906
  C     5.359423  9.213025 -4.283748
  C     6.555659  8.637504 -3.696844
  N     7.833988  4.991016 -4.303608
  N     5.727046  5.622918 -5.574805
  N     5.036583  5.386915 -1.693365
  N     7.492587  8.315965 -4.612696
  N     5.443530  9.386268 -5.591670
  N     4.917994  9.097815 -1.757236
  S     7.323155  5.159382 -5.833216
  S     4.294314  5.851472 -3.119208
  S     6.548925  4.824266 -1.839038
  S     6.950332  8.866046 -6.029647
  S     4.165990  9.681470 -3.126647
  S     6.437352  8.458704 -1.920041
