16  
    
  C     5.349062  5.727784 -4.402926
  C     6.614466  5.404951 -3.797549
  C     5.232415  9.969814 -4.644541
  C     6.482251  9.474847 -4.025083
  N     7.687269  5.391692 -4.639773
  N     5.452386  5.980759 -5.696700
  N     4.872053  5.609561 -1.883935
  N     7.518259  9.395146 -4.820747
  N     5.402529 10.262524 -5.918830
  N     4.711422  9.710890 -2.189263
  S     6.996570  5.831650 -6.194986
  S     4.038713  5.769629 -3.283466
  S     6.519024  5.204441 -2.086592
  S     7.058046  9.943197 -6.314965
  S     3.970444 10.152392 -3.539953
  S     6.283385  9.144505 -2.278760
