16  
    
  C     5.300970  5.567786 -4.187829
  C     6.394359  4.840724 -3.586704
  C     5.560184  9.543983 -4.461610
  C     6.765550  9.104737 -3.764613
  N     7.339907  4.524534 -4.465857
  N     5.426666  5.888958 -5.480767
  N     4.792828  5.383921 -1.649525
  N     7.756806  8.752995 -4.559477
  N     5.659861  9.650286 -5.764339
  N     4.965733  9.149784 -1.943446
  S     6.790224  5.032670 -6.003480
  S     4.025446  6.060455 -3.009033
  S     6.278338  4.632541 -1.806032
  S     7.258832  9.081205 -6.111388
  S     4.229878  9.773754 -3.334068
  S     6.581373  8.836875 -2.055338
