16  
    
  C     5.654276  5.284810 -4.281265
  C     6.959418  5.019297 -3.665058
  C     5.570766  9.382156 -4.517108
  C     6.713509  8.949272 -3.753649
  N     7.893411  4.705090 -4.542112
  N     5.647969  5.359106 -5.601082
  N     5.248963  5.304951 -1.721170
  N     7.857561  8.740230 -4.413116
  N     5.883318  9.617378 -5.776682
  N     4.809295  9.099765 -2.100442
  S     7.242860  5.094579 -6.033433
  S     4.364234  5.442953 -3.173919
  S     6.852548  4.987022 -1.959245
  S     7.469677  9.144825 -6.013417
  S     4.172240  9.702532 -3.536311
  S     6.433409  8.708311 -2.074033
