16  
    
  C     5.636742  5.924833 -4.392116
  C     6.854834  5.456964 -3.707869
  C     5.933493  9.453822 -4.251216
  C     7.153568  8.995672 -3.584388
  N     7.958982  5.476466 -4.458601
  N     5.867495  6.264309 -5.673708
  N     5.046793  5.769742 -1.851297
  N     8.141574  8.681219 -4.403376
  N     6.036027  9.587712 -5.562772
  N     5.234882  9.303790 -1.766951
  S     7.470521  5.920393 -5.977171
  S     4.344190  6.222830 -3.276221
  S     6.619791  5.158318 -1.998278
  S     7.490501  9.011407 -5.984146
  S     4.513292  9.666049 -3.218998
  S     6.798268  8.740295 -1.907248
