16  
    
  C     5.380180  6.272406 -4.331976
  C     6.450577  5.668594 -3.615139
  C     5.504877  9.701779 -4.250827
  C     6.625920  9.204669 -3.555143
  N     7.533711  5.392542 -4.338404
  N     5.574888  6.339789 -5.656850
  N     4.620667  5.941267 -1.958565
  N     7.682774  8.795492 -4.276454
  N     5.695146  9.783857 -5.581982
  N     4.904785  9.650512 -1.715909
  S     7.054352  5.743475 -5.911121
  S     3.941165  6.549522 -3.342080
  S     6.246187  5.569786 -1.889859
  S     7.286110  9.278498 -5.812650
  S     4.232381 10.010154 -3.120058
  S     6.448137  8.946394 -1.801481
