16  
    
  C     5.448708  5.649823 -4.406173
  C     6.647858  5.106458 -3.754049
  C     5.763725  9.100255 -4.313750
  C     6.955860  8.783838 -3.566379
  N     7.641108  4.975782 -4.641898
  N     5.503266  5.862575 -5.706957
  N     5.070032  5.726365 -1.842769
  N     8.035518  8.614951 -4.335280
  N     5.861299  9.067188 -5.618897
  N     5.132617  9.285735 -1.862675
  S     7.070334  5.437751 -6.126109
  S     4.208885  6.106744 -3.248007
  S     6.622728  5.101550 -2.025509
  S     7.444002  8.794957 -5.940403
  S     4.475841  9.508909 -3.327867
  S     6.726332  8.825767 -1.834325
