16  
    
  C     5.763118  5.680200 -4.275101
  C     6.916672  5.160604 -3.680688
  C     5.479146  9.411825 -4.509830
  C     6.589239  8.840568 -3.785551
  N     7.930104  5.011761 -4.487441
  N     5.893319  5.872273 -5.575800
  N     5.213929  5.401941 -1.798447
  N     7.583039  8.483796 -4.585538
  N     5.685870  9.669249 -5.799752
  N     4.788957  9.197989 -1.983153
  S     7.419726  5.363509 -6.048309
  S     4.451158  6.016960 -3.174605
  S     6.801036  4.994435 -1.933748
  S     7.275659  9.075149 -6.125033
  S     4.125918  9.635382 -3.408461
  S     6.370805  8.600559 -2.065756
