16  
    
  C     5.530288  5.666831 -4.496991
  C     6.824091  5.452051 -3.863828
  C     5.429337  9.587046 -4.240123
  C     6.667311  9.147854 -3.629622
  N     7.863098  5.514142 -4.655714
  N     5.605694  5.909258 -5.792503
  N     5.129579  5.409728 -1.981042
  N     7.713463  9.001670 -4.469346
  N     5.513112  9.907144 -5.532230
  N     4.977237  9.319292 -1.714498
  S     7.250719  5.879493 -6.200697
  S     4.180467  5.498407 -3.342285
  S     6.774111  5.085258 -2.119208
  S     7.098830  9.540838 -5.982456
  S     4.103770  9.642585 -3.080779
  S     6.634592  9.046745 -1.929142
