16  
    
  C     5.255778  6.288259 -4.318632
  C     6.350724  5.617162 -3.657517
  C     5.571391  9.547804 -4.249289
  C     6.806759  9.043035 -3.667225
  N     7.322649  5.282270 -4.525127
  N     5.489404  6.488371 -5.614550
  N     4.644792  6.280092 -1.871746
  N     7.841408  8.830037 -4.469555
  N     5.723151  9.744807 -5.549725
  N     5.131254  9.484991 -1.698381
  S     7.013127  5.908266 -6.003879
  S     3.886216  6.692416 -3.303976
  S     6.127308  5.566033 -1.966471
  S     7.278765  9.273551 -5.983514
  S     4.311213  9.830017 -3.058727
  S     6.644656  8.952022 -1.909643
