16  
    
  C     5.546544  6.192982 -4.390164
  C     6.729429  5.632295 -3.809317
  C     5.430912  9.794203 -4.251537
  C     6.618329  9.231030 -3.566545
  N     7.711819  5.437777 -4.666014
  N     5.686723  6.495946 -5.692288
  N     4.986961  5.665054 -1.948148
  N     7.589650  8.972783 -4.435666
  N     5.526999  9.959779 -5.602462
  N     4.922745  9.605352 -1.695127
  S     7.222914  5.997370 -6.176513
  S     4.230346  6.372190 -3.207453
  S     6.584404  5.180557 -2.147686
  S     7.098494  9.410267 -5.940028
  S     4.132924 10.016033 -3.064930
  S     6.548087  9.045557 -1.836152
