16  
    
  C     5.409877  6.102769 -4.179776
  C     6.713195  5.659256 -3.618506
  C     5.712555  9.659510 -4.411890
  C     6.854679  9.239884 -3.652782
  N     7.710217  5.528070 -4.510641
  N     5.437990  6.237831 -5.507667
  N     5.003749  5.706816 -1.597765
  N     7.870942  9.047040 -4.458570
  N     5.836908  9.709064 -5.753694
  N     4.851973  9.372058 -1.981209
  S     6.973120  5.794030 -5.967347
  S     4.155742  6.220726 -2.987819
  S     6.594535  5.238282 -1.892782
  S     7.360575  9.334835 -6.061057
  S     4.315129  9.925007 -3.434048
  S     6.496557  9.032880 -1.926842
