16  
    
  C     5.519375  5.734802 -4.388745
  C     6.780361  5.304416 -3.773343
  C     5.501173  9.482168 -4.645373
  C     6.727260  9.290534 -3.883718
  N     7.755754  5.083924 -4.638723
  N     5.624616  5.788539 -5.707580
  N     5.100249  5.718729 -1.836248
  N     7.757290  9.323026 -4.741229
  N     5.550275  9.597665 -5.975778
  N     4.855910  9.331950 -2.171833
  S     7.190309  5.530978 -6.118339
  S     4.340676  6.063370 -3.234872
  S     6.685210  5.224907 -2.036311
  S     7.228029  9.456403 -6.278235
  S     4.054279  9.670418 -3.608460
  S     6.469805  8.979266 -2.201278
