16  
    
  C     5.648194  5.909365 -4.397475
  C     6.860854  5.455127 -3.722745
  C     5.920911  9.440803 -4.209150
  C     7.158016  8.993441 -3.574400
  N     7.983424  5.467751 -4.455764
  N     5.839870  6.256234 -5.664850
  N     5.035348  5.729798 -1.846968
  N     8.168979  8.691655 -4.387342
  N     6.009875  9.554429 -5.539778
  N     5.238619  9.287718 -1.762978
  S     7.436131  5.904101 -5.959656
  S     4.338255  6.247331 -3.259986
  S     6.603949  5.159801 -2.011470
  S     7.510996  9.015321 -5.972042
  S     4.513803  9.647772 -3.205136
  S     6.818716  8.720113 -1.904619
