16  
    
  C     5.446690  5.995041 -4.392738
  C     6.671692  5.560703 -3.809611
  C     5.509242  9.397229 -4.512856
  C     6.742741  9.182559 -3.848699
  N     7.677449  5.530477 -4.703625
  N     5.416722  6.145506 -5.718100
  N     5.001983  5.905125 -1.825974
  N     7.816991  9.033356 -4.616873
  N     5.662187  9.504148 -5.845666
  N     4.970054  9.101286 -1.991984
  S     7.049025  5.833030 -6.185849
  S     4.166647  6.245209 -3.192457
  S     6.566060  5.451344 -2.033083
  S     7.285681  9.274650 -6.139050
  S     4.223976  9.281158 -3.428418
  S     6.579738  8.815339 -2.133641
