16  
    
  C     5.354274  5.904644 -4.297977
  C     6.578473  5.497214 -3.703190
  C     5.578324  9.648426 -4.226611
  C     6.716792  9.035818 -3.528872
  N     7.616107  5.221641 -4.524375
  N     5.448214  6.075354 -5.623936
  N     4.784423  5.800822 -1.765643
  N     7.825006  8.880053 -4.260872
  N     5.858399  9.856103 -5.533344
  N     4.863874  9.327346 -1.787425
  S     6.950955  5.651928 -6.014603
  S     4.052209  6.275311 -3.168142
  S     6.374004  5.217205 -1.938641
  S     7.429806  9.360174 -5.818577
  S     4.087330  9.907481 -3.173773
  S     6.382493  8.746275 -1.897761
