16  
    
  C     5.680294  5.784314 -4.211882
  C     6.930772  5.415910 -3.607446
  C     5.697666  9.552172 -4.325847
  C     6.895942  9.037901 -3.728918
  N     7.939789  5.182552 -4.438313
  N     5.713297  5.929930 -5.527922
  N     5.136583  5.454327 -1.736382
  N     7.897663  8.925092 -4.642479
  N     5.753242  9.839370 -5.628825
  N     5.068743  8.944954 -1.941852
  S     7.302783  5.631110 -5.951597
  S     4.304704  5.697776 -3.137476
  S     6.776027  5.111759 -1.886626
  S     7.286835  9.382892 -6.093319
  S     4.274870  9.627784 -3.296801
  S     6.749361  8.805430 -2.030401
