16  
    
  C     5.268331  6.236177 -4.331285
  C     6.306623  5.562378 -3.619701
  C     5.527577  9.762566 -4.197691
  C     6.716611  9.099061 -3.583035
  N     7.248440  4.979964 -4.372005
  N     5.548246  6.368359 -5.614450
  N     4.459856  6.169447 -1.947239
  N     7.739197  8.841733 -4.385310
  N     5.736703 10.000490 -5.471731
  N     4.960005  9.446631 -1.753443
  S     6.889635  5.434936 -5.945203
  S     3.901994  6.760830 -3.397050
  S     5.998296  5.525962 -1.895510
  S     7.305271  9.468932 -5.854243
  S     4.104814  9.725323 -3.089688
  S     6.547146  8.841948 -1.885399
