16  
    
  C     5.325569  5.535697 -4.334685
  C     6.494280  4.965346 -3.715728
  C     5.490696  9.203330 -4.395832
  C     6.586126  8.461977 -3.787593
  N     7.528500  4.772882 -4.529196
  N     5.507156  5.800253 -5.629682
  N     4.562898  5.159718 -1.912400
  N     7.589112  8.216044 -4.580611
  N     5.717107  9.598238 -5.657660
  N     4.940089  8.900647 -1.892737
  S     7.074459  5.227597 -6.069069
  S     4.012665  5.945509 -3.265308
  S     6.188917  4.684663 -1.950988
  S     7.265644  8.993914 -6.024977
  S     4.128858  9.345597 -3.268168
  S     6.329736  8.081988 -2.141307
