16  
    
  C     5.244500  6.302174 -4.490873
  C     6.398430  5.715735 -3.860456
  C     5.409340  9.539400 -4.130099
  C     6.695964  9.263984 -3.454150
  N     7.426090  5.563168 -4.692639
  N     5.390146  6.560767 -5.814001
  N     4.562066  5.878930 -2.051428
  N     7.752309  9.209380 -4.242801
  N     5.522802  9.697705 -5.423357
  N     4.934146  9.294273 -1.585786
  S     6.961196  6.032549 -6.115725
  S     3.858348  6.497988 -3.445769
  S     6.217334  5.482413 -2.127425
  S     7.162264  9.528452 -5.795312
  S     4.009089  9.488915 -2.980888
  S     6.512283  8.915962 -1.784718
