16  
    
  C     5.493103  5.805223 -4.339692
  C     6.572987  5.254688 -3.638428
  C     5.702546  9.255672 -4.205797
  C     6.966874  8.895712 -3.608904
  N     7.616611  5.023015 -4.407481
  N     5.743017  6.104500 -5.613807
  N     4.693415  5.614075 -1.916799
  N     7.988460  8.787730 -4.436145
  N     5.779129  9.408431 -5.507468
  N     5.251712  8.808857 -1.686938
  S     7.299614  5.577444 -5.968198
  S     4.101647  5.964179 -3.409613
  S     6.281339  5.066202 -1.926915
  S     7.439314  9.162909 -5.965429
  S     4.389205  9.016707 -3.085116
  S     6.863609  8.594161 -1.859887
