16  
    
  C     5.585474  5.699603 -4.238314
  C     6.776446  5.174654 -3.625510
  C     5.436988  9.129037 -4.189504
  C     6.654915  8.790903 -3.484189
  N     7.771577  4.807849 -4.427881
  N     5.712567  5.791336 -5.547590
  N     4.964356  5.673223 -1.759836
  N     7.712861  8.693367 -4.251649
  N     5.574537  9.315301 -5.498012
  N     4.826236  9.032011 -1.702403
  S     7.231725  5.327040 -6.008372
  S     4.275853  6.149088 -3.186773
  S     6.458591  4.821041 -1.913261
  S     7.184156  9.048085 -5.842536
  S     4.132235  9.484738 -3.098803
  S     6.421588  8.569971 -1.818991
