16  
    
  C     5.601460  5.587938 -4.215931
  C     6.888897  5.411735 -3.542948
  C     5.563385  9.176187 -4.236836
  C     6.846110  9.024826 -3.558586
  N     7.857195  5.103154 -4.374007
  N     5.591109  5.491051 -5.537565
  N     5.195527  5.763618 -1.610988
  N     7.930538  8.997182 -4.340631
  N     5.634926  9.450773 -5.524106
  N     5.108086  8.796179 -1.717641
  S     7.218141  5.226046 -5.908277
  S     4.385870  5.684894 -3.039072
  S     6.799666  5.369773 -1.813064
  S     7.295715  9.344564 -5.905839
  S     4.262191  8.974562 -3.116361
  S     6.802290  8.977354 -1.818974
