16  
    
  C     5.741886  5.438317 -3.948739
  C     7.000786  5.091894 -3.305572
  C     5.448068  9.381416 -4.209979
  C     6.560285  8.737426 -3.513658
  N     8.048925  4.963305 -4.140660
  N     5.808365  5.577335 -5.285486
  N     5.261931  5.126235 -1.410674
  N     7.628123  8.484484 -4.229924
  N     5.701908  9.570104 -5.498130
  N     4.815898  9.346774 -1.747864
  S     7.388239  5.263478 -5.666401
  S     4.431329  5.456865 -2.787840
  S     6.863082  4.891884 -1.637884
  S     7.184242  8.984823 -5.801757
  S     4.080116  9.749784 -3.201915
  S     6.225629  8.434255 -1.816985
