16  
    
  C     5.669564  5.728599 -4.108744
  C     6.803025  5.237979 -3.402251
  C     5.516971  9.500019 -4.054731
  C     6.654275  8.922958 -3.383952
  N     7.871847  4.957793 -4.144945
  N     5.890825  5.931880 -5.386496
  N     4.900326  5.476220 -1.740054
  N     7.661198  8.603921 -4.209868
  N     5.715050  9.711702 -5.349345
  N     4.829096  9.027909 -1.607670
  S     7.426091  5.348286 -5.680604
  S     4.283929  5.971062 -3.159389
  S     6.505848  5.097837 -1.727472
  S     7.245469  9.096938 -5.683728
  S     4.092900  9.594892 -3.012010
  S     6.430080  8.578308 -1.738389
