16  
    
  C     5.256693  6.249067 -4.509390
  C     6.440476  5.658570 -3.898583
  C     5.427183  9.622457 -4.119151
  C     6.747003  9.373049 -3.492862
  N     7.433132  5.583853 -4.759864
  N     5.368072  6.590754 -5.776132
  N     4.591818  6.008282 -2.073216
  N     7.773626  9.575758 -4.342018
  N     5.425636 10.024714 -5.381043
  N     4.989800  9.084209 -1.620116
  S     6.932766  6.144862 -6.168698
  S     3.839420  6.408828 -3.528916
  S     6.174335  5.500386 -2.155356
  S     7.037471  9.942093 -5.795672
  S     4.175099  9.582671 -2.927263
  S     6.703091  8.943743 -1.811562
