16  
    
  C     5.277067  6.313870 -4.489604
  C     6.370673  5.674827 -3.810777
  C     5.428380  9.573819 -4.154719
  C     6.679590  9.283190 -3.444849
  N     7.427534  5.491269 -4.634072
  N     5.460619  6.523254 -5.794706
  N     4.587566  5.868184 -2.037011
  N     7.734798  9.145029 -4.256998
  N     5.565443  9.694082 -5.510657
  N     4.956049  9.344181 -1.590556
  S     7.009818  6.008145 -6.143026
  S     3.870571  6.482183 -3.437027
  S     6.223281  5.487320 -2.111896
  S     7.179777  9.519509 -5.771828
  S     4.023171  9.496210 -3.009565
  S     6.512272  8.898049 -1.761188
