16  
    
  C     5.694340  5.635385 -4.230531
  C     6.986543  5.233356 -3.676402
  C     5.778057  9.771045 -4.363892
  C     6.990011  9.196786 -3.843232
  N     7.958041  5.259004 -4.575597
  N     5.770021  5.937548 -5.516241
  N     5.284589  5.201532 -1.759940
  N     8.027944  9.013473 -4.720410
  N     5.915505 10.085444 -5.638006
  N     5.188363  9.189969 -1.923841
  S     7.337124  5.813344 -6.016595
  S     4.359359  5.668626 -3.092115
  S     6.899344  4.904706 -1.989205
  S     7.445961  9.577886 -6.126512
  S     4.397548  9.720897 -3.302935
  S     6.812829  8.777328 -2.148554
