16  
    
  C     5.467282  5.958849 -4.235639
  C     6.569384  5.263736 -3.656997
  C     5.683372  9.957917 -4.520273
  C     6.705744  9.231132 -3.834887
  N     7.535271  4.920459 -4.490986
  N     5.655546  6.254283 -5.501308
  N     4.946786  5.714047 -1.770674
  N     7.776068  9.062029 -4.605389
  N     5.951878 10.318743 -5.776009
  N     4.675004  9.092493 -2.311555
  S     7.092836  5.483155 -5.992106
  S     4.143290  6.196511 -3.136837
  S     6.374460  4.917962 -1.953645
  S     7.426328  9.698810 -6.082307
  S     4.176272 10.013679 -3.589394
  S     6.296948  8.637008 -2.273023
