16  
    
  C     5.425411  6.012413 -4.467863
  C     6.744982  5.680060 -3.888676
  C     5.315049  9.926930 -4.689071
  C     6.574200  9.636846 -4.037529
  N     7.743227  5.608852 -4.737268
  N     5.524100  6.287640 -5.775791
  N     4.962543  5.725975 -1.955425
  N     7.667654  9.668693 -4.871270
  N     5.447790 10.061916 -6.012618
  N     4.708427  9.512468 -2.240447
  S     7.115517  5.961363 -6.187042
  S     4.088838  6.079255 -3.346253
  S     6.505270  5.193668 -2.170464
  S     7.010849  9.889598 -6.379266
  S     3.984623  9.999702 -3.647777
  S     6.374640  9.365222 -2.252229
