16  
    
  C     5.424539  5.539650 -4.302012
  C     6.654309  5.064837 -3.685944
  C     5.709372  9.339125 -4.224070
  C     6.833328  8.587380 -3.718164
  N     7.651573  4.814375 -4.526909
  N     5.520285  5.670548 -5.621870
  N     4.842054  5.294605 -1.892499
  N     7.796204  8.311062 -4.587190
  N     5.854556  9.671760 -5.496698
  N     4.957825  8.719972 -1.855887
  S     7.059712  5.301117 -6.025781
  S     3.972792  5.424972 -3.291591
  S     6.462932  4.716868 -2.008572
  S     7.256579  8.925829 -6.017209
  S     4.329548  9.544372 -3.231031
  S     6.533294  8.268717 -2.023964
