16  
    
  C     5.584280  5.931630 -4.484068
  C     6.668402  5.300519 -3.804453
  C     5.485925  9.641150 -4.206408
  C     6.685537  9.078469 -3.633657
  N     7.715435  4.981439 -4.512743
  N     5.767869  6.133828 -5.789149
  N     4.831146  5.659561 -2.033921
  N     7.666218  8.992862 -4.503478
  N     5.578945 10.018619 -5.486128
  N     5.105082  9.256944 -1.695213
  S     7.285088  5.549219 -6.096824
  S     4.181143  6.131657 -3.460707
  S     6.441193  5.121438 -2.079583
  S     7.060259  9.398846 -5.991513
  S     4.262744  9.742724 -2.928596
  S     6.695762  8.761956 -1.991747
