16  
    
  C     5.378670  6.248089 -4.353997
  C     6.548676  5.687909 -3.601998
  C     5.517767  9.669072 -4.222319
  C     6.693202  9.157316 -3.505830
  N     7.626280  5.385723 -4.349520
  N     5.562298  6.303317 -5.664630
  N     4.601075  5.989226 -1.947503
  N     7.697295  8.820782 -4.252796
  N     5.730058  9.742249 -5.514713
  N     4.847287  9.579302 -1.736520
  S     7.085181  5.748749 -5.887361
  S     3.985227  6.527822 -3.379173
  S     6.254630  5.582596 -1.914286
  S     7.291292  9.271940 -5.826778
  S     4.248091 10.007982 -3.164226
  S     6.435547  8.968224 -1.801571
