16  
    
  C     5.624519  5.739756 -4.351413
  C     6.865291  5.295663 -3.767510
  C     5.461989  9.389991 -4.660892
  C     6.679438  9.177771 -3.967802
  N     7.887543  5.172754 -4.589799
  N     5.644600  5.902821 -5.653747
  N     5.176267  5.730116 -1.836045
  N     7.837211  9.277414 -4.655199
  N     5.676482  9.559279 -5.968462
  N     4.843858  9.294921 -2.158637
  S     7.194046  5.460311 -6.136213
  S     4.282639  6.066361 -3.223465
  S     6.705267  5.125439 -2.038687
  S     7.270193  9.660941 -6.220261
  S     4.132621  9.619597 -3.627282
  S     6.489857  8.968467 -2.267469
