16  
    
  C     5.526228  6.124859 -4.695712
  C     6.683987  5.599021 -4.009997
  C     5.660550  9.809784 -4.386038
  C     6.838672  9.246375 -3.769080
  N     7.789131  5.383690 -4.727760
  N     5.834719  6.342566 -5.965662
  N     4.747924  5.732649 -2.264279
  N     7.864566  9.016323 -4.596613
  N     5.844242 10.171050 -5.650063
  N     4.964335  9.253769 -2.009583
  S     7.398296  5.968399 -6.222029
  S     4.028581  6.332081 -3.722983
  S     6.361595  5.294197 -2.297064
  S     7.385912  9.588690 -6.073202
  S     4.213520  9.741510 -3.405061
  S     6.529736  8.843368 -2.119873
