16  
    
  C     5.222144  6.357892 -4.712427
  C     6.474605  6.011710 -4.079059
  C     5.808598  9.771706 -4.318512
  C     7.077452  9.308146 -3.789305
  N     7.482093  5.739960 -4.890472
  N     5.306997  6.551410 -6.032812
  N     4.737710  6.417957 -2.147162
  N     8.011522  9.058697 -4.694955
  N     5.823534  9.830357 -5.628657
  N     5.245203  9.474486 -1.885520
  S     6.814432  6.066791 -6.410960
  S     3.944102  6.650962 -3.588002
  S     6.316376  5.999561 -2.317854
  S     7.324721  9.530169 -6.140998
  S     4.510747  9.845040 -3.245749
  S     6.872226  9.131372 -2.065736
