16  
    
  C     5.568275  6.090565 -4.370522
  C     6.692650  5.406553 -3.710197
  C     5.841434  9.839120 -4.234350
  C     7.027746  9.361628 -3.565865
  N     7.636253  4.911998 -4.510466
  N     5.738683  6.225480 -5.693100
  N     4.919999  6.088802 -1.849275
  N     8.007723  8.955738 -4.370637
  N     5.948544  9.797719 -5.556737
  N     5.195767  9.287722 -1.782251
  S     7.196640  5.479039 -6.007794
  S     4.202861  6.456531 -3.272217
  S     6.451800  5.412403 -1.934690
  S     7.430656  9.228938 -5.920099
  S     4.428648  9.882129 -3.133028
  S     6.817748  9.105619 -1.908842
