16  
    
  C     5.216404  6.427242 -4.307668
  C     6.310666  5.776979 -3.734431
  C     5.742221  9.570925 -4.276710
  C     6.956600  9.053544 -3.623971
  N     7.321717  5.559117 -4.551752
  N     5.313569  6.611691 -5.600579
  N     4.561264  5.895321 -1.903573
  N     7.918742  8.771074 -4.480407
  N     5.870057  9.750421 -5.580507
  N     5.400428  9.600518 -1.663989
  S     6.872924  6.018913 -6.016455
  S     3.943621  6.586702 -3.266079
  S     6.200759  5.566960 -2.041845
  S     7.409603  9.214105 -5.955016
  S     4.502622  9.792087 -3.062204
  S     6.920490  8.929623 -1.895509
