16  
    
  C     5.545470  6.612132 -4.513640
  C     6.676847  5.986905 -3.873168
  C     5.612584 10.147238 -4.450169
  C     6.729455  9.608134 -3.758577
  N     7.682718  5.675607 -4.659049
  N     5.708416  6.800271 -5.796458
  N     4.914631  6.576982 -2.037928
  N     7.732930  9.346140 -4.564015
  N     5.792040 10.373081 -5.726256
  N     4.826386  9.880405 -2.034529
  S     7.126946  6.187117 -6.283166
  S     4.191568  7.016284 -3.473216
  S     6.472732  5.945878 -2.117551
  S     7.326236  9.790768 -6.102758
  S     4.234228 10.411387 -3.465337
  S     6.517966  9.584010 -2.001067
