16  
    
  C     5.381317  5.497854 -4.332817
  C     6.591149  5.011459 -3.712571
  C     5.642443  9.282515 -4.346909
  C     6.731998  8.567246 -3.733994
  N     7.584688  4.772409 -4.576693
  N     5.509254  5.795480 -5.622708
  N     4.787930  5.154568 -1.849883
  N     7.720433  8.281574 -4.575435
  N     5.868611  9.635794 -5.603854
  N     4.855541  8.597596 -2.007833
  S     7.042291  5.301008 -6.038928
  S     4.025269  5.503006 -3.306462
  S     6.336965  4.686471 -2.026054
  S     7.299930  8.964423 -6.073657
  S     4.322403  9.580940 -3.179030
  S     6.459682  8.135614 -2.075109
