16  
    
  C     5.551680  5.920196 -4.439548
  C     6.819505  5.651689 -3.808942
  C     5.742880  9.471269 -4.358885
  C     7.027014  9.131582 -3.726766
  N     7.867872  5.572313 -4.662185
  N     5.656112  6.086585 -5.720721
  N     4.994920  5.459349 -1.967986
  N     8.127039  9.030688 -4.497272
  N     5.875031  9.565451 -5.701136
  N     5.341908  9.377295 -1.796874
  S     7.249403  5.821201 -6.110558
  S     4.225748  6.043161 -3.343188
  S     6.620064  5.252547 -2.115625
  S     7.499430  9.325571 -6.061047
  S     4.440626  9.526323 -3.231998
  S     6.908314  8.965899 -1.967958
