16  
    
  C     5.123285  6.271432 -4.519210
  C     6.388373  6.034685 -3.876673
  C     5.394672  9.697325 -4.209892
  C     6.671250  9.311834 -3.669142
  N     7.431630  5.927497 -4.688739
  N     5.270129  6.526645 -5.789326
  N     4.599861  5.959257 -2.034872
  N     7.656970  9.268824 -4.592555
  N     5.454487  9.911170 -5.558717
  N     5.117538  9.264344 -1.683764
  S     6.837151  6.374740 -6.277054
  S     3.782816  6.364984 -3.402004
  S     6.266278  5.858949 -2.130001
  S     7.000649  9.723959 -6.013779
  S     4.154506  9.565759 -3.082113
  S     6.696729  8.945230 -1.921919
