16  
    
  C     5.745630  6.055474 -4.396740
  C     6.893073  5.531496 -3.693930
  C     5.845578  9.563337 -4.323203
  C     6.979372  8.949786 -3.678276
  N     7.950400  5.397498 -4.469792
  N     5.935879  6.275363 -5.690414
  N     5.134551  5.839374 -1.893692
  N     7.962539  8.664714 -4.509976
  N     6.000877  9.699084 -5.643070
  N     5.205073  9.341991 -1.844429
  S     7.563941  5.950969 -5.989266
  S     4.341346  6.132056 -3.353393
  S     6.655928  5.207321 -1.969221
  S     7.514161  9.029064 -6.030553
  S     4.528379  9.750810 -3.284671
  S     6.785020  8.824461 -1.902223
