16  
    
  C     5.793019  5.922010 -4.171404
  C     6.997991  5.291799 -3.741160
  C     5.771832  9.243902 -4.024513
  C     7.070815  8.896576 -3.472454
  N     7.874952  5.028339 -4.738297
  N     5.743152  6.267236 -5.443970
  N     5.274086  5.231387 -1.760969
  N     8.067786  8.848941 -4.385802
  N     5.748567  9.475985 -5.324209
  N     5.328167  8.786045 -1.511223
  S     7.232567  5.821448 -6.136011
  S     4.481511  5.921231 -3.033674
  S     6.821150  4.802566 -2.066145
  S     7.365309  9.128906 -5.886866
  S     4.440542  9.229087 -2.828933
  S     6.906702  8.383020 -1.832814
