16  
    
  C     5.216846  6.297588 -4.302204
  C     6.199999  5.521249 -3.593786
  C     5.666853  9.641500 -4.182434
  C     6.828980  9.087609 -3.569780
  N     7.157962  5.069820 -4.374896
  N     5.477926  6.440662 -5.573189
  N     4.467089  6.219498 -1.874430
  N     7.852280  8.924624 -4.475483
  N     5.775824  9.941828 -5.509123
  N     5.045479  9.403730 -1.672763
  S     6.929069  5.607118 -5.876038
  S     3.896473  6.733210 -3.368409
  S     5.912506  5.475888 -1.894430
  S     7.270881  9.417505 -5.920634
  S     4.394351  9.844694 -3.137391
  S     6.647226  8.847504 -1.839967
