16  
    
  C     5.678587  6.102543 -4.528653
  C     6.825580  5.525440 -3.879759
  C     5.575783  9.701364 -4.428199
  C     6.741889  9.171969 -3.740846
  N     7.868524  5.321680 -4.652232
  N     5.782837  6.336129 -5.855153
  N     4.984111  5.838648 -1.998346
  N     7.795305  9.087788 -4.542054
  N     5.815511 10.105650 -5.663083
  N     4.930741  9.339308 -1.963661
  S     7.347595  5.838038 -6.157037
  S     4.279534  6.138678 -3.469358
  S     6.533652  5.444156 -2.118731
  S     7.275689  9.548557 -6.057415
  S     4.227843  9.874636 -3.431169
  S     6.476674  8.951270 -1.989570
