16  
    
  C     5.453946  5.613095 -4.154515
  C     6.626251  5.092657 -3.470301
  C     5.641020  8.964890 -3.994751
  C     6.877037  8.472501 -3.404592
  N     7.723003  4.935273 -4.233102
  N     5.622821  5.869272 -5.440338
  N     4.769533  5.357679 -1.674720
  N     7.841044  8.193465 -4.260195
  N     5.637689  9.062616 -5.338871
  N     5.174594  8.882503 -1.475864
  S     7.175252  5.366850 -5.764435
  S     4.126771  5.865041 -3.075664
  S     6.405361  5.086352 -1.758153
  S     7.141523  8.539637 -5.834772
  S     4.298038  9.104544 -2.895544
  S     6.797217  8.559965 -1.656335
