16  
    
  C     5.689151  5.805791 -4.308313
  C     6.948337  5.196312 -3.804043
  C     5.722950  9.702771 -4.454305
  C     6.950923  9.255719 -3.859468
  N     7.922880  5.081739 -4.699913
  N     5.694829  6.144602 -5.595724
  N     5.321798  5.274218 -1.769496
  N     8.099802  9.308795 -4.615502
  N     5.950667 10.033750 -5.711391
  N     5.104252  9.023944 -2.109815
  S     7.252481  5.776931 -6.110300
  S     4.374059  5.709232 -3.072959
  S     6.858298  4.728056 -2.162173
  S     7.534960  9.885129 -6.108032
  S     4.420501  9.896036 -3.338187
  S     6.734499  8.778921 -2.203441
