16  
    
  C     5.526030  6.117086 -4.440676
  C     6.733898  5.665063 -3.835920
  C     5.395520  9.967706 -4.711780
  C     6.630413  9.696369 -4.021730
  N     7.746306  5.590236 -4.746684
  N     5.558879  6.331150 -5.749317
  N     4.930770  5.759349 -1.978103
  N     7.631368  9.606764 -4.849672
  N     5.414095 10.050292 -6.048476
  N     4.674742  9.521018 -2.207744
  S     7.140536  6.001456 -6.226521
  S     4.110093  6.153408 -3.367305
  S     6.538420  5.249899 -2.149967
  S     7.018447  9.868496 -6.398977
  S     4.005291  9.988797 -3.654535
  S     6.427895  9.406674 -2.255029
