16  
    
  C     5.227615  6.354428 -4.456957
  C     6.478027  6.010210 -3.835607
  C     5.498554  9.630688 -4.243735
  C     6.783306  9.313151 -3.743437
  N     7.576617  6.000257 -4.611294
  N     5.332643  6.525155 -5.802737
  N     4.660096  5.984450 -1.971796
  N     7.801335  9.332049 -4.631516
  N     5.536124  9.924168 -5.531617
  N     5.071768  9.300887 -1.780730
  S     6.921577  6.276162 -6.144355
  S     3.910331  6.405936 -3.408446
  S     6.321004  5.904528 -2.107287
  S     7.058868  9.713456 -6.097602
  S     4.195217  9.665238 -3.139795
  S     6.634416  9.010854 -2.035526
