16  
    
  C     5.593421  6.210373 -4.370597
  C     6.726255  5.649607 -3.630308
  C     5.419469  9.589270 -4.270393
  C     6.670663  9.298610 -3.639839
  N     7.762832  5.352095 -4.422226
  N     5.748307  6.258743 -5.699327
  N     4.816577  5.848422 -1.949212
  N     7.714958  9.299933 -4.508118
  N     5.465638  9.932844 -5.558093
  N     4.852625  9.552359 -1.799877
  S     7.265211  5.762265 -5.986469
  S     4.131967  6.381114 -3.396942
  S     6.521241  5.620409 -1.941024
  S     7.046247  9.669175 -6.002910
  S     4.068498  9.584864 -3.226331
  S     6.529392  9.004079 -1.865841
