16  
    
  C     5.614451  5.914087 -4.499187
  C     6.772807  5.476707 -3.840853
  C     5.544208  9.690426 -4.326499
  C     6.751677  9.159389 -3.747364
  N     7.818756  5.372761 -4.601678
  N     5.729757  6.060064 -5.811665
  N     4.948774  5.699967 -2.051553
  N     7.817728  9.211017 -4.554759
  N     5.648936 10.134186 -5.573424
  N     4.939896  9.235789 -1.843524
  S     7.303191  5.722481 -6.165696
  S     4.296976  6.174269 -3.452230
  S     6.519758  5.147513 -2.185500
  S     7.216991  9.696833 -6.044545
  S     4.285055  9.930351 -3.222999
  S     6.602140  8.819114 -2.018083
