16  
    
  C     5.353014  6.247381 -4.594622
  C     6.610586  5.848400 -4.037476
  C     5.698849  9.442507 -4.036978
  C     6.934549  8.982531 -3.488071
  N     7.578274  5.830315 -4.945666
  N     5.319744  6.419080 -5.897092
  N     4.938584  5.744561 -2.075434
  N     7.860929  8.825032 -4.383132
  N     5.761848  9.816046 -5.314953
  N     5.204132  8.905255 -1.576383
  S     6.843734  6.238177 -6.467942
  S     4.054878  6.232851 -3.407632
  S     6.559718  5.557639 -2.311789
  S     7.323663  9.517954 -5.802494
  S     4.269028  9.334158 -2.983792
  S     6.802111  8.609411 -1.804716
