16  
    
  C     5.499806  5.882066 -4.507221
  C     6.792721  5.554742 -3.862942
  C     5.642457  9.452096 -4.116615
  C     6.869570  9.026259 -3.496345
  N     7.846737  5.357431 -4.680126
  N     5.582726  5.938870 -5.835153
  N     4.944642  5.662758 -1.964239
  N     7.874046  8.765054 -4.335094
  N     5.729395  9.561514 -5.434887
  N     5.062342  8.862437 -1.604242
  S     7.186522  5.754835 -6.153769
  S     4.116323  5.988618 -3.385266
  S     6.622916  5.474626 -2.119425
  S     7.254036  9.051324 -5.873880
  S     4.254921  9.294616 -2.989988
  S     6.677271  8.777980 -1.779405
