16  
    
  C     5.566559  5.976947 -4.324215
  C     6.819981  5.491938 -3.780901
  C     5.799556  9.371327 -4.229193
  C     7.052266  8.874911 -3.683282
  N     7.840013  5.508560 -4.647034
  N     5.677975  6.379972 -5.599340
  N     5.203077  5.722528 -1.837112
  N     8.008817  8.722988 -4.554006
  N     5.832583  9.656488 -5.510915
  N     5.342429  9.103357 -1.687342
  S     7.241741  6.057252 -6.091662
  S     4.332147  6.175513 -3.161536
  S     6.757590  5.140741 -2.085268
  S     7.462308  9.296440 -5.996594
  S     4.493188  9.589585 -3.074140
  S     6.923838  8.808764 -1.999961
