16  
    
  C     5.715205  5.776667 -4.370451
  C     6.980596  5.280809 -3.723590
  C     5.713638  9.437054 -4.325192
  C     6.930675  8.831569 -3.813641
  N     7.981207  5.063010 -4.567628
  N     5.874904  5.986379 -5.672160
  N     5.152904  5.366444 -1.926727
  N     7.938684  8.959076 -4.698489
  N     5.819306 10.028425 -5.519048
  N     5.240900  8.828945 -1.854545
  S     7.441833  5.599176 -6.076295
  S     4.409589  5.859029 -3.279237
  S     6.779379  4.985645 -2.022601
  S     7.415539  9.736518 -5.985773
  S     4.355429  9.417845 -3.159982
  S     6.927411  8.689392 -2.122533
