16  
    
  C     5.599426  5.799909 -4.444855
  C     6.824119  5.481759 -3.854383
  C     5.159614  9.752548 -4.389331
  C     6.297821  9.194875 -3.698858
  N     7.809455  5.213515 -4.685664
  N     5.687061  5.928041 -5.741603
  N     5.129786  5.738711 -1.958708
  N     7.271541  8.756738 -4.491356
  N     5.291967  9.669731 -5.725578
  N     4.624285  9.797166 -1.899464
  S     7.259180  5.560488 -6.228877
  S     4.246142  5.823745 -3.369659
  S     6.717496  5.327850 -2.127432
  S     6.772467  9.021789 -6.007537
  S     3.747796 10.063705 -3.355759
  S     6.154771  9.160682 -2.026323
