16  
    
  C     5.269821  6.265954 -4.485952
  C     6.424193  5.682677 -3.823478
  C     5.434937  9.597215 -4.168989
  C     6.639469  9.240903 -3.491773
  N     7.466643  5.376117 -4.542808
  N     5.544630  6.482678 -5.764135
  N     4.612197  5.864317 -2.031981
  N     7.702586  9.104026 -4.271543
  N     5.600141  9.722184 -5.479616
  N     4.876667  9.413518 -1.647659
  S     7.051886  5.976667 -6.155249
  S     3.918781  6.453446 -3.405581
  S     6.202728  5.500184 -2.096263
  S     7.216441  9.490263 -5.770433
  S     4.107639  9.521101 -3.064011
  S     6.531315  8.885036 -1.747468
