16  
    
  C     5.609375  5.263338 -3.897582
  C     6.843490  5.013241 -3.205379
  C     5.376780  9.339102 -4.221633
  C     6.467196  8.734702 -3.526012
  N     7.839222  4.922285 -4.058928
  N     5.725857  5.459824 -5.205984
  N     5.056551  5.071373 -1.402991
  N     7.534934  8.430997 -4.285375
  N     5.706362  9.642456 -5.485065
  N     4.706808  9.231846 -1.657165
  S     7.311949  5.203462 -5.582513
  S     4.203015  5.370186 -2.845210
  S     6.703629  4.886470 -1.441640
  S     7.208884  9.119951 -5.746784
  S     4.040389  9.697835 -3.114819
  S     6.256858  8.631414 -1.792285
