16  
    
  C     5.633580  5.501782 -4.040769
  C     6.824748  5.047396 -3.413921
  C     5.800738  9.451303 -3.914774
  C     7.019088  9.080334 -3.255427
  N     7.831293  4.982865 -4.258293
  N     5.662224  5.709957 -5.359574
  N     5.197415  5.515133 -1.500396
  N     8.063261  8.855889 -4.032560
  N     5.953103  9.408007 -5.261400
  N     5.354612  9.155567 -1.352615
  S     7.184661  5.299254 -5.741338
  S     4.389889  5.786818 -2.905791
  S     6.774276  4.986333 -1.682467
  S     7.496431  9.017911 -5.568120
  S     4.498465  9.459672 -2.778459
  S     7.024725  8.835471 -1.538264
