16  
    
  C     5.544402  5.760142 -4.366033
  C     6.793613  5.332819 -3.825071
  C     5.372171  9.939549 -4.656360
  C     6.506974  9.251075 -4.030705
  N     7.765125  5.158213 -4.721291
  N     5.584431  5.985530 -5.688572
  N     5.192725  5.550559 -1.871855
  N     7.436553  8.870714 -4.875621
  N     5.436921  9.976708 -5.986477
  N     4.878560  9.806451 -2.067122
  S     7.125631  5.584791 -6.218061
  S     4.363924  6.077817 -3.167086
  S     6.710970  4.955898 -2.150106
  S     6.891025  9.307165 -6.363461
  S     4.150448 10.374858 -3.487417
  S     6.398442  9.082228 -2.332676
