16  
    
  C     5.376414  6.272720 -4.328692
  C     6.442221  5.668992 -3.616809
  C     5.508109  9.705085 -4.254889
  C     6.620973  9.204064 -3.553083
  N     7.518401  5.393603 -4.339477
  N     5.574779  6.344884 -5.652860
  N     4.623109  5.934806 -1.954926
  N     7.680321  8.796070 -4.281292
  N     5.691228  9.790683 -5.591377
  N     4.918007  9.656864 -1.707876
  S     7.053684  5.742344 -5.915302
  S     3.937522  6.552004 -3.338098
  S     6.243027  5.568301 -1.887964
  S     7.284376  9.278860 -5.811880
  S     4.226706 10.011136 -3.117475
  S     6.448873  8.944978 -1.802764
