16  
    
  C     5.634261  6.136587 -4.302673
  C     6.824219  5.545319 -3.745231
  C     5.780397  9.416941 -4.284369
  C     6.992937  8.876986 -3.675976
  N     7.851539  5.479539 -4.612687
  N     5.727930  6.541635 -5.576401
  N     5.203273  5.735822 -1.751436
  N     7.972833  8.679587 -4.504034
  N     5.949804  9.726598 -5.572215
  N     5.398293  9.177570 -1.724807
  S     7.244307  6.066911 -6.026909
  S     4.359495  6.200027 -3.146187
  S     6.765931  5.191988 -2.008716
  S     7.406136  9.210570 -5.997756
  S     4.562207  9.659619 -3.059609
  S     7.049667  8.815807 -1.920237
