16  
    
  C     5.696520  5.807603 -4.434259
  C     6.985700  5.310035 -3.972005
  C     5.655760  9.100780 -4.090580
  C     6.938025  8.612302 -3.644908
  N     7.955201  5.339634 -4.873293
  N     5.765271  6.222384 -5.690555
  N     5.319709  5.165537 -1.912649
  N     7.925807  8.608197 -4.535204
  N     5.756087  9.525603 -5.356548
  N     5.496000  8.825872 -1.549665
  S     7.323459  6.075689 -6.191051
  S     4.461771  5.829242 -3.152586
  S     6.874227  4.803837 -2.300346
  S     7.247093  9.280596 -5.893766
  S     4.511798  9.396103 -2.749024
  S     7.030541  8.370520 -1.954575
