16  
    
  C     5.710112  5.882480 -4.411334
  C     6.990054  5.411534 -3.854529
  C     5.826297  9.522795 -3.915602
  C     7.062736  8.918511 -3.486717
  N     7.995339  5.365882 -4.734225
  N     5.780817  6.161753 -5.701551
  N     5.225186  5.223866 -1.959688
  N     7.950460  8.715060 -4.486757
  N     5.779239  9.798377 -5.201092
  N     5.429318  8.857584 -1.523800
  S     7.273815  5.758473 -6.224703
  S     4.338301  5.787364 -3.281664
  S     6.850457  4.953942 -2.207875
  S     7.193793  9.287105 -5.860866
  S     4.556664  9.469987 -2.787025
  S     7.017619  8.357750 -1.835588
