16  
    
  C     5.620998  5.891519 -4.182254
  C     6.798104  5.253029 -3.585000
  C     5.696705  9.536276 -4.460756
  C     6.916096  9.137665 -3.824664
  N     7.798533  4.991832 -4.383503
  N     5.780379  6.134789 -5.459763
  N     5.040909  5.415100 -1.731061
  N     7.915382  8.877904 -4.680006
  N     5.754458  9.545432 -5.811048
  N     5.191184  9.197752 -1.941480
  S     7.320429  5.588631 -5.875265
  S     4.366219  6.109036 -3.035231
  S     6.564788  4.914475 -1.930330
  S     7.252739  9.099572 -6.219133
  S     4.437382  9.884055 -3.275588
  S     6.788654  8.893446 -2.117664
