16  
    
  C     5.359625  5.679799 -4.505402
  C     6.500249  5.244306 -3.806785
  C     5.340040  9.443701 -4.388430
  C     6.506091  8.931455 -3.673603
  N     7.590351  5.030913 -4.539294
  N     5.621196  5.847808 -5.795346
  N     4.645446  5.742827 -2.034720
  N     7.444135  8.700145 -4.572471
  N     5.348728  9.606430 -5.702646
  N     4.756339  9.477631 -1.863886
  S     7.201724  5.499326 -6.088752
  S     4.033008  6.177176 -3.556138
  S     6.248526  5.295822 -2.060471
  S     6.956601  9.107630 -6.092077
  S     3.964999  9.687243 -3.323431
  S     6.347334  8.881332 -1.908131
