16  
    
  C     5.134309  5.969619 -4.308869
  C     6.295246  5.672500 -3.606485
  C     5.502413  9.553625 -4.071982
  C     6.727277  9.038945 -3.478732
  N     7.353950  5.564512 -4.391026
  N     5.260666  6.066404 -5.633477
  N     4.470854  5.824715 -1.830905
  N     7.696236  8.729717 -4.281350
  N     5.562809  9.521625 -5.383430
  N     5.252698  9.560296 -1.499400
  S     6.833042  5.662674 -5.923637
  S     3.842859  6.405730 -3.224093
  S     6.103899  5.584873 -1.892309
  S     7.070134  9.009626 -5.825662
  S     4.374637  9.993530 -2.862563
  S     6.688696  8.733363 -1.706475
