16  
    
  C     5.476460  5.825005 -4.572838
  C     6.751988  5.550021 -3.836840
  C     5.150687  9.511822 -4.408657
  C     6.394409  9.174703 -3.724874
  N     7.835666  5.480826 -4.601259
  N     5.655525  5.822828 -5.885006
  N     4.862649  5.633342 -2.032811
  N     7.417746  8.791215 -4.486241
  N     5.266766  9.410884 -5.731639
  N     4.653022  9.926511 -2.027748
  S     7.295023  5.725488 -6.166003
  S     4.102873  5.970504 -3.484221
  S     6.537743  5.380350 -2.175781
  S     6.861113  8.957231 -6.035328
  S     3.884588 10.164088 -3.501875
  S     6.139076  9.292954 -2.037734
