16  
    
  C     5.570671  6.046131 -4.380669
  C     6.647159  5.421663 -3.741102
  C     5.628840  9.517062 -4.316196
  C     6.859355  9.107544 -3.642735
  N     7.799308  5.346908 -4.446249
  N     5.781415  6.287133 -5.691938
  N     4.810442  5.687354 -1.939792
  N     7.829651  8.926888 -4.461111
  N     5.692090  9.674677 -5.622191
  N     5.197520  9.411865 -1.694043
  S     7.316042  5.812647 -5.978634
  S     4.238298  6.453135 -3.290846
  S     6.378065  5.067597 -1.973986
  S     7.279172  9.333837 -6.028336
  S     4.451715  9.825431 -3.084412
  S     6.764711  8.842189 -1.910244
