16  
    
  C     5.587599  6.114222 -4.249134
  C     6.675175  5.445102 -3.616169
  C     5.851768  9.767567 -4.241857
  C     7.043230  9.241101 -3.591806
  N     7.623979  5.038514 -4.418143
  N     5.756312  6.202991 -5.562434
  N     5.040769  6.175880 -1.780765
  N     8.005737  8.962243 -4.451333
  N     5.934658  9.926755 -5.534179
  N     5.235227  9.315436 -1.771177
  S     7.208753  5.522785 -5.971558
  S     4.249169  6.488064 -3.244736
  S     6.458300  5.341771 -1.944255
  S     7.462025  9.253255 -5.975711
  S     4.520419  9.937440 -3.152760
  S     6.887819  9.117150 -1.834454
