16  
    
  C     5.463376  6.314788 -4.443828
  C     6.669332  5.806615 -3.769495
  C     5.607814  9.614891 -4.477917
  C     6.805640  9.178967 -3.792380
  N     7.649468  5.512794 -4.598133
  N     5.679028  6.456653 -5.720093
  N     4.910626  6.195886 -1.917898
  N     7.845522  8.926316 -4.568349
  N     5.740571  9.774433 -5.801098
  N     5.154189  9.539385 -1.921548
  S     7.197407  5.889717 -6.150819
  S     4.093706  6.584129 -3.367663
  S     6.519844  5.842876 -2.025697
  S     7.341402  9.198566 -6.105257
  S     4.260491  9.865151 -3.283146
  S     6.792302  9.136487 -2.068178
