16  
    
  C     5.654103  5.425813 -4.447201
  C     6.877797  5.153510 -3.654890
  C     5.524159  9.525125 -4.357447
  C     6.697521  9.057139 -3.681852
  N     7.886952  4.846272 -4.451734
  N     5.780642  5.391689 -5.769612
  N     4.955500  5.589577 -1.909041
  N     7.760943  8.864393 -4.468431
  N     5.686015  9.642347 -5.665295
  N     4.865251  9.044661 -1.910562
  S     7.381944  5.113772 -6.050406
  S     4.236519  5.640578 -3.384049
  S     6.653520  5.235595 -1.873790
  S     7.177413  9.149898 -6.013169
  S     4.207373  9.704522 -3.304983
  S     6.529104  8.821712 -1.966732
