16  
    
  C     5.487656  5.559042 -4.097885
  C     6.763600  5.139815 -3.525457
  C     5.484971  8.926088 -4.141692
  C     6.802966  8.891141 -3.527855
  N     7.769115  5.073320 -4.431454
  N     5.581165  5.845693 -5.417981
  N     5.094257  5.420133 -1.573307
  N     7.861332  8.839288 -4.344477
  N     5.500117  8.846092 -5.439985
  N     5.099110  9.182235 -1.581456
  S     7.132154  5.497108 -5.923778
  S     4.274596  6.052667 -2.869802
  S     6.769644  5.090709 -1.765014
  S     7.104030  8.748479 -5.903179
  S     4.187140  9.002490 -2.957220
  S     6.669808  8.690663 -1.815132
