16  
    
  C     5.452083  6.018547 -4.280394
  C     6.690713  5.569167 -3.628004
  C     5.365941  9.509608 -4.366241
  C     6.626215  9.184269 -3.801378
  N     7.701137  5.532830 -4.491405
  N     5.590156  6.294703 -5.572676
  N     4.895739  5.525223 -1.800488
  N     7.638092  9.202016 -4.672649
  N     5.380944  9.685566 -5.661194
  N     4.920577  9.300004 -1.830272
  S     7.251939  6.054406 -5.975128
  S     4.115678  6.041321 -3.199849
  S     6.504800  5.050449 -1.997873
  S     6.925873  9.414085 -6.164042
  S     4.120490  9.661892 -3.207504
  S     6.520606  8.913012 -2.032005
