16  
    
  C     5.550582  6.051573 -4.285276
  C     6.682437  5.466919 -3.596544
  C     5.857229  9.647204 -4.249145
  C     7.054151  9.144093 -3.623408
  N     7.728618  5.207241 -4.392765
  N     5.717036  6.254505 -5.618451
  N     5.062534  6.151888 -1.777262
  N     8.052220  8.903164 -4.474781
  N     5.981444  9.838551 -5.533657
  N     5.295385  9.449507 -1.697692
  S     7.206931  5.577469 -5.896063
  S     4.310410  6.547278 -3.187036
  S     6.510021  5.278219 -1.848045
  S     7.444157  9.356166 -6.006769
  S     4.569615  9.983824 -3.134122
  S     6.939069  9.080756 -1.845628
