16  
    
  C     5.826086  5.784342 -4.501196
  C     7.050177  5.352609 -3.814098
  C     5.496175  9.565903 -4.310723
  C     6.761041  9.149253 -3.733219
  N     8.095474  5.096290 -4.601473
  N     5.935587  5.824472 -5.836721
  N     5.224490  5.971295 -2.020103
  N     7.790098  9.169930 -4.582504
  N     5.548850  9.823445 -5.602038
  N     5.088966  8.964440 -1.787976
  S     7.503395  5.443967 -6.136517
  S     4.450266  6.147065 -3.459030
  S     6.731145  5.296146 -2.103403
  S     7.130324  9.687471 -6.068212
  S     4.196331  9.395495 -3.127810
  S     6.739343  8.916099 -1.981292
