16  
    
  C     5.314997  6.334140 -4.521522
  C     6.580706  5.968786 -3.865026
  C     5.711728  9.541871 -4.406175
  C     6.968013  9.165084 -3.825757
  N     7.595917  5.689623 -4.685707
  N     5.439550  6.422718 -5.845099
  N     4.809121  6.435183 -1.990045
  N     7.965386  9.128862 -4.686076
  N     5.785805  9.733265 -5.709894
  N     5.299539  9.484263 -1.920765
  S     6.979065  6.027452 -6.302926
  S     4.045981  6.747236 -3.416677
  S     6.409763  5.887901 -2.124443
  S     7.269065  9.315490 -6.223400
  S     4.440743  9.817849 -3.346028
  S     6.895304  9.088688 -1.974376
