16  
    
  C     5.498177  5.603199 -4.135679
  C     6.785797  5.130045 -3.552561
  C     5.526548  8.971923 -4.114890
  C     6.823564  8.907220 -3.505904
  N     7.757304  4.982812 -4.421749
  N     5.541461  5.784410 -5.435594
  N     5.143749  5.379343 -1.581540
  N     7.829905  8.935959 -4.363655
  N     5.493980  8.873686 -5.460809
  N     5.061126  9.173541 -1.620961
  S     7.129405  5.498073 -5.932037
  S     4.311378  6.014109 -2.884544
  S     6.820019  5.166119 -1.737416
  S     7.104895  8.826938 -5.917989
  S     4.228791  8.986194 -3.004738
  S     6.676301  8.708348 -1.798323
