16  
    
  C     5.606067  5.871445 -4.527553
  C     6.792461  5.431042 -3.864724
  C     5.574676  9.723761 -4.193915
  C     6.814522  9.212994 -3.712134
  N     7.861045  5.283236 -4.619343
  N     5.702985  6.005849 -5.864627
  N     4.905061  5.620954 -1.991077
  N     7.811374  9.120442 -4.619453
  N     5.634098  9.975100 -5.480083
  N     5.002744  9.228768 -1.838713
  S     7.318924  5.664386 -6.202614
  S     4.219396  6.223307 -3.427908
  S     6.489206  5.086930 -2.079047
  S     7.132674  9.697399 -6.032876
  S     4.289157  9.910905 -3.123261
  S     6.606986  8.777130 -2.007505
