16  
    
  C     5.751528  5.779892 -4.356512
  C     6.933783  5.214148 -3.716728
  C     5.492924  9.437817 -4.442607
  C     6.572921  8.708403 -3.791788
  N     7.893522  4.851802 -4.571071
  N     5.809350  5.975851 -5.695852
  N     5.184899  5.500458 -1.810142
  N     7.643043  8.406777 -4.528210
  N     5.780609  9.681189 -5.702743
  N     4.851982  9.163377 -1.945382
  S     7.352345  5.439616 -6.024223
  S     4.460451  6.049373 -3.204104
  S     6.834466  5.076813 -1.946064
  S     7.269277  9.093533 -6.003707
  S     4.136961  9.722711 -3.368879
  S     6.410620  8.663896 -2.050157
