16  
    
  C     5.559871  5.903058 -4.443276
  C     6.686861  5.286014 -3.783311
  C     5.544967  9.570585 -4.099243
  C     6.802950  9.002906 -3.612337
  N     7.658978  4.985291 -4.625543
  N     5.790351  6.161486 -5.736831
  N     4.811654  5.689937 -1.965680
  N     7.676831  8.761144 -4.615530
  N     5.498322  9.773155 -5.411729
  N     5.086492  9.205754 -1.600329
  S     7.309415  5.544773 -6.124109
  S     4.110779  6.135205 -3.452580
  S     6.351822  5.130555 -2.010905
  S     6.975771  9.388576 -5.995300
  S     4.209166  9.709140 -3.015316
  S     6.697939  8.778790 -1.861013
