16  
    
  C     5.589048  6.076194 -4.463918
  C     6.797435  5.794582 -3.726327
  C     5.501991  9.625617 -4.485397
  C     6.656966  9.166573 -3.772102
  N     7.856954  5.579161 -4.477965
  N     5.780161  6.147927 -5.794508
  N     4.920508  5.979970 -1.911704
  N     7.797796  9.110941 -4.433394
  N     5.737223  9.831090 -5.779052
  N     4.927397  9.509563 -1.957745
  S     7.365198  5.804693 -6.118025
  S     4.286363  6.409563 -3.390583
  S     6.518927  5.594621 -2.065018
  S     7.371272  9.326247 -6.015793
  S     4.192350  9.898561 -3.371993
  S     6.543895  8.961667 -2.045420
