16  
    
  C     5.621213  5.539002 -4.049458
  C     6.881207  5.227753 -3.407010
  C     5.831885  9.321609 -3.888946
  C     7.120228  9.066705 -3.291103
  N     7.871729  4.866124 -4.244059
  N     5.700242  5.547855 -5.373278
  N     5.141279  5.424047 -1.520729
  N     8.144559  8.874950 -4.159386
  N     5.881715  9.365003 -5.192252
  N     5.323113  9.120888 -1.392939
  S     7.235037  5.193521 -5.788129
  S     4.213984  5.670881 -2.876823
  S     6.788768  5.033724 -1.699783
  S     7.450483  8.966019 -5.661362
  S     4.506566  9.574181 -2.762437
  S     6.895371  8.872963 -1.565097
