16  
    
  C     5.644503  6.073559 -4.286188
  C     6.795602  5.542401 -3.647367
  C     5.829213  9.194232 -4.234487
  C     7.049129  8.900901 -3.521525
  N     7.793450  5.273573 -4.484437
  N     5.723462  6.133903 -5.627167
  N     4.913625  5.469775 -1.924194
  N     8.157841  8.849119 -4.271002
  N     5.995059  9.327176 -5.552140
  N     5.381832  9.110227 -1.625918
  S     7.290289  5.744426 -6.002326
  S     4.310684  6.336890 -3.205488
  S     6.572027  5.142665 -1.934581
  S     7.603131  9.127095 -5.830857
  S     4.591192  9.452493 -3.014316
  S     6.952169  8.575181 -1.793623
