16  
    
  C     5.358741  5.759115 -4.477361
  C     6.653219  5.498723 -3.851672
  C     5.300995  9.945034 -4.714101
  C     6.444724  9.512348 -3.994297
  N     7.652320  5.460596 -4.665437
  N     5.423990  6.037866 -5.787474
  N     4.937998  5.615072 -1.910957
  N     7.515793  9.481559 -4.788285
  N     5.421752 10.142090 -6.031971
  N     4.767337  9.636682 -2.133145
  S     7.037908  5.880250 -6.167606
  S     4.007550  5.850722 -3.285832
  S     6.512395  5.160792 -2.121443
  S     7.056543  9.980822 -6.282405
  S     3.923867 10.107880 -3.566306
  S     6.313389  9.190528 -2.324348
