16  
    
  C     5.615384  5.583666 -4.443130
  C     6.830405  5.368041 -3.711235
  C     5.692742  9.385958 -4.071442
  C     6.894115  8.836356 -3.513443
  N     7.881140  5.125679 -4.455773
  N     5.672922  5.470570 -5.749712
  N     5.052290  5.724605 -1.875140
  N     7.915340  8.773958 -4.376830
  N     5.774360  9.863993 -5.289323
  N     5.199180  9.050134 -1.630440
  S     7.335749  5.225767 -6.070038
  S     4.304785  5.853716 -3.317961
  S     6.668367  5.275005 -1.956259
  S     7.363713  9.493343 -5.781265
  S     4.418440  9.639857 -2.988662
  S     6.763113  8.602343 -1.801942
