16  
    
  C     5.585819  6.109361 -4.358035
  C     6.703831  5.415803 -3.696796
  C     5.843066  9.851173 -4.209393
  C     7.026882  9.342149 -3.582188
  N     7.656456  4.901407 -4.499173
  N     5.735898  6.219869 -5.670368
  N     4.943286  6.115004 -1.826898
  N     8.015998  8.953376 -4.392099
  N     5.932953  9.834112 -5.557687
  N     5.206552  9.285578 -1.804780
  S     7.195619  5.491563 -5.993726
  S     4.200783  6.463731 -3.259764
  S     6.447489  5.399872 -1.938631
  S     7.445606  9.225425 -5.928199
  S     4.449565  9.890669 -3.131791
  S     6.826401  9.114587 -1.893363
