16  
    
  C     5.825569  5.777341 -4.490462
  C     7.033328  5.354043 -3.810156
  C     5.501815  9.555466 -4.304438
  C     6.776374  9.146956 -3.742632
  N     8.081888  5.095168 -4.605905
  N     5.936786  5.835856 -5.819650
  N     5.228485  5.957420 -2.021020
  N     7.795744  9.160578 -4.592294
  N     5.561772  9.812812 -5.585702
  N     5.078567  8.958450 -1.784884
  S     7.497533  5.438824 -6.145089
  S     4.444288  6.142505 -3.462508
  S     6.732250  5.299037 -2.113437
  S     7.119581  9.694976 -6.059268
  S     4.194929  9.392009 -3.126594
  S     6.736606  8.921436 -1.985404
