16  
    
  C     5.438845  5.733553 -4.147117
  C     6.573148  5.108468 -3.556381
  C     5.553601  9.476267 -4.170710
  C     6.754216  8.938060 -3.545580
  N     7.560659  4.841796 -4.377142
  N     5.575536  6.072246 -5.429736
  N     4.833360  5.280347 -1.699662
  N     7.774081  8.686633 -4.372736
  N     5.680300  9.755028 -5.458198
  N     4.988436  9.038118 -1.683368
  S     7.083392  5.496021 -5.888533
  S     4.129097  5.914493 -3.003614
  S     6.444598  4.879421 -1.860835
  S     7.255474  9.309942 -5.868291
  S     4.227817  9.498047 -3.075605
  S     6.658532  8.752524 -1.809778
