16  
    
  C     5.640758  5.729782 -4.255937
  C     6.833262  5.318149 -3.630038
  C     5.542005  9.447059 -4.402655
  C     6.819434  9.173974 -3.778154
  N     7.859004  5.310577 -4.504283
  N     5.721337  6.058992 -5.558633
  N     5.024070  5.317202 -1.816245
  N     7.805909  9.044777 -4.606106
  N     5.644006  9.512315 -5.725979
  N     5.210787  9.369127 -1.817684
  S     7.283380  5.725603 -6.006838
  S     4.241336  5.891533 -3.205190
  S     6.704725  4.950264 -1.899474
  S     7.220452  9.232307 -6.119701
  S     4.321677  9.815057 -3.181803
  S     6.770592  8.953263 -2.051091
