16  
    
  C     5.444589  5.708933 -4.392462
  C     6.672289  5.264528 -3.791028
  C     5.783378  9.063245 -4.256283
  C     7.010197  8.837133 -3.545354
  N     7.661911  4.867741 -4.602145
  N     5.582597  5.827592 -5.732050
  N     4.986535  5.713946 -1.843323
  N     8.026005  8.631232 -4.375597
  N     5.877796  9.115750 -5.586992
  N     5.144656  9.275942 -1.809115
  S     7.106086  5.394492 -6.117887
  S     4.196453  6.031852 -3.216770
  S     6.542947  5.187734 -2.041560
  S     7.433697  8.728367 -5.902844
  S     4.421373  9.522898 -3.292931
  S     6.758297  8.886035 -1.801030
