16  
    
  C     5.465435  5.996146 -4.402978
  C     6.637724  5.371646 -3.845842
  C     5.545741  9.822790 -4.633284
  C     6.705247  9.176596 -4.049876
  N     7.626948  5.185222 -4.736278
  N     5.492764  6.211677 -5.719180
  N     5.059346  5.525794 -1.871545
  N     7.595281  8.829477 -4.923587
  N     5.625864 10.014423 -5.950310
  N     5.278916  9.721758 -2.074169
  S     6.978264  5.711416 -6.263161
  S     4.215853  6.160194 -3.178688
  S     6.722540  5.245068 -2.162215
  S     7.112122  9.337664 -6.419838
  S     4.370963 10.344476 -3.381164
  S     6.674874  8.994769 -2.398276
