16  
    
  C     5.396372  6.031539 -4.214346
  C     6.627466  5.536991 -3.687295
  C     5.580023  9.615360 -4.404472
  C     6.774630  9.256056 -3.710862
  N     7.659759  5.409879 -4.528529
  N     5.442309  6.243097 -5.533944
  N     5.004141  5.722547 -1.705399
  N     7.806377  8.974456 -4.517672
  N     5.707941  9.739702 -5.725280
  N     5.000473  9.622605 -1.891229
  S     6.981581  5.895057 -5.956594
  S     4.119151  6.091251 -3.017464
  S     6.593718  5.323557 -1.913255
  S     7.261866  9.214997 -6.046649
  S     4.151568  9.794351 -3.334663
  S     6.613983  9.140826 -2.052593
