16  
    
  C     5.408635  6.074323 -4.401180
  C     6.579863  5.600278 -3.722965
  C     5.676835  9.670867 -4.439672
  C     6.787004  9.113392 -3.723495
  N     7.643753  5.492159 -4.509941
  N     5.530989  6.102719 -5.725707
  N     4.812774  5.940861 -1.825881
  N     7.818929  8.831825 -4.473514
  N     5.873733  9.891166 -5.739830
  N     5.014041  9.419324 -1.911778
  S     7.121006  5.780398 -6.081563
  S     4.100738  6.399760 -3.289892
  S     6.347543  5.380474 -2.053171
  S     7.404405  9.319539 -5.969902
  S     4.331720  9.918836 -3.280987
  S     6.590184  8.871561 -1.991915
