16  
    
  C     5.324575  6.023113 -4.424481
  C     6.526537  5.528388 -3.830894
  C     5.400385  9.227898 -4.402099
  C     6.600657  8.867078 -3.743200
  N     7.565293  5.267800 -4.652515
  N     5.446874  6.379533 -5.695463
  N     4.792393  5.572264 -1.838825
  N     7.699633  8.704430 -4.458214
  N     5.591851  9.298797 -5.732255
  N     4.979466  9.266051 -1.803351
  S     6.962478  5.861354 -6.159364
  S     4.044799  6.198916 -3.182280
  S     6.406040  5.373068 -2.086038
  S     7.227829  9.150197 -5.996247
  S     4.077991  9.166657 -3.259854
  S     6.562958  8.786879 -2.022557
