16  
    
  C     5.380560  6.165561 -4.440243
  C     6.534705  5.576185 -3.780215
  C     5.573524  9.520857 -4.185034
  C     6.763668  9.076517 -3.520379
  N     7.550758  5.387669 -4.600263
  N     5.543618  6.399915 -5.739493
  N     4.630106  5.868909 -1.977151
  N     7.844041  9.013695 -4.299508
  N     5.688151  9.858750 -5.455407
  N     4.950551  9.418789 -1.708384
  S     7.102036  5.869147 -6.048328
  S     3.993643  6.450378 -3.427343
  S     6.240896  5.491528 -2.051333
  S     7.232582  9.431942 -5.829198
  S     4.142310  9.634702 -3.192216
  S     6.476147  8.919326 -1.788718
