16  
    
  C     5.628826  5.782062 -4.118923
  C     6.829369  5.234955 -3.555470
  C     5.789258  9.157748 -3.969746
  C     7.049441  8.781774 -3.361618
  N     7.829367  5.013389 -4.402958
  N     5.675630  6.022442 -5.427594
  N     5.233038  5.261135 -1.629664
  N     8.070124  8.741820 -4.240912
  N     5.852374  9.486990 -5.244194
  N     5.305304  9.002434 -1.433719
  S     7.203550  5.488984 -5.871802
  S     4.466341  5.987550 -2.905289
  S     6.804350  4.864013 -1.911917
  S     7.487486  9.243449 -5.704621
  S     4.470474  9.275330 -2.842446
  S     6.939333  8.659078 -1.596271
