16  
    
  C     5.733147  5.943169 -4.144291
  C     6.938028  5.241764 -3.682896
  C     5.729574  9.290582 -4.051120
  C     6.953997  8.872880 -3.438558
  N     7.893432  5.075836 -4.633103
  N     5.813549  6.223418 -5.445556
  N     5.216507  5.207197 -1.706129
  N     7.999745  8.797782 -4.251294
  N     5.851142  9.437120 -5.366171
  N     5.354193  8.825909 -1.493213
  S     7.196198  5.639025 -6.066275
  S     4.410025  5.980575 -2.955555
  S     6.847590  4.801461 -1.956704
  S     7.406407  9.177033 -5.717271
  S     4.457636  9.228195 -2.856097
  S     6.962017  8.488946 -1.799205
