16  
    
  C     5.567239  5.992049 -4.533539
  C     6.822963  5.470119 -3.874025
  C     5.558503  9.785345 -4.384312
  C     6.732387  9.269399 -3.734921
  N     7.893814  5.366675 -4.620175
  N     5.738964  6.186801 -5.843206
  N     5.029110  5.747676 -2.044633
  N     7.740640  9.098749 -4.559733
  N     5.758459 10.066269 -5.664464
  N     4.985357  9.277518 -1.890088
  S     7.314714  5.752473 -6.135667
  S     4.208168  6.157888 -3.487421
  S     6.581743  5.200906 -2.174770
  S     7.325289  9.694519 -6.048893
  S     4.166451  9.908715 -3.209350
  S     6.577272  8.863784 -2.077284
