16  
    
  C     5.258615  6.306279 -4.486090
  C     6.386518  5.701978 -3.845327
  C     5.414115  9.549202 -4.142738
  C     6.699174  9.270313 -3.445930
  N     7.425058  5.548621 -4.687069
  N     5.404920  6.553793 -5.814576
  N     4.566697  5.876212 -2.047133
  N     7.747708  9.191405 -4.243444
  N     5.532808  9.695446 -5.448856
  N     4.949023  9.305633 -1.583158
  S     6.975422  6.024534 -6.119137
  S     3.859053  6.494872 -3.445019
  S     6.221410  5.482843 -2.122619
  S     7.166535  9.527013 -5.789154
  S     4.007580  9.490055 -2.987198
  S     6.509572  8.911734 -1.779578
