16  
    
  C     5.510220  5.817864 -4.356994
  C     6.619153  5.285206 -3.616525
  C     5.733634  9.241577 -4.171231
  C     7.006472  8.909337 -3.580780
  N     7.655170  5.059449 -4.413506
  N     5.672804  6.034271 -5.634125
  N     4.681304  5.572657 -1.939772
  N     8.033828  8.809045 -4.416035
  N     5.814674  9.378887 -5.503574
  N     5.203813  8.773217 -1.644758
  S     7.285531  5.626929 -5.928000
  S     4.093500  5.996044 -3.406495
  S     6.303091  5.096112 -1.928291
  S     7.397002  9.151054 -5.989918
  S     4.390444  8.973040 -3.070466
  S     6.852798  8.553743 -1.876325
