16  
    
  C     5.659777  5.394226 -4.395185
  C     6.843203  5.050179 -3.743305
  C     5.470898  9.387544 -4.464330
  C     6.660670  8.952035 -3.787100
  N     7.971919  4.970963 -4.462239
  N     5.833939  5.538315 -5.724215
  N     5.069234  5.504101 -1.886096
  N     7.717968  8.783783 -4.578289
  N     5.599040  9.325766 -5.792286
  N     4.802438  9.184642 -1.935033
  S     7.406598  5.188007 -5.972458
  S     4.312585  5.527450 -3.323803
  S     6.702087  5.093690 -2.052485
  S     7.143299  9.055030 -6.148879
  S     4.150684  9.843180 -3.325581
  S     6.439002  8.846975 -2.051392
