16  
    
  C     5.841167  5.767152 -4.024083
  C     6.903850  5.007055 -3.413739
  C     5.629261  9.623004 -4.191801
  C     6.847659  9.006506 -3.741214
  N     7.927805  4.853114 -4.252285
  N     6.074849  6.196363 -5.277042
  N     5.180439  5.118313 -1.568576
  N     7.850122  9.082770 -4.604932
  N     5.710176 10.116760 -5.418088
  N     5.176589  8.911320 -1.795064
  S     7.612129  5.618753 -5.641155
  S     4.387923  5.786766 -2.959042
  S     6.751546  4.587505 -1.764054
  S     7.257896  9.820309 -5.914372
  S     4.398375  9.681921 -3.053473
  S     6.729637  8.450137 -2.054221
