16  
    
  C     5.733102  5.406510 -4.226645
  C     6.984512  4.951684 -3.527739
  C     5.367575  9.353048 -4.693302
  C     6.548873  8.905456 -3.984944
  N     8.055060  4.885017 -4.317629
  N     5.897432  5.703105 -5.520720
  N     5.101146  5.201684 -1.704692
  N     7.673484  8.736994 -4.710099
  N     5.548700  9.351898 -6.018829
  N     4.790631  9.117873 -2.118242
  S     7.478761  5.288145 -5.828922
  S     4.340045  5.627981 -3.161801
  S     6.680999  4.729463 -1.826910
  S     7.149285  9.041323 -6.318307
  S     4.117214  9.733705 -3.505454
  S     6.431997  8.695887 -2.237871
