16  
    
  C     5.612689  5.404943 -4.141900
  C     6.887004  4.964221 -3.492653
  C     5.506929  9.427734 -4.689198
  C     6.631969  8.851647 -3.971159
  N     7.867150  4.726206 -4.354382
  N     5.760215  5.665717 -5.430307
  N     5.119390  5.047955 -1.628737
  N     7.608472  8.496231 -4.803563
  N     5.588732  9.538365 -6.009078
  N     4.831127  9.317456 -2.206173
  S     7.335589  5.261294 -5.822056
  S     4.278785  5.309174 -3.073653
  S     6.772931  4.848084 -1.752361
  S     7.094351  8.980786 -6.380976
  S     4.142642  9.673020 -3.659454
  S     6.501913  8.885414 -2.260570
