16  
    
  C     5.393094  6.217532 -4.337798
  C     6.620787  5.719397 -3.726085
  C     5.454638  9.601320 -4.330788
  C     6.699055  9.288869 -3.720840
  N     7.617918  5.525431 -4.573299
  N     5.487696  6.202190 -5.653660
  N     4.881980  6.041491 -1.841590
  N     7.827585  9.212398 -4.484677
  N     5.623371  9.870593 -5.644294
  N     4.963824  9.270668 -1.785975
  S     7.095367  5.829589 -6.136955
  S     4.066323  6.533983 -3.274338
  S     6.482172  5.575737 -2.014073
  S     7.252160  9.520548 -5.985334
  S     4.084669  9.606290 -3.198095
  S     6.566310  8.990196 -1.982701
