16  
    
  C     5.493008  6.049490 -4.438178
  C     6.652533  5.438073 -3.861823
  C     5.350478  9.819628 -4.539923
  C     6.551124  9.350748 -3.913381
  N     7.622914  5.231798 -4.743692
  N     5.549293  6.218868 -5.769316
  N     4.948589  5.776224 -1.983592
  N     7.609923  9.164004 -4.660875
  N     5.557276 10.094917 -5.801417
  N     4.893462  9.677377 -2.003951
  S     7.122297  5.671464 -6.261831
  S     4.161593  6.367073 -3.301182
  S     6.557271  5.378345 -2.105022
  S     7.195439  9.714193 -6.123351
  S     4.064574  9.909231 -3.362339
  S     6.476061  9.034257 -2.169727
