16  
    
  C     5.657675  5.721253 -4.354454
  C     6.892650  5.360074 -3.793487
  C     5.774315  9.678187 -4.284825
  C     7.005559  9.242637 -3.739050
  N     7.920896  5.331806 -4.614572
  N     5.706162  5.899010 -5.666822
  N     5.257326  5.588066 -1.835552
  N     7.929520  9.166820 -4.701690
  N     5.736805  9.979009 -5.587769
  N     5.262332  8.869194 -1.834859
  S     7.278253  5.555814 -6.163967
  S     4.388864  5.931080 -3.175310
  S     6.859149  5.090372 -2.066514
  S     7.305583  9.613740 -6.113748
  S     4.465843  9.468943 -3.144217
  S     6.931710  8.727323 -2.043746
