16  
    
  C     5.446562  5.825793 -4.109057
  C     6.500147  4.952322 -3.597513
  C     5.684848  9.408324 -4.482129
  C     6.892196  8.905320 -3.847672
  N     7.396608  4.465993 -4.476702
  N     5.619928  6.031333 -5.424484
  N     5.025363  5.616475 -1.605497
  N     7.917978  8.719325 -4.671166
  N     5.768272  9.627737 -5.757708
  N     5.002087  9.208069 -2.052166
  S     6.976649  5.205308 -5.898501
  S     4.325303  6.386734 -2.929660
  S     6.318799  4.623643 -1.907389
  S     7.344639  9.162907 -6.187792
  S     4.418367  9.932103 -3.442136
  S     6.552647  8.638225 -2.169891
