16  
    
  C     5.651357  5.760410 -4.090075
  C     6.773949  5.186248 -3.429277
  C     5.533369  9.369176 -3.977505
  C     6.688479  8.797901 -3.319861
  N     7.806427  4.882139 -4.197090
  N     5.912979  6.107353 -5.348535
  N     4.906776  5.375876 -1.598922
  N     7.693733  8.611624 -4.154538
  N     5.695812  9.742505 -5.255719
  N     4.877143  9.226720 -1.477983
  S     7.536960  5.557939 -5.651978
  S     4.224022  5.902801 -3.051072
  S     6.580502  5.065625 -1.651377
  S     7.226833  9.221515 -5.677480
  S     4.187887  9.632023 -2.961231
  S     6.408351  8.577378 -1.604423
