16  
    
  C     5.400404  5.461643 -4.206579
  C     6.594557  5.046393 -3.447304
  C     5.724155  8.957782 -3.969389
  C     6.989717  8.505777 -3.409092
  N     7.707830  4.854941 -4.199962
  N     5.649021  5.573731 -5.512404
  N     4.723022  5.513147 -1.732163
  N     8.033615  8.411519 -4.204093
  N     5.768008  9.038608 -5.297939
  N     5.368718  8.904885 -1.440333
  S     7.214079  5.164065 -5.781986
  S     4.007617  5.831451 -3.210408
  S     6.333569  5.194763 -1.762034
  S     7.336368  8.746997 -5.748230
  S     4.430791  9.118068 -2.802908
  S     6.849629  8.191284 -1.703083
