16  
    
  C     5.253207  6.290146 -4.365857
  C     6.392058  5.672479 -3.708284
  C     5.616179  9.529150 -4.276575
  C     6.807417  9.046585 -3.671458
  N     7.359631  5.240814 -4.498322
  N     5.441340  6.515338 -5.645663
  N     4.663861  6.254452 -1.845567
  N     7.872223  8.970355 -4.511574
  N     5.689601  9.705318 -5.605639
  N     5.034838  9.481218 -1.709073
  S     6.985606  5.914741 -6.002861
  S     3.953741  6.751349 -3.282248
  S     6.126720  5.555078 -2.006874
  S     7.280945  9.307390 -6.003092
  S     4.282217  9.832796 -3.125067
  S     6.605301  8.928740 -1.958155
