16  
    
  C     5.543355  6.422335 -4.541010
  C     6.661825  5.853092 -3.863753
  C     5.637391  9.801113 -4.436210
  C     6.856779  9.475507 -3.775804
  N     7.726239  5.530264 -4.637768
  N     5.674846  6.487152 -5.869169
  N     4.881495  6.224368 -2.022618
  N     7.926075  9.228246 -4.490287
  N     5.867584  9.839344 -5.723105
  N     5.080037  9.781881 -1.868759
  S     7.160265  5.873524 -6.205011
  S     4.219918  6.729302 -3.413017
  S     6.477796  5.878418 -2.108924
  S     7.428574  9.493541 -6.044038
  S     4.290042  9.921345 -3.349599
  S     6.674296  9.340464 -2.099292
