16  
    
  C     5.456756  5.592670 -4.262900
  C     6.629636  5.091556 -3.550743
  C     5.870747  9.088499 -3.942647
  C     7.145775  8.650181 -3.403092
  N     7.730006  4.910190 -4.295431
  N     5.645157  5.790146 -5.576546
  N     4.861579  5.828105 -1.739871
  N     8.153852  8.481813 -4.244418
  N     5.969480  9.430354 -5.221681
  N     5.416832  8.334730 -1.509347
  S     7.187226  5.264828 -5.845405
  S     4.141278  6.114632 -3.219514
  S     6.373277  5.153893 -1.839800
  S     7.550015  9.042394 -5.729591
  S     4.527447  9.035916 -2.765765
  S     7.067195  8.402704 -1.705981
