16  
    
  C     5.462170  5.754436 -4.361411
  C     6.647146  5.373261 -3.644388
  C     5.718643  9.074925 -4.134864
  C     7.029010  8.861607 -3.569257
  N     7.764840  5.287802 -4.368076
  N     5.665142  5.931985 -5.635463
  N     4.733836  5.462428 -1.993781
  N     8.042012  8.913571 -4.441944
  N     5.741147  9.338397 -5.441630
  N     5.231237  8.715819 -1.696439
  S     7.255786  5.707876 -5.921286
  S     4.060317  6.097885 -3.375505
  S     6.372411  5.186868 -1.955326
  S     7.338259  9.098938 -5.904624
  S     4.383872  8.940044 -3.102444
  S     6.853105  8.451780 -1.844846
