16  
    
  C     5.538298  5.950602 -4.750566
  C     6.747925  5.622700 -3.999879
  C     5.591707  9.815275 -4.321798
  C     6.751635  9.218797 -3.732467
  N     7.813988  5.624354 -4.804461
  N     5.700439  6.171820 -6.067438
  N     4.894418  5.668513 -2.250800
  N     7.748138  9.090152 -4.613390
  N     5.748027 10.211668 -5.570288
  N     4.864095  9.204758 -1.948626
  S     7.293664  5.884952 -6.315330
  S     4.196974  6.013409 -3.707355
  S     6.468774  5.362216 -2.286201
  S     7.304310  9.750839 -6.003659
  S     4.185325  9.792536 -3.369963
  S     6.486101  8.860733 -2.005441
