16  
    
  C     5.556690  5.604399 -4.310957
  C     6.671679  5.069846 -3.624862
  C     5.509088  9.257115 -4.282643
  C     6.722250  8.765932 -3.660298
  N     7.782277  4.956478 -4.338180
  N     5.741779  5.818751 -5.612864
  N     4.983866  5.639405 -1.763909
  N     7.792581  8.646936 -4.477334
  N     5.655657  9.409853 -5.589507
  N     4.947692  9.109079 -1.777356
  S     7.269951  5.335641 -5.890524
  S     4.246747  6.048129 -3.207853
  S     6.531684  5.001006 -1.967565
  S     7.242472  9.154706 -5.960736
  S     4.195933  9.573351 -3.188605
  S     6.549025  8.565337 -1.932286
