16  
    
  C     5.475414  6.061107 -4.219316
  C     6.709616  5.433607 -3.670021
  C     5.396427  9.519214 -4.322537
  C     6.679984  9.194179 -3.786922
  N     7.738852  5.432713 -4.511109
  N     5.642133  6.401836 -5.497650
  N     4.937047  5.604078 -1.766071
  N     7.678410  9.059066 -4.698768
  N     5.418277  9.661017 -5.667392
  N     4.923110  9.163847 -1.826983
  S     7.167091  5.985684 -5.949147
  S     4.156484  6.080758 -3.118340
  S     6.508022  5.074184 -1.990251
  S     6.981326  9.456850 -6.147472
  S     4.038048  9.670190 -3.232725
  S     6.556403  8.877230 -2.054703
