16  
    
  C     5.107047  5.977177 -4.321940
  C     6.304075  5.628969 -3.599529
  C     5.485588  9.522375 -4.062943
  C     6.712627  9.040542 -3.465991
  N     7.384535  5.538412 -4.386638
  N     5.241340  6.040369 -5.654567
  N     4.488998  5.830067 -1.816761
  N     7.687081  8.726360 -4.268670
  N     5.549779  9.499942 -5.366210
  N     5.254791  9.576473 -1.524138
  S     6.811595  5.667087 -5.923382
  S     3.847355  6.384686 -3.224524
  S     6.104847  5.580020 -1.898636
  S     7.053958  9.011950 -5.810174
  S     4.376232  9.994365 -2.853287
  S     6.671528  8.722158 -1.727768
