16  
    
  C     5.561963  6.093674 -4.265197
  C     6.659171  5.459535 -3.601612
  C     5.866874  9.694398 -4.232663
  C     7.045114  9.200650 -3.577768
  N     7.646135  5.123461 -4.404931
  N     5.749910  6.221170 -5.545839
  N     5.054045  6.184402 -1.787213
  N     8.011270  8.946978 -4.456089
  N     5.977849  9.914426 -5.567063
  N     5.256216  9.355117 -1.724095
  S     7.210055  5.537068 -5.942099
  S     4.283262  6.506028 -3.227023
  S     6.480588  5.309190 -1.909447
  S     7.443743  9.295072 -5.999567
  S     4.541407  9.962105 -3.157183
  S     6.915561  9.105667 -1.829745
