16  
    
  C     5.731010  5.722252 -4.191980
  C     6.863518  5.018278 -3.556325
  C     5.427691  9.320674 -4.206467
  C     6.539743  8.638057 -3.632784
  N     7.785370  4.677769 -4.473073
  N     5.808772  5.828230 -5.518642
  N     5.006353  5.455529 -1.765757
  N     7.506243  8.316443 -4.472153
  N     5.574337  9.486513 -5.525165
  N     4.858923  9.108898 -1.688193
  S     7.332418  5.270131 -5.938909
  S     4.297964  6.008372 -3.182931
  S     6.570797  4.933990 -1.827350
  S     6.995617  8.777338 -5.953400
  S     4.103730  9.542595 -3.099096
  S     6.403469  8.504857 -1.915779
