16  
    
  C     5.471035  5.818456 -4.594817
  C     6.747968  5.568755 -3.851149
  C     5.263185  9.749452 -4.512784
  C     6.442837  9.343269 -3.756168
  N     7.825367  5.527511 -4.640188
  N     5.628115  5.961473 -5.918384
  N     4.856897  5.771150 -2.049098
  N     7.467198  8.871572 -4.485235
  N     5.415138  9.585137 -5.831760
  N     4.688352  9.702131 -1.899034
  S     7.269695  5.735368 -6.164138
  S     4.134053  5.954619 -3.484084
  S     6.519708  5.427912 -2.104436
  S     6.890811  8.861946 -6.081929
  S     3.918283 10.007618 -3.342911
  S     6.310082  9.296130 -2.013622
