16  
    
  C     5.526821  5.091135 -4.176443
  C     6.869429  5.091774 -3.684821
  C     5.390798  9.189508 -4.545232
  C     6.571248  8.761046 -3.833615
  N     7.838066  5.139912 -4.611656
  N     5.454509  5.196290 -5.507063
  N     5.202872  5.225865 -1.658038
  N     7.604510  8.447551 -4.597681
  N     5.578833  9.314248 -5.848529
  N     4.812161  9.090610 -2.021594
  S     7.043408  5.105431 -6.053170
  S     4.228104  5.238270 -3.045875
  S     6.854375  5.047115 -1.887074
  S     7.172521  8.924981 -6.142475
  S     4.080937  9.557845 -3.433985
  S     6.400213  8.742199 -2.136101
