16  
    
  C     5.498379  6.020178 -4.380097
  C     6.670735  5.426991 -3.670750
  C     5.653287  9.531198 -4.268206
  C     6.865900  9.063797 -3.620924
  N     7.742071  5.349042 -4.424958
  N     5.763376  6.276185 -5.640335
  N     4.768871  5.662543 -1.942861
  N     7.869167  8.878691 -4.490334
  N     5.718324  9.683636 -5.610192
  N     5.234559  9.443202 -1.699849
  S     7.342820  5.786643 -5.966177
  S     4.235028  6.435252 -3.293147
  S     6.343525  5.094888 -2.008582
  S     7.289415  9.339599 -6.020058
  S     4.466445  9.844058 -3.087130
  S     6.712987  8.857797 -1.890743
