16  
    
  C     5.642043  5.675380 -4.146552
  C     6.880891  5.383623 -3.552640
  C     5.560184  9.112637 -4.220001
  C     6.839096  8.970639 -3.576285
  N     7.850075  5.112899 -4.458656
  N     5.664114  5.666075 -5.507399
  N     5.218686  5.694781 -1.601911
  N     7.874072  8.986979 -4.398456
  N     5.661095  9.348524 -5.532363
  N     5.144402  8.831674 -1.650817
  S     7.180824  5.166834 -5.954481
  S     4.302494  5.684997 -2.986625
  S     6.883391  5.341818 -1.751549
  S     7.279247  9.275302 -5.871289
  S     4.234374  8.948914 -3.063262
  S     6.743668  8.975881 -1.866705
