16  
    
  C     5.689031  5.771169 -4.209071
  C     6.894889  5.382291 -3.626974
  C     5.724777  9.582725 -4.368687
  C     6.919469  9.063310 -3.727389
  N     7.920205  5.204403 -4.449695
  N     5.733336  5.931621 -5.517559
  N     5.170844  5.431828 -1.733869
  N     7.879638  8.925916 -4.651477
  N     5.761150  9.893294 -5.636234
  N     5.086686  8.943186 -1.963085
  S     7.316460  5.646166 -5.950126
  S     4.337160  5.685969 -3.132562
  S     6.777154  5.105448 -1.893813
  S     7.302217  9.388267 -6.094762
  S     4.291728  9.624915 -3.297178
  S     6.757073  8.808982 -2.026397
