16  
    
  C     5.179210  6.307723 -4.589933
  C     6.435048  5.895832 -4.017311
  C     5.494154  9.487217 -4.057002
  C     6.833550  9.148088 -3.492916
  N     7.474563  5.876618 -4.871614
  N     5.270827  6.411520 -5.895430
  N     4.771078  5.792349 -2.092214
  N     7.861542  9.253521 -4.301848
  N     5.600066  9.921550 -5.302271
  N     5.095642  9.010781 -1.530778
  S     6.841628  6.168680 -6.357710
  S     3.947899  6.471380 -3.348814
  S     6.426955  5.553480 -2.303653
  S     7.206737  9.705098 -5.794269
  S     4.188316  9.305854 -2.923849
  S     6.679466  8.563295 -1.808263
