16  
    
  C     5.304964  6.371205 -4.593981
  C     6.566560  5.964555 -3.932556
  C     5.746482  9.585570 -4.414030
  C     7.019118  9.243558 -3.797569
  N     7.554773  5.819002 -4.808034
  N     5.365533  6.408760 -5.905710
  N     4.792315  6.388669 -2.014780
  N     7.999967  9.108316 -4.689910
  N     5.749285  9.697737 -5.744817
  N     5.276606  9.475294 -1.893487
  S     6.940180  6.018838 -6.288760
  S     3.978549  6.807948 -3.447813
  S     6.391942  5.917419 -2.165721
  S     7.349629  9.379898 -6.184266
  S     4.434531  9.798056 -3.248136
  S     6.928797  9.074137 -2.110801
