16  
    
  C     5.579029  5.499128 -4.255088
  C     6.780324  5.111867 -3.518569
  C     5.376671  9.208121 -4.281782
  C     6.565890  8.630115 -3.672432
  N     7.847519  4.916487 -4.288026
  N     5.769099  5.681622 -5.560907
  N     5.023489  5.405719 -1.688677
  N     7.494114  8.300011 -4.551777
  N     5.462490  9.448989 -5.593548
  N     4.932620  9.107964 -1.732246
  S     7.300364  5.189299 -5.874788
  S     4.341443  5.885851 -3.153666
  S     6.547081  4.840895 -1.828601
  S     6.960787  8.842196 -6.032023
  S     4.133545  9.656727 -3.116365
  S     6.429430  8.462260 -1.909286
