16  
    
  C     5.251427  6.244332 -4.323408
  C     6.403254  5.714331 -3.621071
  C     5.488817  9.745298 -4.231456
  C     6.615850  9.110057 -3.567139
  N     7.402982  5.320239 -4.420140
  N     5.482718  6.440386 -5.626538
  N     4.529782  5.867907 -1.814673
  N     7.655467  8.866390 -4.344933
  N     5.699556  9.906430 -5.534127
  N     5.057588  9.787206 -1.629053
  S     7.041794  5.747551 -5.952552
  S     3.931922  6.568284 -3.245516
  S     6.163534  5.541648 -1.901286
  S     7.220556  9.287440 -5.878278
  S     4.149115 10.017054 -3.107476
  S     6.477894  8.936535 -1.849042
