16  
    
  C     5.674474  5.894517 -4.087203
  C     6.706187  5.055781 -3.521680
  C     5.714013  9.492397 -4.550357
  C     6.844629  8.839147 -3.943286
  N     7.553377  4.630642 -4.481772
  N     5.773798  6.150066 -5.402325
  N     5.079619  5.704214 -1.592204
  N     7.800161  8.524750 -4.794949
  N     5.908393  9.825577 -5.798693
  N     5.215030  9.463764 -2.011186
  S     7.152145  5.415084 -5.851290
  S     4.465083  6.377427 -2.947463
  S     6.360913  4.733109 -1.893112
  S     7.435884  9.141647 -6.242374
  S     4.400152  9.791843 -3.393827
  S     6.681914  8.701171 -2.239890
