16  
    
  C     5.396350  5.731312 -4.370627
  C     6.653656  5.340692 -3.808708
  C     5.340741  9.969548 -4.610913
  C     6.498808  9.424094 -4.009152
  N     7.636771  5.367033 -4.663649
  N     5.416301  5.954078 -5.674437
  N     4.895416  5.604611 -1.841735
  N     7.564219  9.323838 -4.846532
  N     5.457295 10.380127 -5.884527
  N     4.676563  9.716904 -2.119601
  S     6.998513  5.753964 -6.130836
  S     4.068094  5.694717 -3.285992
  S     6.510328  5.250997 -2.042334
  S     6.984828  9.892189 -6.317107
  S     3.971597 10.217728 -3.537367
  S     6.253672  9.134476 -2.284600
