16  
    
  C     5.167517  6.266200 -4.309422
  C     6.218429  5.550733 -3.591845
  C     5.735681  9.625080 -4.222666
  C     6.875067  9.048653 -3.589160
  N     7.172086  5.077671 -4.370826
  N     5.471917  6.442591 -5.582212
  N     4.456925  6.240751 -1.871032
  N     7.863574  8.968211 -4.453096
  N     5.749949  9.920894 -5.525646
  N     5.079331  9.404161 -1.699117
  S     6.944014  5.666191 -5.881079
  S     3.891132  6.732476 -3.330615
  S     5.881580  5.459186 -1.899899
  S     7.292158  9.396883 -5.949325
  S     4.416615  9.890246 -3.106954
  S     6.691395  8.834691 -1.817838
