16  
    
  C     5.825813  5.797048 -4.526873
  C     7.064531  5.356699 -3.819056
  C     5.481402  9.575680 -4.312428
  C     6.737584  9.166634 -3.714173
  N     8.115368  5.110132 -4.589713
  N     5.936358  5.801683 -5.862231
  N     5.214950  5.998213 -2.013801
  N     7.769854  9.196240 -4.564438
  N     5.518721  9.854584 -5.642243
  N     5.111360  8.982182 -1.795114
  S     7.523622  5.454534 -6.123271
  S     4.466980  6.158114 -3.456389
  S     6.734309  5.288699 -2.074334
  S     7.159131  9.662797 -6.083241
  S     4.201712  9.405882 -3.133141
  S     6.745067  8.901434 -1.978060
