16  
    
  C     5.829150  5.749940 -4.505146
  C     7.014218  5.416308 -3.735598
  C     5.564130  9.621040 -4.297778
  C     6.841331  9.297700 -3.731778
  N     8.114051  5.307670 -4.496260
  N     6.037176  5.871663 -5.803474
  N     5.199506  5.891983 -1.999582
  N     7.875834  9.254444 -4.556907
  N     5.650010  9.808548 -5.638685
  N     5.099689  9.134188 -1.812134
  S     7.631071  5.481466 -6.085231
  S     4.501668  6.226831 -3.487489
  S     6.775614  5.318537 -2.014580
  S     7.164142  9.528433 -6.060769
  S     4.213370  9.517311 -3.180606
  S     6.723490  8.846689 -2.118337
