16  
    
  C     5.591655  6.133128 -4.374853
  C     6.752797  5.546986 -3.772959
  C     5.535491  9.624268 -4.272963
  C     6.786079  9.099211 -3.684401
  N     7.684592  5.281209 -4.683584
  N     5.714354  6.464346 -5.662298
  N     5.046127  5.722499 -1.881325
  N     7.772568  8.941123 -4.572094
  N     5.627542  9.853607 -5.560667
  N     5.114635  9.338411 -1.746349
  S     7.209001  5.845376 -6.159473
  S     4.281627  6.334806 -3.221985
  S     6.666365  5.234896 -2.066594
  S     7.148686  9.425361 -6.073055
  S     4.254539  9.650172 -3.126250
  S     6.729629  8.924554 -1.899673
