16  
    
  C     5.859970  5.442290 -4.137060
  C     7.048633  5.006255 -3.423542
  C     5.653085  9.662901 -4.327782
  C     6.855545  9.136497 -3.746611
  N     8.188790  5.001318 -4.141037
  N     6.128043  5.672747 -5.410482
  N     5.009870  5.190938 -1.734524
  N     7.903563  9.072257 -4.550638
  N     5.790691  9.980567 -5.630162
  N     5.061439  8.911098 -1.899454
  S     7.672220  5.305275 -5.747380
  S     4.487363  5.853051 -3.180547
  S     6.625609  4.632714 -1.727239
  S     7.380079  9.684042 -5.987553
  S     4.336830  9.716292 -3.154477
  S     6.621665  8.514845 -2.149126
