16  
    
  C     5.389436  5.955332 -4.498661
  C     6.599330  5.566995 -3.852849
  C     5.330880  9.832301 -4.683373
  C     6.559520  9.581652 -4.007106
  N     7.665246  5.601877 -4.599944
  N     5.489709  6.154647 -5.802029
  N     4.934171  5.693566 -1.931896
  N     7.611603  9.647742 -4.788955
  N     5.387120 10.096661 -5.963338
  N     4.714187  9.552514 -2.235143
  S     7.074106  5.935408 -6.188244
  S     4.107757  5.968488 -3.315334
  S     6.509530  5.155137 -2.224941
  S     7.053378  9.928231 -6.336005
  S     3.933131 10.036466 -3.593767
  S     6.332675  9.303430 -2.364443
