16  
    
  C     5.751400  5.764290 -4.385052
  C     6.967742  5.343562 -3.775478
  C     5.696092  9.536292 -4.309036
  C     6.930978  8.975428 -3.828511
  N     8.010739  5.116125 -4.595336
  N     5.797211  5.947221 -5.718415
  N     5.236122  5.424738 -1.854222
  N     7.972511  8.935336 -4.633001
  N     5.817764 10.002459 -5.549800
  N     5.298423  8.796322 -1.880191
  S     7.380742  5.587381 -6.061077
  S     4.373065  5.888092 -3.230565
  S     6.796420  5.015265 -2.061076
  S     7.382866  9.729980 -6.025204
  S     4.393797  9.425540 -3.149097
  S     6.948980  8.732985 -2.112286
