16  
    
  C     5.558782  5.894064 -4.479186
  C     6.724802  5.333522 -3.787432
  C     5.563250  9.765117 -4.218961
  C     6.814947  9.251070 -3.644776
  N     7.804687  5.225022 -4.579034
  N     5.754854  6.022854 -5.784916
  N     4.886661  5.620404 -2.065151
  N     7.740482  9.030670 -4.580075
  N     5.565457  9.956168 -5.551544
  N     5.071732  9.220224 -1.710713
  S     7.300284  5.609944 -6.174629
  S     4.218225  6.198277 -3.433513
  S     6.487160  5.095255 -2.115508
  S     7.155112  9.622533 -6.036030
  S     4.222210  9.879611 -3.026964
  S     6.661382  8.747855 -2.016166
