16  
    
  C     5.475490  5.826638 -4.573957
  C     6.759169  5.542944 -3.857233
  C     5.152692  9.478426 -4.413839
  C     6.385276  9.157285 -3.707963
  N     7.861854  5.483073 -4.612658
  N     5.651361  5.826352 -5.893580
  N     4.848484  5.625545 -2.033824
  N     7.403173  8.778428 -4.469639
  N     5.255842  9.393589 -5.747646
  N     4.641924  9.949388 -2.036810
  S     7.287337  5.712307 -6.157052
  S     4.105987  5.967780 -3.482576
  S     6.547843  5.371521 -2.165325
  S     6.853487  8.977186 -6.046601
  S     3.881190 10.179632 -3.510984
  S     6.132626  9.289592 -2.020941
