16  
    
  C     5.607034  5.548171 -4.412733
  C     6.852618  5.345602 -3.725454
  C     5.672696  9.564431 -4.178509
  C     6.812946  8.969020 -3.552895
  N     7.936410  5.105708 -4.456215
  N     5.777542  5.473499 -5.709497
  N     5.029872  5.716396 -1.901348
  N     7.829336  8.771853 -4.413582
  N     5.862609  9.877679 -5.472113
  N     5.061917  9.204200 -1.660418
  S     7.329540  5.034793 -5.993723
  S     4.197725  5.799408 -3.337164
  S     6.656124  5.272285 -1.970517
  S     7.336764  9.377947 -5.895763
  S     4.276536  9.547567 -3.075339
  S     6.666831  8.659197 -1.838572
