16  
    
  C     5.331376  6.167619 -4.345094
  C     6.482329  5.519386 -3.767216
  C     5.512857  9.800646 -4.411722
  C     6.759958  9.408385 -3.769744
  N     7.466253  5.332034 -4.620952
  N     5.431276  6.329267 -5.658344
  N     4.793934  5.883403 -1.971455
  N     7.676647  9.227374 -4.706822
  N     5.463668  9.942610 -5.723686
  N     4.933041  9.421112 -1.891018
  S     6.956748  5.711153 -6.114699
  S     4.037114  6.418110 -3.331100
  S     6.345248  5.281300 -2.060997
  S     7.040244  9.596793 -6.201330
  S     4.156743  9.995180 -3.283864
  S     6.551122  9.006206 -2.019685
