16  
    
  C     5.293789  6.024049 -4.500185
  C     6.456941  5.491795 -3.709804
  C     5.355412  9.619519 -4.195829
  C     6.586565  9.242178 -3.504583
  N     7.556356  5.277096 -4.449823
  N     5.463958  6.014247 -5.843527
  N     4.582578  6.063624 -1.978213
  N     7.666945  9.147910 -4.256515
  N     5.522312  9.816952 -5.466958
  N     4.700398  9.363233 -1.713638
  S     7.014074  5.576042 -6.039106
  S     3.958575  6.521380 -3.441268
  S     6.165328  5.530219 -2.039011
  S     7.135526  9.540692 -5.838635
  S     3.995439  9.782185 -3.174531
  S     6.346222  8.815867 -1.801313
