16  
    
  C     5.509259  6.076933 -4.361120
  C     6.662711  5.494299 -3.672515
  C     5.724657  9.546353 -4.181652
  C     6.935059  8.958071 -3.595531
  N     7.748167  5.224492 -4.394021
  N     5.739296  6.221562 -5.656999
  N     4.700441  5.623866 -1.919849
  N     7.925431  8.795833 -4.491915
  N     5.822549  9.800433 -5.487880
  N     5.170338  9.582444 -1.691436
  S     7.283202  5.752101 -5.910054
  S     4.142385  6.367029 -3.319464
  S     6.285200  5.149212 -1.997629
  S     7.317001  9.298047 -5.959075
  S     4.372435  9.917475 -3.131987
  S     6.728857  8.829050 -1.891383
