16  
    
  C     5.562472  5.940888 -4.269602
  C     6.775896  5.436955 -3.622254
  C     5.731168  9.534187 -4.503136
  C     6.966626  9.204379 -3.707391
  N     7.751954  5.244220 -4.505458
  N     5.690235  6.160170 -5.595186
  N     5.079687  5.981841 -1.793532
  N     8.026777  8.996815 -4.498649
  N     5.858987  9.564430 -5.795450
  N     5.048603  9.222913 -2.007100
  S     7.233356  5.717287 -5.961035
  S     4.203730  6.167386 -3.256819
  S     6.633655  5.414576 -1.882875
  S     7.502905  9.299874 -6.075486
  S     4.266160  9.579153 -3.497166
  S     6.678374  8.933409 -2.050354
