16  
    
  C     5.715440  5.552509 -4.292259
  C     6.943346  5.233380 -3.582490
  C     5.163906  9.824163 -4.663341
  C     6.296939  9.274280 -3.952135
  N     7.982254  5.138238 -4.401676
  N     5.811758  5.544784 -5.642083
  N     5.113893  5.678479 -1.737431
  N     7.342072  8.986903 -4.702804
  N     5.394917 10.026182 -5.953811
  N     4.510821  9.817404 -2.158562
  S     7.457797  5.249307 -5.895645
  S     4.344733  5.722609 -3.204015
  S     6.756622  5.282149 -1.837333
  S     6.874333  9.343232 -6.250114
  S     3.774557 10.250493 -3.555830
  S     6.023397  9.146453 -2.279042
