16  
    
  C     5.729280  5.821927 -4.358351
  C     6.867085  5.200185 -3.783469
  C     5.561217  9.414849 -4.329018
  C     6.680335  8.780426 -3.666070
  N     7.871555  4.948949 -4.613724
  N     5.824914  6.086295 -5.656630
  N     5.175090  5.648297 -1.834002
  N     7.739973  8.459960 -4.428288
  N     5.821206  9.708021 -5.610394
  N     4.898249  9.260273 -1.882045
  S     7.296358  5.405051 -6.112876
  S     4.371671  6.103392 -3.219430
  S     6.725309  5.094191 -2.035471
  S     7.280517  9.092691 -5.985464
  S     4.270707  9.850024 -3.307689
  S     6.446542  8.681303 -1.912087
