16  
    
  C     5.545599  6.084176 -4.441046
  C     6.784121  5.551402 -3.927663
  C     5.501463  9.813141 -4.479911
  C     6.664813  9.282000 -3.805629
  N     7.741609  5.353100 -4.843042
  N     5.496376  6.123382 -5.786403
  N     5.157037  5.871839 -1.935597
  N     7.658225  9.168764 -4.650935
  N     5.625013 10.184026 -5.712489
  N     4.733693  9.523111 -2.067366
  S     7.062663  5.720627 -6.313134
  S     4.296490  6.354400 -3.277060
  S     6.682469  5.327995 -2.167487
  S     7.147516  9.665861 -6.153763
  S     4.085058 10.079453 -3.438130
  S     6.338230  9.061480 -2.149337
