16  
    
  C     5.517063  5.865481 -4.352561
  C     6.613847  5.191414 -3.673065
  C     5.687185  9.159439 -4.214330
  C     6.931503  8.773351 -3.617304
  N     7.646024  4.869245 -4.456264
  N     5.797536  6.108299 -5.612193
  N     4.757954  5.652789 -1.957664
  N     8.011007  8.747864 -4.395610
  N     5.843713  9.486082 -5.491535
  N     5.196856  8.979689 -1.722709
  S     7.302329  5.451208 -5.955966
  S     4.059596  6.009145 -3.404968
  S     6.317007  4.990269 -2.024788
  S     7.399207  9.208304 -5.917407
  S     4.358639  9.284787 -3.170013
  S     6.858087  8.739027 -1.910970
