16  
    
  C     5.615614  5.885348 -4.408698
  C     6.793421  5.315021 -3.734860
  C     5.685589  9.559170 -4.257443
  C     6.853880  9.034010 -3.577422
  N     7.757918  5.009004 -4.571688
  N     5.697517  5.884047 -5.745597
  N     5.027738  5.589905 -1.927982
  N     7.868809  8.671149 -4.338084
  N     5.844330  9.659020 -5.547140
  N     5.045762  9.394844 -1.751673
  S     7.272993  5.410981 -6.087997
  S     4.349617  6.199183 -3.318151
  S     6.551307  4.982888 -2.074527
  S     7.328156  9.033075 -5.936097
  S     4.318150  9.849933 -3.203598
  S     6.538087  8.670382 -1.927819
