16  
    
  C     5.310592  6.123709 -4.631028
  C     6.631535  5.789317 -4.085590
  C     5.659080  9.422650 -4.107354
  C     6.880087  8.910452 -3.567622
  N     7.625016  5.738337 -4.948864
  N     5.355731  6.461539 -5.890720
  N     4.988219  5.734431 -2.071029
  N     7.951387  8.881576 -4.390506
  N     5.822346  9.804345 -5.377034
  N     5.166219  8.870774 -1.627390
  S     6.953606  6.227047 -6.432541
  S     4.069246  6.130368 -3.390849
  S     6.623065  5.533706 -2.331528
  S     7.366625  9.412525 -5.854618
  S     4.374664  9.396128 -2.926018
  S     6.844360  8.678692 -1.810414
