16  
    
  C     5.246848  6.278957 -4.362458
  C     6.491381  5.728373 -3.801290
  C     5.698418  9.541723 -4.252002
  C     6.942395  9.097235 -3.633289
  N     7.473416  5.490803 -4.692153
  N     5.379497  6.533132 -5.657420
  N     4.745357  6.082046 -1.855516
  N     7.930044  8.952022 -4.495853
  N     5.809029  9.677104 -5.552316
  N     5.184700  9.444015 -1.793224
  S     6.908568  6.023047 -6.150688
  S     3.918657  6.541454 -3.210118
  S     6.332820  5.575279 -2.011846
  S     7.344692  9.310824 -6.029170
  S     4.358081  9.751060 -3.120786
  S     6.759074  8.940342 -1.938020
