16  
    
  C     5.374683  6.158521 -4.405131
  C     6.487880  5.559166 -3.752755
  C     5.557395  9.525365 -4.197121
  C     6.816005  9.071216 -3.563245
  N     7.586064  5.402047 -4.535100
  N     5.567900  6.332990 -5.708384
  N     4.666915  5.872692 -1.981822
  N     7.889848  8.959906 -4.362113
  N     5.759732  9.855479 -5.453729
  N     4.917797  9.419440 -1.758688
  S     7.097916  5.855806 -6.067798
  S     4.015690  6.455521 -3.447971
  S     6.280136  5.472066 -2.024097
  S     7.253316  9.423977 -5.848448
  S     4.151681  9.680243 -3.203084
  S     6.484574  8.918622 -1.798589
