16  
    
  C     5.620981  5.541757 -4.040802
  C     6.881354  5.225132 -3.404759
  C     5.832847  9.329294 -3.880091
  C     7.123745  9.077776 -3.286727
  N     7.865691  4.863508 -4.237989
  N     5.688641  5.555960 -5.362803
  N     5.152844  5.434439 -1.521688
  N     8.147068  8.878402 -4.150616
  N     5.879375  9.376657 -5.194999
  N     5.328573  9.121593 -1.389308
  S     7.236351  5.201087 -5.779948
  S     4.220387  5.678683 -2.881108
  S     6.793289  5.029332 -1.702141
  S     7.461552  8.960534 -5.654906
  S     4.500902  9.568253 -2.753870
  S     6.900592  8.874990 -1.567263
