16  
    
  C     5.640558  5.862136 -4.183032
  C     6.707832  5.167561 -3.569681
  C     5.732924  9.561828 -4.480888
  C     6.933094  9.067973 -3.850746
  N     7.737738  4.965035 -4.403835
  N     5.860007  6.231126 -5.462596
  N     5.015791  5.489089 -1.663370
  N     7.853046  8.754854 -4.766170
  N     5.760877  9.672068 -5.785730
  N     5.173858  9.262033 -2.001572
  S     7.292227  5.505059 -5.859670
  S     4.361851  6.238431 -3.023138
  S     6.581082  4.828934 -1.865087
  S     7.281708  9.088934 -6.245910
  S     4.479612  9.842431 -3.381971
  S     6.800038  8.835900 -2.077450
