16  
    
  C     5.330231  5.999909 -4.477347
  C     6.514553  5.614396 -3.726488
  C     5.296733  9.690929 -4.252734
  C     6.536455  9.297792 -3.583337
  N     7.532589  5.365784 -4.531558
  N     5.495604  6.136127 -5.808483
  N     4.638319  5.938002 -2.000937
  N     7.611171  9.206000 -4.300857
  N     5.529158  9.827180 -5.524921
  N     4.755534  9.299566 -1.700629
  S     7.117257  5.715436 -6.091998
  S     3.922077  6.240541 -3.445707
  S     6.243021  5.471142 -2.017492
  S     7.104683  9.453140 -5.853955
  S     3.998441  9.767866 -3.110981
  S     6.364610  8.985576 -1.876895
