16  
    
  C     5.608295  5.713737 -4.407407
  C     6.948084  5.407294 -3.774019
  C     5.723673  9.719088 -4.251402
  C     7.029823  9.274108 -3.765718
  N     7.938946  5.326125 -4.686441
  N     5.617077  5.875936 -5.748676
  N     5.300067  5.616782 -1.833688
  N     8.017597  9.277881 -4.648220
  N     5.715300  9.940214 -5.572285
  N     5.271680  8.980998 -1.792420
  S     7.194608  5.584005 -6.157670
  S     4.381249  5.946841 -3.184331
  S     6.847268  5.156891 -2.022116
  S     7.218782  9.556282 -6.163285
  S     4.428467  9.525815 -3.153547
  S     6.913351  8.722649 -2.041595
