16  
    
  C     5.671086  5.383276 -4.393712
  C     6.844648  5.037911 -3.736090
  C     5.468731  9.391952 -4.448015
  C     6.667423  8.958555 -3.791976
  N     7.957937  4.972851 -4.464493
  N     5.835066  5.536811 -5.717289
  N     5.060867  5.512205 -1.888452
  N     7.724294  8.788755 -4.585341
  N     5.599035  9.329533 -5.782794
  N     4.798992  9.164164 -1.947542
  S     7.408228  5.178010 -5.970464
  S     4.305365  5.532622 -3.322236
  S     6.692147  5.105270 -2.059936
  S     7.148233  9.064731 -6.147626
  S     4.150963  9.845267 -3.324444
  S     6.442479  8.850492 -2.037145
