16  
    
  C     5.378998  5.676865 -4.541995
  C     6.541763  5.249964 -3.820420
  C     5.308628  9.452992 -4.358917
  C     6.464880  8.875132 -3.712954
  N     7.642700  5.016462 -4.536333
  N     5.632550  5.914979 -5.819347
  N     4.633227  5.723350 -2.040576
  N     7.468443  8.606874 -4.583718
  N     5.435526  9.610230 -5.696178
  N     4.762944  9.491415 -1.871980
  S     7.163020  5.456780 -6.073482
  S     4.004368  6.188869 -3.554801
  S     6.240018  5.303106 -2.092496
  S     6.998086  9.127772 -6.094917
  S     3.940542  9.694694 -3.292454
  S     6.312751  8.898031 -1.914198
