16  
    
  C     5.621264  6.412628 -4.522729
  C     6.800394  5.835120 -3.903771
  C     5.490297  9.958836 -4.685795
  C     6.697606  9.551568 -4.038908
  N     7.797562  5.583555 -4.775425
  N     5.750076  6.693142 -5.823353
  N     5.028140  6.097279 -2.019329
  N     7.650503  9.322919 -4.894544
  N     5.532067 10.052681 -6.006643
  N     4.917176  9.931594 -2.176764
  S     7.290958  6.171427 -6.219846
  S     4.271465  6.689282 -3.402823
  S     6.627698  5.631898 -2.177469
  S     7.107421  9.739932 -6.395909
  S     4.174636 10.229286 -3.542230
  S     6.558730  9.525741 -2.263222
