16  
    
  C     5.507543  5.338744 -4.195471
  C     6.782595  5.061939 -3.563341
  C     5.674519  9.258968 -4.143654
  C     6.852610  8.677087 -3.550155
  N     7.793011  4.976862 -4.430433
  N     5.546809  5.329889 -5.512828
  N     5.005260  5.284991 -1.704279
  N     7.928284  8.528614 -4.347150
  N     5.811333  9.492139 -5.430876
  N     5.253266  9.264742 -1.549356
  S     7.206462  5.268395 -5.951069
  S     4.109580  5.473225 -3.137573
  S     6.633059  4.970449 -1.858250
  S     7.400311  9.000533 -5.870950
  S     4.376216  9.495414 -2.956470
  S     6.755260  8.581859 -1.843696
