16  
    
  C     5.451280  5.605628 -4.368100
  C     6.662681  5.119100 -3.795729
  C     5.718151  9.090348 -4.366725
  C     6.945135  8.789828 -3.647850
  N     7.660698  5.041091 -4.677713
  N     5.493606  5.876155 -5.646425
  N     5.102788  5.691766 -1.840931
  N     8.018850  8.580468 -4.451235
  N     5.895619  9.087215 -5.681841
  N     5.121549  9.252430 -1.820452
  S     7.007604  5.461675 -6.151002
  S     4.273467  6.168765 -3.228814
  S     6.629525  5.013049 -2.053707
  S     7.525727  8.847075 -5.977163
  S     4.368472  9.500317 -3.302123
  S     6.712466  8.759384 -1.927045
