16  
    
  C     5.661851  5.473023 -4.418368
  C     6.866256  5.177100 -3.629184
  C     5.542793  9.583953 -4.333640
  C     6.711915  9.055869 -3.684161
  N     7.864847  4.869842 -4.472410
  N     5.775295  5.373914 -5.767135
  N     4.945138  5.605415 -1.893419
  N     7.772295  8.863041 -4.454703
  N     5.729907  9.695747 -5.635443
  N     4.881583  9.075357 -1.868112
  S     7.364805  5.094860 -6.032232
  S     4.266441  5.654637 -3.398523
  S     6.638975  5.253925 -1.888225
  S     7.199740  9.165403 -5.979642
  S     4.204685  9.658094 -3.270557
  S     6.545107  8.804176 -1.972955
