16  
    
  C     5.356655  5.684065 -4.503832
  C     6.498685  5.241495 -3.795798
  C     5.337096  9.442897 -4.390024
  C     6.510373  8.941457 -3.674893
  N     7.584553  5.034140 -4.539775
  N     5.616813  5.840779 -5.796604
  N     4.647706  5.745660 -2.036759
  N     7.445114  8.710894 -4.568795
  N     5.343398  9.604292 -5.700778
  N     4.755939  9.474829 -1.862456
  S     7.206348  5.504129 -6.090758
  S     4.035768  6.175292 -3.554405
  S     6.249941  5.294290 -2.056709
  S     6.949777  9.104920 -6.090939
  S     3.969476  9.686568 -3.327053
  S     6.351003  8.879733 -1.909742
