16  
    
  C     5.549802  5.768182 -4.460881
  C     6.839711  5.425643 -3.826227
  C     5.185393  9.796244 -4.384356
  C     6.334278  9.236538 -3.681249
  N     7.810352  5.198252 -4.682607
  N     5.684906  5.948123 -5.765691
  N     5.157745  5.742025 -1.982184
  N     7.248217  8.766822 -4.517404
  N     5.247024  9.736454 -5.718516
  N     4.608095  9.717885 -1.883948
  S     7.255172  5.550309 -6.227114
  S     4.278760  5.820343 -3.330747
  S     6.760666  5.331838 -2.128148
  S     6.770426  9.023943 -6.035984
  S     3.787028 10.044146 -3.347964
  S     6.173135  9.151046 -1.984178
