16  
    
  C     5.496887  5.241820 -4.070509
  C     6.911365  5.242733 -3.591571
  C     5.506327  9.369802 -4.653755
  C     6.656811  8.858221 -3.914404
  N     7.824190  5.360491 -4.555964
  N     5.400601  5.286866 -5.421344
  N     5.365328  5.130201 -1.535670
  N     7.749111  8.605821 -4.642531
  N     5.670945  9.333588 -5.957690
  N     4.699237  9.156452 -2.240676
  S     6.976528  5.319439 -5.954936
  S     4.335755  5.304348 -2.776977
  S     6.996999  5.054844 -1.903998
  S     7.228405  8.940614 -6.271014
  S     4.267285  9.937412 -3.627838
  S     6.385264  8.718218 -2.160155
