16  
    
  C     5.570459  6.284838 -4.656317
  C     6.576497  5.552337 -3.939487
  C     5.670180  9.547017 -4.496072
  C     6.871057  9.106546 -3.804458
  N     7.708914  5.340923 -4.614022
  N     5.933787  6.674623 -5.865955
  N     4.558947  5.730328 -2.303889
  N     7.949418  9.049957 -4.549256
  N     5.827077  9.772101 -5.814114
  N     5.047525  9.186816 -1.985338
  S     7.379554  5.958800 -6.121766
  S     4.193680  6.538171 -3.724104
  S     6.106056  5.198904 -2.272978
  S     7.495183  9.525970 -6.082556
  S     4.333694  9.788407 -3.375541
  S     6.633137  8.776527 -2.119242
