16  
    
  C     5.232479  6.240434 -4.316735
  C     6.379075  5.771462 -3.608985
  C     5.637090  9.578772 -4.044320
  C     6.842351  9.020990 -3.518243
  N     7.452467  5.467092 -4.331017
  N     5.316101  6.140730 -5.647399
  N     4.469915  5.889684 -1.843628
  N     7.793838  8.648490 -4.388842
  N     5.728164  9.724050 -5.359910
  N     5.179785  9.497329 -1.515000
  S     6.899365  5.751385 -5.925371
  S     3.754403  6.495102 -3.263607
  S     6.097043  5.601748 -1.871313
  S     7.130637  9.038826 -5.899155
  S     4.413449  9.913223 -2.870083
  S     6.697626  8.907899 -1.755746
