16  
    
  C     5.394678  6.061604 -4.330743
  C     6.543757  5.396929 -3.641465
  C     5.716510  9.695379 -4.171084
  C     6.832992  9.029436 -3.517007
  N     7.597923  5.145446 -4.431679
  N     5.624084  6.226395 -5.628638
  N     4.644980  5.737735 -1.887902
  N     7.847487  8.655615 -4.300820
  N     5.975297  9.911666 -5.465782
  N     4.994341  9.440457 -1.667215
  S     7.145848  5.647825 -5.955464
  S     4.013107  6.197507 -3.331837
  S     6.237734  5.310711 -1.957175
  S     7.439356  9.260248 -5.867641
  S     4.331258 10.021842 -3.145371
  S     6.536258  8.820386 -1.842898
