16  
    
  C     5.271375  6.237278 -4.324021
  C     6.401342  5.706003 -3.648224
  C     5.479885  9.731203 -4.193028
  C     6.595837  9.116761 -3.595924
  N     7.409960  5.294812 -4.414914
  N     5.455778  6.446283 -5.645256
  N     4.499146  5.869828 -1.799120
  N     7.678637  8.868052 -4.361274
  N     5.704407  9.928552 -5.487020
  N     5.040679  9.820500 -1.657382
  S     7.018237  5.762300 -5.949452
  S     3.930758  6.565574 -3.217675
  S     6.147070  5.534377 -1.908740
  S     7.198129  9.296150 -5.902894
  S     4.154840 10.014867 -3.103120
  S     6.489252  8.934919 -1.856910
