16  
    
  C     5.211558  6.274285 -4.299271
  C     6.382015  5.763160 -3.574652
  C     5.669379  9.590709 -4.058113
  C     6.851188  9.008912 -3.484924
  N     7.409095  5.441356 -4.383995
  N     5.379053  6.217845 -5.617982
  N     4.458479  5.973698 -1.869967
  N     7.786880  8.615078 -4.370488
  N     5.756996  9.771652 -5.377980
  N     5.216682  9.477200 -1.560309
  S     6.920084  5.777231 -5.913581
  S     3.803902  6.492832 -3.280477
  S     6.087298  5.608506 -1.903991
  S     7.132442  9.077689 -5.896509
  S     4.408795  9.886694 -2.913818
  S     6.717710  8.948704 -1.791172
