16  
    
  C     5.701510  5.874734 -4.449173
  C     6.936296  5.473658 -3.865453
  C     5.535505  9.458007 -4.271437
  C     6.814886  9.239007 -3.662419
  N     7.879808  5.188632 -4.714660
  N     5.747959  5.959314 -5.769600
  N     5.090064  5.465730 -2.005735
  N     7.852006  9.219558 -4.540665
  N     5.586899  9.696559 -5.603350
  N     5.158263  9.086906 -1.699798
  S     7.307400  5.567453 -6.240581
  S     4.343846  6.028111 -3.352396
  S     6.738259  5.279667 -2.173358
  S     7.267296  9.577412 -6.012357
  S     4.245245  9.332147 -3.116717
  S     6.766337  8.743214 -1.979757
