16  
    
  C     5.389865  6.009603 -4.281410
  C     6.617667  5.473005 -3.657052
  C     5.545112  9.636307 -4.253690
  C     6.658238  9.078642 -3.599126
  N     7.593562  5.210810 -4.513227
  N     5.513342  6.298018 -5.583735
  N     4.873113  5.607077 -1.738304
  N     7.720087  8.879325 -4.413530
  N     5.665259  9.877163 -5.580770
  N     4.866690  9.356540 -1.858035
  S     6.967350  5.705678 -5.977171
  S     4.143334  6.264281 -3.046525
  S     6.483045  5.198175 -1.969951
  S     7.230756  9.466425 -5.915701
  S     4.143450  9.680933 -3.306459
  S     6.369705  8.772611 -1.888373
