16  
    
  C     5.307517  6.053516 -4.477864
  C     6.531582  5.551807 -3.777993
  C     5.384242  9.664295 -4.202104
  C     6.622804  9.324871 -3.566967
  N     7.657634  5.438849 -4.496524
  N     5.561472  6.212480 -5.784130
  N     4.677268  5.810964 -1.976375
  N     7.640585  9.099230 -4.373621
  N     5.457531  9.799517 -5.525081
  N     4.741276  9.333035 -1.738379
  S     7.106101  5.795436 -6.064856
  S     3.905769  6.121264 -3.447119
  S     6.304620  5.436899 -2.037494
  S     7.059980  9.465630 -5.922633
  S     3.929180  9.762464 -3.148000
  S     6.446512  9.053231 -1.876994
