16  
    
  C     5.696490  5.878977 -4.457040
  C     6.901124  5.472225 -3.852397
  C     5.526100  9.456483 -4.300046
  C     6.798346  9.186964 -3.682679
  N     7.859364  5.150489 -4.709366
  N     5.779708  5.945709 -5.770540
  N     5.120535  5.493992 -2.006069
  N     7.795792  9.235186 -4.536526
  N     5.593787  9.726059 -5.623740
  N     5.133033  9.057789 -1.719806
  S     7.341581  5.537063 -6.251433
  S     4.362084  6.026759 -3.374541
  S     6.736586  5.296841 -2.159132
  S     7.229409  9.598379 -6.007738
  S     4.243462  9.334536 -3.120163
  S     6.783430  8.769483 -1.952679
