16  
    
  C     5.645766  5.365017 -4.063593
  C     6.848754  4.990524 -3.482324
  C     5.494113  9.465622 -4.686389
  C     6.653749  8.928137 -4.023909
  N     7.841118  4.853933 -4.337330
  N     5.722970  5.618921 -5.364820
  N     5.113198  5.025113 -1.620767
  N     7.564683  8.480404 -4.866969
  N     5.621120  9.584527 -6.005124
  N     4.897033  9.391924 -2.199683
  S     7.260386  5.227994 -5.875667
  S     4.284159  5.267903 -3.026113
  S     6.800321  4.879278 -1.780594
  S     7.146226  8.924604 -6.378085
  S     4.140281  9.656413 -3.662982
  S     6.472840  8.893850 -2.238534
