16  
    
  C     5.407263  6.066225 -4.393012
  C     6.562889  5.595440 -3.703412
  C     5.686420  9.656706 -4.430288
  C     6.809370  9.102222 -3.711311
  N     7.665566  5.493750 -4.475451
  N     5.535641  6.099715 -5.724898
  N     4.832672  5.946134 -1.833467
  N     7.830697  8.858240 -4.507364
  N     5.895380  9.916467 -5.736963
  N     5.026391  9.448210 -1.952315
  S     7.104255  5.773033 -6.113773
  S     4.101505  6.384082 -3.266363
  S     6.379148  5.367446 -2.062806
  S     7.404858  9.291201 -6.009441
  S     4.339900  9.959754 -3.288485
  S     6.605146  8.864260 -2.045894
