16  
    
  C     5.449746  5.889823 -4.398690
  C     6.698381  5.513161 -3.846971
  C     5.424025  9.682926 -4.588208
  C     6.575401  9.179601 -3.874985
  N     7.639903  5.148884 -4.714269
  N     5.455715  5.996868 -5.721280
  N     5.023156  5.701721 -1.827734
  N     7.552070  8.833980 -4.681182
  N     5.540447  9.782119 -5.914732
  N     4.817679  9.413507 -2.115514
  S     6.980252  5.478663 -6.212719
  S     4.173863  6.004294 -3.263198
  S     6.612341  5.294237 -2.106537
  S     7.047203  9.198909 -6.250044
  S     4.009751  9.792805 -3.550044
  S     6.510373  9.224495 -2.177757
