16  
    
  C     5.366053  5.883541 -4.465525
  C     6.536419  5.336352 -3.819285
  C     5.363055  9.565910 -4.406374
  C     6.547613  9.045420 -3.756527
  N     7.551118  5.186695 -4.645037
  N     5.494342  6.002544 -5.761301
  N     4.751776  5.705209 -2.061810
  N     7.553976  8.614158 -4.556714
  N     5.501301  9.595362 -5.731156
  N     4.675384  9.526163 -1.940715
  S     7.000386  5.451058 -6.191314
  S     3.987402  6.168529 -3.449405
  S     6.284012  5.219807 -2.158657
  S     7.048413  8.999646 -6.112481
  S     4.058086 10.003909 -3.414269
  S     6.232639  8.865096 -1.966234
