16  
    
  C     5.522139  6.197430 -4.434216
  C     6.743579  5.649618 -3.848189
  C     5.358761  9.974313 -4.678521
  C     6.622525  9.718031 -3.977195
  N     7.743575  5.552864 -4.675402
  N     5.620236  6.375912 -5.758355
  N     4.923933  5.780125 -1.976193
  N     7.645367  9.552520 -4.865052
  N     5.410425 10.056616 -6.019390
  N     4.774598  9.537699 -2.199010
  S     7.140307  6.043047 -6.245119
  S     4.164260  6.216828 -3.389622
  S     6.559996  5.312567 -2.146221
  S     7.051673  9.841031 -6.409988
  S     4.018114  9.994785 -3.650774
  S     6.429156  9.448537 -2.298244
