16  
    
  C     5.574981  5.889323 -4.452565
  C     6.839868  5.512363 -3.878420
  C     5.722754  9.380429 -4.278073
  C     6.964549  9.079592 -3.604750
  N     7.878461  5.449402 -4.700457
  N     5.614634  6.084020 -5.769688
  N     5.117083  5.511973 -1.882428
  N     7.972599  9.079217 -4.493739
  N     5.727696  9.682268 -5.584373
  N     5.258371  9.186467 -1.737113
  S     7.215238  5.882557 -6.172704
  S     4.344984  6.115375 -3.223521
  S     6.731528  5.135643 -2.137429
  S     7.359172  9.403059 -6.018266
  S     4.406725  9.434688 -3.192207
  S     6.851445  8.649232 -1.897946
