16  
    
  C     5.419800  6.070255 -4.356958
  C     6.609567  5.513349 -3.780506
  C     5.719678  9.780765 -4.508997
  C     6.882138  9.202477 -3.930833
  N     7.654445  5.313563 -4.623451
  N     5.482125  6.158841 -5.674437
  N     4.936213  5.779177 -1.852932
  N     7.801992  8.837566 -4.800292
  N     5.760477  9.880871 -5.827775
  N     5.156094  9.635052 -2.041585
  S     6.978749  5.752337 -6.181281
  S     4.176752  6.246353 -3.251792
  S     6.569349  5.344576 -2.088024
  S     7.261176  9.333537 -6.287963
  S     4.511478 10.165981 -3.420787
  S     6.617032  8.847808 -2.133678
