16  
    
  C     5.555950  5.792959 -4.368357
  C     6.789958  5.285029 -3.828860
  C     5.280886  9.941871 -4.655313
  C     6.403325  9.320196 -4.042033
  N     7.808082  5.111657 -4.631180
  N     5.626225  5.937160 -5.673584
  N     5.193393  5.529130 -1.843160
  N     7.383983  8.856489 -4.836842
  N     5.395327  9.934478 -5.985453
  N     4.864113  9.756948 -2.055142
  S     7.147907  5.559135 -6.192748
  S     4.372007  6.056620 -3.176157
  S     6.732074  4.965650 -2.155376
  S     6.926221  9.313666 -6.356110
  S     4.126322 10.373324 -3.507316
  S     6.341251  9.094835 -2.307704
