16  
    
  C     5.391986  6.082433 -4.387951
  C     6.628287  5.750651 -3.793839
  C     5.480477  9.750579 -4.373287
  C     6.675576  9.370904 -3.651075
  N     7.682014  5.717947 -4.601833
  N     5.410528  6.169825 -5.702847
  N     4.890509  5.936843 -1.897429
  N     7.676181  9.123270 -4.492634
  N     5.546925  9.832079 -5.699663
  N     4.907905  9.399926 -1.847621
  S     7.036030  5.843123 -6.143446
  S     4.051727  6.220849 -3.298744
  S     6.555106  5.609654 -2.008950
  S     7.156371  9.422976 -5.983835
  S     4.155424  9.935198 -3.236344
  S     6.471586  8.973242 -1.988466
