16  
    
  C     5.331405  6.166944 -4.362867
  C     6.436700  5.532284 -3.752481
  C     5.498717  9.818076 -4.409624
  C     6.739309  9.427963 -3.772106
  N     7.449361  5.355995 -4.580830
  N     5.447521  6.317943 -5.663569
  N     4.789295  5.904670 -1.910763
  N     7.665006  9.197196 -4.663636
  N     5.455531  9.917596 -5.732859
  N     4.987289  9.367320 -1.865023
  S     6.932350  5.731451 -6.106266
  S     3.973592  6.445402 -3.308837
  S     6.320390  5.262291 -2.055286
  S     7.032836  9.574945 -6.181341
  S     4.177496 10.012002 -3.259052
  S     6.559464  9.011902 -2.014463
