16  
    
  C     5.893512  6.059906 -4.471046
  C     7.050666  5.571643 -3.692923
  C     5.654634  9.506899 -4.425637
  C     6.871068  9.004886 -3.783815
  N     8.099449  5.275130 -4.467067
  N     6.095195  6.234212 -5.806695
  N     5.076501  5.588298 -2.026664
  N     7.942821  8.932294 -4.569891
  N     5.772890  9.716168 -5.707095
  N     5.128857  9.255471 -1.873743
  S     7.652033  5.660007 -6.028250
  S     4.439272  6.139245 -3.447286
  S     6.750853  5.425746 -1.912056
  S     7.372681  9.348041 -6.115137
  S     4.404847  9.816608 -3.262003
  S     6.724394  8.889675 -2.024366
