16  
    
  C     5.454692  5.709865 -4.423972
  C     6.756990  5.266073 -3.780120
  C     5.448876  9.687804 -4.623026
  C     6.668617  9.379751 -3.927087
  N     7.751702  5.105824 -4.639344
  N     5.540245  5.894830 -5.740120
  N     5.095892  5.679930 -1.852433
  N     7.734928  9.186297 -4.717389
  N     5.590137  9.679838 -5.951066
  N     4.776744  9.341901 -2.082383
  S     7.128645  5.516461 -6.163017
  S     4.219825  6.076037 -3.255257
  S     6.707065  5.291064 -2.033751
  S     7.129862  9.268947 -6.308078
  S     4.062880  9.681949 -3.540201
  S     6.435758  9.070151 -2.234300
