16  
    
  C     5.290033  6.343821 -4.377431
  C     6.520988  5.792393 -3.704790
  C     5.523185  9.641417 -4.407548
  C     6.721776  9.264078 -3.758692
  N     7.471217  5.422985 -4.558513
  N     5.376160  6.440859 -5.682272
  N     4.646791  6.043082 -1.901421
  N     7.858535  9.184597 -4.509042
  N     5.701762  9.726004 -5.735745
  N     4.908806  9.567534 -1.883987
  S     6.869771  5.854424 -6.088225
  S     4.005640  6.786492 -3.221888
  S     6.260510  5.525255 -1.994744
  S     7.295989  9.420900 -6.062761
  S     4.155178  9.757244 -3.365580
  S     6.452166  8.936691 -2.085852
