16  
    
  C     5.289951  6.213055 -4.318416
  C     6.310585  5.572842 -3.618210
  C     5.503569  9.760395 -4.218717
  C     6.693459  9.096860 -3.612664
  N     7.234109  4.995288 -4.388183
  N     5.537225  6.348442 -5.618017
  N     4.474536  6.157751 -1.946831
  N     7.717419  8.860374 -4.383651
  N     5.739628 10.005591 -5.469187
  N     4.943755  9.449948 -1.735072
  S     6.902179  5.419956 -5.956319
  S     3.914004  6.760430 -3.397951
  S     5.992441  5.536989 -1.905824
  S     7.306007  9.471064 -5.842962
  S     4.093076  9.716806 -3.092554
  S     6.535725  8.835425 -1.873383
