16  
    
  C     5.644323  5.686136 -4.408207
  C     6.895474  5.372315 -3.776316
  C     5.155134  9.674787 -4.451029
  C     6.362210  9.155014 -3.846685
  N     7.862525  5.315116 -4.668797
  N     5.662351  5.738142 -5.730319
  N     5.214585  5.621472 -1.867840
  N     7.393427  8.953874 -4.673540
  N     5.276835  9.775611 -5.772467
  N     4.903826  9.646349 -1.825553
  S     7.246746  5.416477 -6.213699
  S     4.383673  5.894607 -3.291878
  S     6.838243  5.132462 -2.090050
  S     6.862966  9.384662 -6.134848
  S     4.082107 10.136359 -3.179862
  S     6.432213  9.090877 -2.084032
