16  
    
  C     5.634855  6.579896 -4.514167
  C     6.854178  6.134150 -3.906896
  C     5.582854 10.170020 -4.660875
  C     6.669434  9.616629 -3.920214
  N     7.832267  5.908367 -4.801936
  N     5.710106  6.694203 -5.868592
  N     5.057842  6.441629 -2.052599
  N     7.728767  9.262108 -4.685377
  N     5.708573 10.185903 -6.009841
  N     5.044469 10.098838 -2.060887
  S     7.269898  6.199030 -6.271900
  S     4.313516  7.052929 -3.419691
  S     6.554249  5.746029 -2.220831
  S     7.239768  9.584705 -6.255099
  S     4.250641 10.531755 -3.484775
  S     6.525112  9.435138 -2.189692
