16  
    
  C     5.386515  5.721784 -4.531355
  C     6.522648  5.233877 -3.730584
  C     5.268035  9.445921 -4.352416
  C     6.503515  9.070723 -3.717018
  N     7.570280  5.077271 -4.514946
  N     5.549659  5.803083 -5.847142
  N     4.683137  5.773682 -2.061885
  N     7.527351  8.811854 -4.545218
  N     5.362190  9.549525 -5.680943
  N     4.768617  9.424761 -1.860763
  S     7.222861  5.543747 -6.084717
  S     4.039193  6.158122 -3.512179
  S     6.263517  5.271752 -2.017540
  S     6.866395  9.076893 -6.077413
  S     4.011983  9.684774 -3.338336
  S     6.375254  8.877050 -1.957885
