16  
    
  C     5.495645  6.177068 -4.403172
  C     6.727823  5.606677 -3.945695
  C     5.466784  9.885251 -4.323710
  C     6.627508  9.247019 -3.730504
  N     7.600487  5.399963 -4.940106
  N     5.469129  6.417601 -5.712042
  N     5.190378  5.705553 -1.854985
  N     7.635850  8.994269 -4.573309
  N     5.622031 10.138828 -5.621774
  N     4.827516  9.700361 -1.839541
  S     7.010522  5.937400 -6.371402
  S     4.276390  6.388234 -3.152875
  S     6.788403  5.283820 -2.251265
  S     7.125861  9.514147 -6.039338
  S     4.203561 10.212289 -3.267271
  S     6.399637  9.010430 -1.961155
