16  
    
  C     5.580926  6.147631 -4.448061
  C     6.813355  5.735864 -3.733678
  C     5.589990  9.601096 -4.421388
  C     6.780112  9.204157 -3.697836
  N     7.917729  5.612916 -4.503308
  N     5.720747  6.153713 -5.774221
  N     4.934552  6.010824 -1.991362
  N     7.814353  9.033090 -4.509213
  N     5.781095  9.735329 -5.740826
  N     4.992371  9.578020 -1.891863
  S     7.316752  5.798877 -6.070914
  S     4.198333  6.487665 -3.412687
  S     6.567943  5.632328 -1.992842
  S     7.310947  9.327280 -6.085695
  S     4.192546  9.893778 -3.419471
  S     6.524879  8.981560 -1.998894
