16  
    
  C     5.321520  5.882561 -4.294965
  C     6.545478  5.420833 -3.659549
  C     5.617751  9.659956 -4.232577
  C     6.731517  9.080942 -3.556057
  N     7.547867  5.260802 -4.508383
  N     5.436405  6.078922 -5.592072
  N     4.792608  5.815970 -1.790962
  N     7.828491  8.828978 -4.293261
  N     5.854586  9.829887 -5.513722
  N     4.812105  9.308270 -1.807005
  S     7.004793  5.632011 -6.017029
  S     4.054462  6.255530 -3.208232
  S     6.322518  5.265008 -1.971776
  S     7.446489  9.352921 -5.779410
  S     4.181101  9.947268 -3.160434
  S     6.382149  8.754428 -1.845911
