16  
    
  C     5.165574  6.320517 -4.336068
  C     6.261560  5.732025 -3.655341
  C     5.822327  9.600122 -4.194221
  C     6.987290  9.067019 -3.537931
  N     7.370428  5.473136 -4.361079
  N     5.330029  6.480534 -5.652834
  N     4.421762  6.047530 -1.863698
  N     7.965108  8.899691 -4.434136
  N     5.880626  9.771635 -5.546548
  N     5.439183  9.566649 -1.668988
  S     6.861610  5.976135 -5.886879
  S     3.876271  6.723578 -3.279348
  S     5.915741  5.382596 -1.945385
  S     7.388460  9.219801 -5.993866
  S     4.594312  9.943286 -3.015047
  S     6.909444  8.859979 -1.847382
