16  
    
  C     5.471357  5.661484 -4.449889
  C     6.649148  5.342219 -3.680127
  C     5.644870  9.011985 -4.119801
  C     6.950102  8.838659 -3.519621
  N     7.742269  5.045491 -4.417445
  N     5.631873  5.537561 -5.773504
  N     4.675249  5.557677 -1.936033
  N     7.944771  8.677455 -4.413134
  N     5.659098  8.949656 -5.423205
  N     5.183625  9.359983 -1.664915
  S     7.191824  5.230968 -6.031392
  S     4.047909  6.007949 -3.383450
  S     6.330402  5.294188 -1.983578
  S     7.189799  8.718210 -5.903194
  S     4.306077  9.304716 -3.058738
  S     6.813227  9.104752 -1.756722
