16  
    
  C     5.642328  5.890068 -4.182849
  C     6.808932  5.259176 -3.576410
  C     5.685164  9.537109 -4.459757
  C     6.908020  9.138926 -3.821185
  N     7.806907  4.995080 -4.379654
  N     5.764666  6.121145 -5.469962
  N     5.045641  5.403204 -1.734311
  N     7.934615  8.891596 -4.666541
  N     5.742353  9.531847 -5.803455
  N     5.188186  9.197326 -1.931616
  S     7.320608  5.603490 -5.882053
  S     4.356167  6.095091 -3.040898
  S     6.567019  4.923694 -1.937514
  S     7.253307  9.102389 -6.215880
  S     4.428999  9.887061 -3.259996
  S     6.788232  8.900737 -2.127152
