16  
    
  C     5.610981  5.894317 -4.260772
  C     6.731855  5.171925 -3.740674
  C     5.667786  9.309009 -4.381378
  C     6.860597  8.797590 -3.746732
  N     7.646699  4.786558 -4.616376
  N     5.656161  6.024009 -5.587964
  N     4.957026  5.373758 -1.822016
  N     7.851052  8.656861 -4.618952
  N     5.756966  9.493582 -5.709064
  N     5.087459  9.112127 -1.868162
  S     7.092691  5.376067 -6.089826
  S     4.307219  6.034781 -3.194750
  S     6.582458  5.012945 -2.013164
  S     7.293191  8.983919 -6.105587
  S     4.265534  9.431898 -3.302413
  S     6.668316  8.665976 -2.021148
