16  
    
  C     5.391043  5.752356 -4.442580
  C     6.593977  5.419724 -3.716989
  C     5.268157  9.519255 -4.346681
  C     6.564146  9.205829 -3.786230
  N     7.651367  5.295568 -4.489814
  N     5.585738  5.895001 -5.739403
  N     4.722209  5.770847 -1.934323
  N     7.600026  9.006984 -4.642330
  N     5.281265  9.395917 -5.664545
  N     4.817785  9.266930 -1.852856
  S     7.161232  5.536697 -6.055918
  S     4.013133  6.130377 -3.426415
  S     6.309212  5.216622 -2.074291
  S     6.920255  9.017855 -6.132179
  S     3.963195  9.731787 -3.199730
  S     6.424066  8.952331 -2.067351
