16  
    
  C     5.578430  6.397709 -4.553383
  C     6.580833  5.579434 -3.834021
  C     5.793878  9.440929 -4.423205
  C     6.995515  9.015872 -3.727321
  N     7.648263  5.222101 -4.539170
  N     5.939694  6.596805 -5.835140
  N     4.598114  5.854284 -2.237764
  N     8.089393  9.022684 -4.512094
  N     5.852076  9.642806 -5.720170
  N     5.091438  9.231572 -1.939773
  S     7.487709  5.965017 -6.047601
  S     4.074496  6.599966 -3.650911
  S     6.042832  5.033553 -2.288341
  S     7.459652  9.428061 -6.102142
  S     4.404656  9.679124 -3.421385
  S     6.698030  8.740196 -2.028573
