16  
    
  C     5.508538  5.796419 -4.540904
  C     6.690784  5.590640 -3.849206
  C     5.218954  9.610102 -4.444810
  C     6.398893  9.216466 -3.753134
  N     7.770017  5.482460 -4.588208
  N     5.660826  5.843856 -5.860774
  N     4.915575  5.666564 -2.048306
  N     7.440631  8.843321 -4.516586
  N     5.331275  9.462678 -5.735586
  N     4.647723  9.860810 -1.985196
  S     7.312223  5.750571 -6.187154
  S     4.108271  5.972389 -3.487641
  S     6.504786  5.403429 -2.171979
  S     6.867938  8.903486 -6.017263
  S     3.888734 10.111253 -3.445371
  S     6.183745  9.297754 -2.069532
