16  
    
  C     5.347267  6.071887 -4.389147
  C     6.574963  5.797598 -3.792554
  C     5.494777  9.713364 -4.408913
  C     6.667471  9.210300 -3.715347
  N     7.645203  5.543609 -4.605663
  N     5.404273  6.226759 -5.733175
  N     4.832159  5.988040 -1.845942
  N     7.709478  9.080620 -4.488013
  N     5.664607  9.884085 -5.693481
  N     4.808050  9.365677 -1.904640
  S     6.956894  5.928870 -6.102223
  S     4.033677  6.266645 -3.260311
  S     6.445328  5.682337 -2.022538
  S     7.230846  9.436931 -6.070963
  S     4.061860  9.952604 -3.297999
  S     6.452166  9.096263 -1.998814
