16  
    
  C     5.633978  5.861946 -4.180319
  C     6.707196  5.178218 -3.574263
  C     5.730659  9.558564 -4.481612
  C     6.935392  9.076878 -3.851234
  N     7.743556  4.969609 -4.407614
  N     5.858391  6.226346 -5.461405
  N     5.015107  5.484735 -1.669493
  N     7.849970  8.765863 -4.764060
  N     5.762029  9.662605 -5.786057
  N     5.174987  9.255463 -1.999193
  S     7.295541  5.508770 -5.858044
  S     4.364966  6.228317 -3.023120
  S     6.580462  4.834933 -1.868949
  S     7.279838  9.088458 -6.242951
  S     4.478778  9.845829 -3.375440
  S     6.799757  8.839852 -2.077151
