16  
    
  C     5.531634  6.212159 -4.489530
  C     6.717821  5.689790 -3.866682
  C     5.364566  9.966308 -4.677278
  C     6.621641  9.685656 -4.088993
  N     7.770427  5.511773 -4.688914
  N     5.643421  6.471986 -5.767209
  N     4.956428  5.799464 -1.977149
  N     7.651101  9.523453 -4.857885
  N     5.467424 10.074654 -5.973587
  N     4.866548  9.583148 -2.230045
  S     7.162075  6.070981 -6.211947
  S     4.217997  6.295959 -3.399857
  S     6.566984  5.390652 -2.145587
  S     7.068861  9.803546 -6.381220
  S     4.016405 10.010492 -3.602804
  S     6.437138  9.496519 -2.344787
