16  
    
  C     5.692201  5.642586 -4.207347
  C     6.815653  5.058630 -3.555697
  C     5.392978  9.293255 -4.239529
  C     6.513416  8.603424 -3.637250
  N     7.826989  4.763547 -4.352083
  N     5.776700  5.756541 -5.518117
  N     4.964444  5.454429 -1.748098
  N     7.521381  8.307873 -4.465970
  N     5.539937  9.491460 -5.532782
  N     4.879127  9.133368 -1.697107
  S     7.310465  5.248902 -5.937889
  S     4.338385  5.952719 -3.176753
  S     6.573082  4.885385 -1.816368
  S     6.980215  8.792883 -6.019271
  S     4.111191  9.585561 -3.100301
  S     6.423965  8.480538 -1.923766
