16  
    
  C     5.753803  5.617494 -4.283144
  C     7.010574  5.166739 -3.627015
  C     5.494874  9.424677 -4.487654
  C     6.644904  8.845809 -3.848226
  N     8.061135  5.037859 -4.444356
  N     5.888595  5.772813 -5.597536
  N     5.142890  5.365796 -1.771203
  N     7.689256  8.638904 -4.661174
  N     5.657777  9.605879 -5.815016
  N     4.810809  9.211428 -1.994726
  S     7.440827  5.327972 -5.977883
  S     4.457499  5.954972 -3.135592
  S     6.747948  4.899419 -1.935398
  S     7.192123  9.045126 -6.166335
  S     4.096052  9.615829 -3.483766
  S     6.334672  8.573969 -2.118675
