16  
    
  C     5.404468  6.062977 -4.392848
  C     6.564916  5.597182 -3.707978
  C     5.684146  9.657276 -4.425750
  C     6.810809  9.100833 -3.710385
  N     7.668368  5.492650 -4.472072
  N     5.534796  6.101294 -5.724129
  N     4.836296  5.946591 -1.837238
  N     7.836211  8.861312 -4.513053
  N     5.897885  9.918728 -5.732830
  N     5.031255  9.451683 -1.953930
  S     7.101634  5.771468 -6.116855
  S     4.100922  6.381699 -3.262968
  S     6.385001  5.364814 -2.061581
  S     7.405069  9.287248 -6.018292
  S     4.340874  9.967038 -3.292803
  S     6.606877  8.863156 -2.054126
