16  
    
  C     5.488560  5.997082 -4.438718
  C     6.602423  5.393753 -3.739081
  C     5.703646  9.593109 -4.240867
  C     6.939297  9.216725 -3.550728
  N     7.623259  5.074973 -4.497736
  N     5.695255  6.149007 -5.749163
  N     4.889940  5.894702 -1.920100
  N     7.970489  9.087166 -4.376695
  N     5.786165  9.667038 -5.539758
  N     5.146953  9.422890 -1.726527
  S     7.167538  5.440563 -6.071715
  S     4.218536  6.420232 -3.394081
  S     6.482616  5.439184 -2.000851
  S     7.447197  9.246773 -5.908145
  S     4.369270  9.821088 -3.153006
  S     6.770695  9.003203 -1.831923
