16  
    
  C     5.365512  5.491324 -4.357769
  C     6.509535  4.909824 -3.743720
  C     5.595958  9.315149 -4.367283
  C     6.669086  8.525458 -3.783702
  N     7.539284  4.804332 -4.562589
  N     5.485922  5.852752 -5.631446
  N     4.736194  5.109982 -1.840145
  N     7.684900  8.275373 -4.572573
  N     5.804326  9.603804 -5.657701
  N     4.845126  8.550148 -1.999075
  S     7.062543  5.289260 -6.060628
  S     4.060806  5.559407 -3.275775
  S     6.295597  4.665925 -2.023746
  S     7.344672  8.988921 -6.077908
  S     4.317713  9.599108 -3.197773
  S     6.426221  8.054573 -2.095955
