16  
    
  C     5.508407  6.191028 -4.448489
  C     6.716432  5.528165 -3.983212
  C     5.510662  9.823592 -4.308245
  C     6.657382  9.197709 -3.624495
  N     7.702826  5.387035 -4.912001
  N     5.543056  6.506028 -5.753164
  N     5.131440  5.638915 -1.900702
  N     7.535344  8.881247 -4.521019
  N     5.626820 10.056027 -5.585600
  N     4.986515  9.795601 -1.786568
  S     6.965996  5.989192 -6.315210
  S     4.328690  6.365853 -3.147125
  S     6.716354  5.296185 -2.183989
  S     7.118168  9.556188 -6.050805
  S     4.178765 10.180220 -3.245861
  S     6.421497  9.022368 -1.864903
