16  
    
  C     5.626452  5.735731 -4.344237
  C     6.846559  5.056664 -3.806971
  C     5.703306  9.911133 -4.480939
  C     6.942612  9.477845 -3.835160
  N     7.814799  5.035195 -4.711650
  N     5.700555  6.158462 -5.617336
  N     5.287005  5.402828 -1.832725
  N     7.991912  9.316137 -4.589607
  N     5.921184 10.201924 -5.755026
  N     5.014242  8.907019 -2.214962
  S     7.224586  5.695003 -6.140585
  S     4.408494  5.864747 -3.133248
  S     6.840331  4.874666 -2.080996
  S     7.449092  9.764173 -6.158028
  S     4.325055  9.650501 -3.527890
  S     6.660970  8.817855 -2.206014
