16  
    
  C     5.170370  6.280211 -4.305378
  C     6.215958  5.542413 -3.591821
  C     5.722826  9.626644 -4.209752
  C     6.858794  9.057890 -3.580842
  N     7.162075  5.077303 -4.375980
  N     5.473441  6.440785 -5.572038
  N     4.462285  6.233613 -1.871357
  N     7.860085  8.958712 -4.463294
  N     5.754608  9.930517 -5.526299
  N     5.064220  9.405083 -1.691479
  S     6.942488  5.647942 -5.879429
  S     3.896670  6.730806 -3.343088
  S     5.887921  5.465241 -1.899010
  S     7.285320  9.402217 -5.940094
  S     4.412939  9.876844 -3.116037
  S     6.679618  8.838161 -1.822810
