16  
    
  C     5.314764  6.348708 -4.488648
  C     6.465248  5.855696 -3.734058
  C     5.440517 10.057972 -4.172860
  C     6.745426  9.762028 -3.627055
  N     7.596691  5.623278 -4.446194
  N     5.556872  6.484184 -5.764290
  N     4.500604  6.110668 -2.073745
  N     7.758395  9.791687 -4.516001
  N     5.528008 10.236460 -5.507015
  N     4.955631  9.738252 -1.700365
  S     7.088185  6.075730 -6.075777
  S     4.014261  6.777082 -3.473147
  S     6.108837  5.640189 -2.036710
  S     7.113452 10.213322 -5.965649
  S     4.154785  9.964258 -3.126641
  S     6.555595  9.420982 -1.908836
