16  
    
  C     5.644451  5.686795 -4.136933
  C     6.892564  5.364445 -3.550030
  C     5.558610  9.107522 -4.217568
  C     6.831206  8.958266 -3.577407
  N     7.860137  5.113182 -4.460884
  N     5.675027  5.702467 -5.494548
  N     5.230411  5.673498 -1.599769
  N     7.867631  8.991649 -4.415037
  N     5.669206  9.316135 -5.514782
  N     5.138345  8.843560 -1.641407
  S     7.167107  5.162713 -5.963607
  S     4.282119  5.691283 -2.978829
  S     6.893899  5.338442 -1.748325
  S     7.274045  9.258494 -5.870538
  S     4.229623  8.945903 -3.055248
  S     6.736333  8.970077 -1.872516
