16  
    
  C     5.463813  5.660367 -4.126811
  C     6.657745  5.113013 -3.443131
  C     5.628353  8.949981 -3.994177
  C     6.879494  8.480532 -3.417663
  N     7.761007  4.989674 -4.242808
  N     5.619816  5.911079 -5.437877
  N     4.786296  5.377526 -1.653978
  N     7.828642  8.184748 -4.287370
  N     5.615580  9.042234 -5.299152
  N     5.151576  8.877968 -1.493210
  S     7.167286  5.368007 -5.785381
  S     4.113586  5.886058 -3.058212
  S     6.424161  5.042776 -1.760708
  S     7.125284  8.532215 -5.839020
  S     4.289611  9.104960 -2.907845
  S     6.776947  8.601157 -1.665086
