16  
    
  C     5.398678  5.968262 -4.393214
  C     6.530919  5.428182 -3.791416
  C     5.439536  9.284766 -4.192327
  C     6.714955  9.012979 -3.598496
  N     7.593872  5.333640 -4.603421
  N     5.482074  6.151976 -5.714128
  N     4.713611  5.583184 -1.970799
  N     7.707125  8.821092 -4.484346
  N     5.441087  9.310682 -5.510410
  N     4.922132  9.210698 -1.697173
  S     7.078397  5.737986 -6.077314
  S     4.060716  6.212195 -3.320777
  S     6.274366  5.164458 -2.082807
  S     7.006852  9.045916 -5.964572
  S     4.157830  9.420518 -3.102296
  S     6.546102  8.725793 -1.818998
