16  
    
  C     5.540817  6.161673 -4.366651
  C     6.751306  5.508784 -3.758691
  C     5.584694  9.639766 -4.287142
  C     6.818856  9.130615 -3.689676
  N     7.684255  5.293939 -4.662695
  N     5.740686  6.514055 -5.630242
  N     5.045656  5.756622 -1.878455
  N     7.752257  8.957770 -4.589110
  N     5.603007  9.810297 -5.611908
  N     5.117625  9.313297 -1.673248
  S     7.241488  5.824053 -6.163584
  S     4.283123  6.337678 -3.236333
  S     6.652546  5.192543 -2.064486
  S     7.154646  9.404838 -6.067567
  S     4.313999  9.646245 -3.134384
  S     6.715366  8.910790 -1.888463
