16  
    
  C     5.674654  5.645121 -4.272221
  C     6.908120  5.224149 -3.646618
  C     5.702861  9.741499 -4.372940
  C     6.886934  9.199246 -3.786103
  N     7.925717  5.294287 -4.481922
  N     5.767491  6.008737 -5.557033
  N     5.200191  5.339220 -1.705743
  N     7.910797  8.904529 -4.632833
  N     5.873080 10.018627 -5.672877
  N     5.134786  8.995116 -1.971593
  S     7.341865  5.703491 -5.969785
  S     4.395027  5.665967 -3.092518
  S     6.836837  5.046576 -1.920784
  S     7.364328  9.450176 -6.147610
  S     4.409640  9.617249 -3.290216
  S     6.765337  8.810602 -2.058649
