16  
    
  C     5.802289  5.726163 -4.401781
  C     6.995015  5.115136 -3.753463
  C     5.706228  9.425036 -4.332934
  C     6.905963  8.857928 -3.735233
  N     8.075433  4.971442 -4.525943
  N     6.039426  6.139071 -5.643587
  N     5.072629  5.263793 -1.934640
  N     7.917241  8.892608 -4.592653
  N     5.775673  9.955032 -5.556861
  N     5.173157  8.976035 -1.853158
  S     7.556570  5.573938 -5.996321
  S     4.385348  5.817643 -3.381875
  S     6.679243  4.885739 -1.994535
  S     7.363260  9.740810 -5.978210
  S     4.371217  9.389325 -3.223587
  S     6.733235  8.437360 -2.058294
