16  
    
  C     5.397683  5.876564 -4.490385
  C     6.596832  5.443220 -3.763012
  C     5.350257  9.367264 -4.176695
  C     6.607591  8.945443 -3.632071
  N     7.658848  5.223788 -4.538171
  N     5.560501  6.079902 -5.780374
  N     4.722414  5.682914 -1.954330
  N     7.639875  8.828620 -4.429996
  N     5.484116  9.452549 -5.494840
  N     4.966050  9.143542 -1.629212
  S     7.178215  5.679359 -6.074479
  S     4.027428  6.248141 -3.372325
  S     6.330267  5.051951 -2.053886
  S     7.056964  9.091437 -5.942232
  S     4.120179  9.555047 -2.946383
  S     6.666457  8.756884 -1.925808
