16  
    
  C     5.413040  5.486345 -4.204157
  C     6.584599  5.041093 -3.448476
  C     5.641653  8.942978 -4.006565
  C     6.874239  8.565624 -3.404027
  N     7.604158  4.745720 -4.227391
  N     5.597969  5.617971 -5.507893
  N     4.729246  5.368282 -1.727521
  N     7.836497  8.318401 -4.271623
  N     5.726687  9.090162 -5.352105
  N     5.303302  8.938093 -1.451519
  S     7.236837  5.320356 -5.745939
  S     4.035798  5.832075 -3.197638
  S     6.407076  5.199522 -1.714633
  S     7.294451  8.616748 -5.752457
  S     4.413936  9.094384 -2.822446
  S     6.826678  8.328448 -1.674859
