16  
    
  C     5.540797  5.281665 -4.071268
  C     6.855800  5.248680 -3.625869
  C     5.560736  9.309738 -4.593030
  C     6.691875  8.807001 -3.874365
  N     7.770955  5.333622 -4.569207
  N     5.429426  5.374046 -5.359960
  N     5.401710  5.190330 -1.519980
  N     7.721261  8.659699 -4.686416
  N     5.686052  9.406614 -5.925041
  N     4.757948  9.161807 -2.165572
  S     6.966822  5.373716 -6.032380
  S     4.378910  5.322711 -2.804304
  S     7.012153  5.099176 -1.913017
  S     7.270016  8.958671 -6.226572
  S     4.250497  9.900120 -3.600387
  S     6.295523  8.654669 -2.170195
