16  
    
  C     5.526032  5.892040 -4.369167
  C     6.766016  5.352689 -3.863062
  C     5.554447  9.885633 -4.637633
  C     6.644185  9.221390 -4.042447
  N     7.685124  5.181009 -4.755641
  N     5.515751  6.085610 -5.674660
  N     5.131274  5.567053 -1.875257
  N     7.513616  8.842062 -4.989002
  N     5.529550 10.062070 -5.972340
  N     5.089673  9.838035 -2.050450
  S     6.998091  5.690907 -6.287271
  S     4.290803  6.122112 -3.180981
  S     6.711425  5.050376 -2.186519
  S     6.924202  9.336105 -6.477049
  S     4.309461 10.337896 -3.468794
  S     6.556441  9.048191 -2.309999
