16  
    
  C     5.715801  5.559591 -4.299949
  C     6.945660  5.232112 -3.585532
  C     5.154016  9.825870 -4.657567
  C     6.296831  9.275741 -3.953433
  N     7.986847  5.130380 -4.399991
  N     5.814844  5.551350 -5.639422
  N     5.117377  5.679635 -1.739661
  N     7.342324  8.988061 -4.701917
  N     5.396038 10.025783 -5.950319
  N     4.499438  9.818687 -2.158835
  S     7.456441  5.250164 -5.897543
  S     4.343862  5.724336 -3.206098
  S     6.760427  5.279330 -1.835795
  S     6.878772  9.338473 -6.252102
  S     3.772804 10.246996 -3.555209
  S     6.026184  9.146373 -2.280869
