16  
    
  C     5.381218  6.019596 -4.500150
  C     6.507241  5.587375 -3.761686
  C     5.323884  9.674434 -4.207499
  C     6.551840  9.321226 -3.534543
  N     7.594303  5.391422 -4.499995
  N     5.510899  6.169255 -5.819416
  N     4.650181  5.894342 -1.998785
  N     7.631485  9.160234 -4.316948
  N     5.510177  9.818085 -5.528813
  N     4.729259  9.309184 -1.706664
  S     7.103466  5.748605 -6.082141
  S     3.897024  6.192731 -3.441890
  S     6.273516  5.457309 -2.015321
  S     7.092187  9.456140 -5.891211
  S     3.966106  9.767907 -3.121026
  S     6.405990  9.015656 -1.899408
