16  
    
  C     5.134089  6.233200 -4.284245
  C     6.173139  5.546111 -3.630257
  C     5.768731  9.603775 -4.210613
  C     6.978417  9.145505 -3.590733
  N     7.275797  5.372825 -4.370905
  N     5.384905  6.439174 -5.568847
  N     4.469698  6.218598 -1.835879
  N     7.956438  8.904761 -4.461057
  N     5.824442  9.692141 -5.540149
  N     5.277809  9.481325 -1.641223
  S     6.963086  5.861605 -5.887366
  S     3.808045  6.782863 -3.311449
  S     5.890003  5.355038 -1.919703
  S     7.400031  9.318304 -5.924712
  S     4.498355 10.003575 -2.983375
  S     6.851435  8.828784 -1.962010
