16  
    
  C     5.314600  6.348275 -4.491183
  C     6.475104  5.842300 -3.734296
  C     5.443295 10.051736 -4.173808
  C     6.744415  9.762648 -3.622502
  N     7.589022  5.626234 -4.442100
  N     5.544775  6.473009 -5.769225
  N     4.492949  6.098254 -2.077051
  N     7.757117  9.784717 -4.519303
  N     5.533588 10.242611 -5.502346
  N     4.971215  9.721332 -1.684016
  S     7.084011  6.078145 -6.069129
  S     4.012452  6.771096 -3.478883
  S     6.101249  5.630329 -2.032006
  S     7.107244 10.212898 -5.963601
  S     4.140826  9.951323 -3.120151
  S     6.559358  9.420983 -1.907361
