16  
    
  C     5.768320  5.708319 -4.261004
  C     6.960883  5.198113 -3.683332
  C     5.183596  9.856511 -4.647656
  C     6.324233  9.309094 -3.955786
  N     7.960884  4.961491 -4.560008
  N     5.829559  5.823584 -5.627226
  N     5.151337  5.573233 -1.769097
  N     7.324447  8.892373 -4.739395
  N     5.343203  9.926371 -5.951413
  N     4.481200  9.735818 -2.229533
  S     7.367440  5.317329 -5.993362
  S     4.411226  5.826637 -3.242446
  S     6.772446  5.175167 -1.901544
  S     6.844635  9.363527 -6.253369
  S     3.892210 10.230357 -3.630742
  S     6.074592  9.160675 -2.174897
