16  
    
  C     5.634849  5.742952 -4.367703
  C     6.836388  5.275308 -3.765870
  C     5.432759  9.403886 -4.637628
  C     6.694552  9.228263 -3.974827
  N     7.882178  5.138327 -4.583279
  N     5.613222  5.860910 -5.692288
  N     5.169364  5.722620 -1.847482
  N     7.810296  9.291735 -4.676430
  N     5.653799  9.553118 -5.952903
  N     4.843402  9.316179 -2.182872
  S     7.187437  5.487459 -6.126623
  S     4.294183  6.070128 -3.219068
  S     6.686900  5.163938 -2.041273
  S     7.253880  9.601975 -6.236926
  S     4.114401  9.637030 -3.627630
  S     6.490022  8.964468 -2.241062
