16  
    
  C     5.394053  5.650866 -4.362833
  C     6.497435  4.998462 -3.674890
  C     5.463323  9.184908 -4.342541
  C     6.585789  8.482234 -3.782137
  N     7.532083  4.680892 -4.450316
  N     5.543098  5.708773 -5.679533
  N     4.604987  5.152216 -1.955010
  N     7.645033  8.291121 -4.569541
  N     5.700182  9.517765 -5.608789
  N     4.863892  8.837906 -1.859892
  S     7.053485  5.259816 -5.985133
  S     3.961380  5.957704 -3.315446
  S     6.214702  4.792976 -2.000712
  S     7.195927  8.914956 -6.009943
  S     4.121691  9.353944 -3.269709
  S     6.453073  8.278191 -2.075880
