16  
    
  C     5.220273  6.272860 -4.528631
  C     6.366772  5.730193 -3.836885
  C     5.443598  9.723336 -4.048844
  C     6.750309  9.430445 -3.553828
  N     7.466960  5.479080 -4.621509
  N     5.446453  6.603117 -5.790522
  N     4.559603  6.080424 -2.071794
  N     7.725211  9.627692 -4.417711
  N     5.488849 10.070391 -5.331642
  N     5.051187  9.147672 -1.601099
  S     6.966557  6.143974 -6.164475
  S     3.830319  6.385014 -3.535606
  S     6.130245  5.472995 -2.123472
  S     7.023541 10.002675 -5.870255
  S     4.108269  9.625780 -2.960339
  S     6.682183  9.048723 -1.778893
