16  
    
  C     5.525215  5.881614 -4.454118
  C     6.771380  5.584748 -3.772066
  C     5.591758  9.068327 -4.136709
  C     6.854524  8.726177 -3.521334
  N     7.857018  5.519330 -4.568759
  N     5.620899  6.081484 -5.762469
  N     4.925046  5.741228 -1.932594
  N     7.914837  8.748675 -4.315143
  N     5.726105  9.337248 -5.436367
  N     5.128322  8.795722 -1.630234
  S     7.214722  5.801194 -6.063561
  S     4.090668  5.853248 -3.415477
  S     6.552210  5.439895 -2.057959
  S     7.261496  9.102995 -5.837835
  S     4.275797  9.088156 -3.029266
  S     6.783811  8.554080 -1.774698
