16  
    
  C     5.696269  5.714437 -4.035358
  C     6.806682  5.094312 -3.388364
  C     5.535449  9.401464 -3.930903
  C     6.716917  8.790800 -3.355816
  N     7.903817  5.055558 -4.129844
  N     5.934337  6.183730 -5.250617
  N     4.977465  5.363843 -1.584458
  N     7.753342  8.635870 -4.202190
  N     5.692090  9.657113 -5.238258
  N     4.946591  9.252524 -1.485783
  S     7.431361  5.698160 -5.658977
  S     4.276145  5.878646 -2.982920
  S     6.536991  4.953921 -1.706086
  S     7.234384  9.291175 -5.627575
  S     4.187568  9.688047 -2.893573
  S     6.464228  8.561848 -1.593109
