16  
    
  C     5.533699  5.623890 -4.129777
  C     6.780265  5.145180 -3.548545
  C     5.534288  8.980997 -4.127238
  C     6.821691  8.918552 -3.508765
  N     7.747515  4.955025 -4.429592
  N     5.530547  5.763373 -5.447330
  N     5.168785  5.370012 -1.580297
  N     7.808619  8.960779 -4.394750
  N     5.514218  8.893539 -5.453404
  N     5.058223  9.158196 -1.635272
  S     7.122693  5.489727 -5.921764
  S     4.337238  5.988098 -2.896287
  S     6.824047  5.195620 -1.743577
  S     7.108391  8.862135 -5.914493
  S     4.236704  8.981924 -3.024610
  S     6.684469  8.720408 -1.781502
