16  
    
  C     5.520407  5.882881 -4.520707
  C     6.743930  5.567911 -3.826254
  C     5.323812  9.738188 -4.422343
  C     6.542186  9.360489 -3.756896
  N     7.818137  5.530122 -4.616817
  N     5.643676  5.998641 -5.829916
  N     4.919408  5.828478 -1.996128
  N     7.440087  8.839107 -4.565719
  N     5.389711  9.668171 -5.776607
  N     4.809085  9.563505 -1.895268
  S     7.228724  5.702114 -6.203982
  S     4.130410  5.930546 -3.509730
  S     6.543472  5.448194 -2.100358
  S     6.935978  8.945933 -6.104879
  S     3.990807  9.933049 -3.316134
  S     6.406593  9.297850 -1.976864
