16  
    
  C     5.239545  5.771914 -4.519888
  C     6.524032  5.337626 -3.871841
  C     5.469357  9.598428 -4.454651
  C     6.587573  9.058838 -3.723779
  N     7.572014  5.154084 -4.705297
  N     5.401972  5.970136 -5.832422
  N     4.757820  5.729573 -1.948435
  N     7.584467  8.772424 -4.571307
  N     5.519282  9.542075 -5.776449
  N     4.706985  9.574111 -1.938305
  S     6.961233  5.568069 -6.203663
  S     3.999578  6.184261 -3.396801
  S     6.374579  5.210473 -2.117372
  S     7.000687  8.951776 -6.144663
  S     4.099005 10.072310 -3.396334
  S     6.181631  8.900077 -2.070131
