16  
    
  C     5.401727  5.947322 -4.352544
  C     6.655050  5.545194 -3.674551
  C     5.345980  9.562710 -4.340762
  C     6.613586  9.197235 -3.739190
  N     7.677361  5.575143 -4.539418
  N     5.575718  6.248368 -5.634350
  N     4.757689  5.430715 -1.943088
  N     7.610966  9.092353 -4.595503
  N     5.427255  9.727260 -5.643995
  N     4.937539  9.456777 -1.767534
  S     7.214053  6.038496 -6.024865
  S     4.029161  5.999745 -3.339947
  S     6.437424  5.244121 -2.011138
  S     7.001874  9.439804 -6.057677
  S     3.968462  9.690477 -3.138856
  S     6.504722  9.057748 -2.008549
