16  
    
  C     5.776313  5.646802 -4.287474
  C     6.966143  5.153652 -3.696493
  C     5.560898  9.412931 -4.360203
  C     6.694146  8.755442 -3.726177
  N     8.035914  5.043817 -4.487849
  N     5.862463  5.903142 -5.600211
  N     5.129500  5.212374 -1.804474
  N     7.719434  8.608911 -4.560785
  N     5.731944  9.815433 -5.601912
  N     4.711421  8.660351 -2.141317
  S     7.449413  5.590431 -5.950019
  S     4.390312  5.741206 -3.186564
  S     6.760287  4.728159 -1.978720
  S     7.289660  9.351831 -5.994562
  S     4.150049  9.636423 -3.342405
  S     6.374745  8.349604 -2.032489
