16  
    
  C     5.592128  6.051514 -4.319608
  C     6.765291  5.476615 -3.659406
  C     5.885058  9.097021 -4.095718
  C     7.127839  8.791459 -3.449874
  N     7.771208  5.203139 -4.476369
  N     5.728556  6.259607 -5.620412
  N     4.916262  5.489261 -1.870449
  N     8.186753  8.856314 -4.285980
  N     5.957230  9.315408 -5.414825
  N     5.429554  9.074945 -1.540901
  S     7.231881  5.588368 -6.007088
  S     4.270449  6.293960 -3.192264
  S     6.521924  5.158799 -1.900944
  S     7.619031  9.178137 -5.804781
  S     4.578093  9.304131 -2.940099
  S     6.979148  8.519589 -1.775236
