16  
    
  C     5.502064  5.664656 -4.321902
  C     6.685164  5.046812 -3.682404
  C     5.535184  9.249896 -4.368970
  C     6.705899  8.778804 -3.699558
  N     7.719086  4.855279 -4.526828
  N     5.704668  5.947101 -5.589512
  N     4.990954  5.547158 -1.796952
  N     7.761105  8.654851 -4.494411
  N     5.649492  9.421692 -5.689870
  N     5.077893  9.150907 -1.811760
  S     7.256456  5.356905 -6.021349
  S     4.238998  6.023238 -3.207850
  S     6.556315  5.014919 -1.896043
  S     7.293568  9.112109 -5.996884
  S     4.230270  9.526234 -3.196614
  S     6.590939  8.600256 -2.016117
