16  
    
  C     5.404875  6.006498 -4.172274
  C     6.588774  5.327873 -3.634901
  C     5.663000  9.713711 -4.557416
  C     6.708319  9.066323 -3.784998
  N     7.585053  5.160236 -4.499604
  N     5.550834  6.278257 -5.469697
  N     4.995259  5.774602 -1.666243
  N     7.784188  8.855788 -4.515707
  N     5.967160 10.148377 -5.788598
  N     4.780535  9.251108 -2.108377
  S     7.038438  5.741324 -5.988274
  S     4.204635  6.317749 -3.003714
  S     6.537934  5.192680 -1.884651
  S     7.612630  9.595709 -5.963092
  S     4.225492  9.907848 -3.548168
  S     6.375192  8.820814 -2.129296
