16  
    
  C     5.338092  5.974372 -4.424735
  C     6.581355  5.477820 -3.743120
  C     5.490122  9.222018 -4.198155
  C     6.721576  8.894374 -3.562101
  N     7.592699  5.277600 -4.589781
  N     5.443758  6.234292 -5.717844
  N     4.697031  5.555972 -1.990188
  N     7.698407  8.896673 -4.466675
  N     5.471783  9.344724 -5.526626
  N     4.889162  9.266871 -1.687112
  S     7.007843  5.775576 -6.059458
  S     4.031240  6.216612 -3.350639
  S     6.354105  5.190754 -2.058102
  S     6.998972  9.017526 -6.002658
  S     4.179303  9.352467 -3.159849
  S     6.513084  8.732002 -1.829589
