16  
    
  C     5.519539  5.489362 -4.194143
  C     6.766858  5.094304 -3.532527
  C     5.397612  9.221702 -4.285995
  C     6.547097  8.599794 -3.704396
  N     7.880730  5.023667 -4.271926
  N     5.693676  5.434346 -5.503011
  N     4.995814  5.352582 -1.705831
  N     7.509438  8.381990 -4.570804
  N     5.395567  9.314121 -5.609028
  N     4.885124  9.063181 -1.772671
  S     7.349551  5.143632 -5.840057
  S     4.200133  5.762079 -3.079172
  S     6.589982  4.804798 -1.844193
  S     6.918986  8.888253 -6.076331
  S     4.212603  9.719982 -3.143447
  S     6.448603  8.471038 -1.997191
