16  
    
  C     5.397631  6.344495 -4.497197
  C     6.626625  5.836488 -3.806956
  C     5.681362  9.677271 -4.402395
  C     6.909996  9.244585 -3.828152
  N     7.639991  5.538138 -4.595424
  N     5.541729  6.504401 -5.790324
  N     4.869126  6.366403 -1.978923
  N     7.894609  8.864968 -4.650222
  N     5.778422  9.624627 -5.719408
  N     5.168348  9.532235 -1.866282
  S     7.060690  5.970049 -6.108805
  S     4.103717  6.620558 -3.412223
  S     6.510952  5.855085 -2.096983
  S     7.311713  9.276756 -6.172568
  S     4.388048  9.823578 -3.262857
  S     6.773768  9.147259 -2.107287
