16  
    
  C     5.699327  5.785496 -4.262401
  C     6.902805  5.206879 -3.822876
  C     5.756953  9.627642 -4.489905
  C     6.991984  9.219415 -3.859710
  N     7.918829  5.215916 -4.682542
  N     5.751766  6.153146 -5.542585
  N     5.322137  5.252155 -1.807359
  N     8.061497  9.254895 -4.595912
  N     5.929518 10.008738 -5.755221
  N     5.141757  9.124738 -2.023700
  S     7.272605  5.759495 -6.133723
  S     4.361966  5.674481 -3.055646
  S     6.879578  4.684629 -2.136053
  S     7.538116  9.905963 -6.101041
  S     4.482248  9.909926 -3.306125
  S     6.729133  8.768741 -2.200796
