16  
    
  C     5.462638  5.596749 -4.207480
  C     6.658916  5.205445 -3.502049
  C     5.864908  9.011792 -3.949294
  C     7.099423  8.577860 -3.385498
  N     7.696837  4.936574 -4.268836
  N     5.624234  5.624257 -5.507491
  N     4.834913  5.817677 -1.792370
  N     8.100165  8.506668 -4.295416
  N     5.949279  9.301138 -5.238943
  N     5.376923  8.317860 -1.510150
  S     7.195290  5.175325 -5.831511
  S     4.098427  6.065569 -3.240898
  S     6.355719  5.099429 -1.820044
  S     7.524906  9.015875 -5.711726
  S     4.561676  9.088474 -2.775449
  S     7.031443  8.341899 -1.675282
