16  
    
  C     5.509213  5.810450 -4.458408
  C     6.772781  5.494029 -3.806202
  C     5.415972  9.442833 -4.388175
  C     6.670337  9.046120 -3.825612
  N     7.749380  5.412893 -4.671342
  N     5.607130  5.966179 -5.775755
  N     5.100029  5.669411 -1.899566
  N     7.700592  9.000484 -4.699394
  N     5.528139  9.713085 -5.682028
  N     5.133038  9.417840 -1.774766
  S     7.196543  5.611932 -6.207150
  S     4.244405  5.943528 -3.273895
  S     6.757002  5.465048 -2.110200
  S     7.099271  9.471051 -6.154514
  S     4.248954  9.782242 -3.099162
  S     6.751028  9.066209 -2.023323
