16  
    
  C     5.425761  5.725636 -4.155517
  C     6.573341  5.111306 -3.527154
  C     5.545001  9.474466 -4.167762
  C     6.751589  8.954357 -3.544633
  N     7.550305  4.849407 -4.376110
  N     5.582149  6.114010 -5.416312
  N     4.846537  5.278352 -1.678388
  N     7.758476  8.674622 -4.374523
  N     5.690304  9.763296 -5.456653
  N     5.005040  9.031016 -1.696245
  S     7.062973  5.502944 -5.887309
  S     4.136099  5.898286 -3.004287
  S     6.438261  4.879159 -1.853318
  S     7.257759  9.321344 -5.872996
  S     4.229967  9.514023 -3.073795
  S     6.670672  8.755809 -1.809767
