16  
    
  C     5.553500  5.944864 -4.743088
  C     6.759248  5.636852 -3.988337
  C     5.575558  9.805708 -4.329979
  C     6.749180  9.220852 -3.734208
  N     7.812603  5.622953 -4.812103
  N     5.695598  6.149562 -6.080889
  N     4.894622  5.658274 -2.247839
  N     7.752731  9.093321 -4.603851
  N     5.732051 10.209717 -5.563149
  N     4.873117  9.197952 -1.943226
  S     7.287142  5.885978 -6.325518
  S     4.190337  5.997921 -3.708780
  S     6.487100  5.362444 -2.281288
  S     7.306671  9.758207 -5.997989
  S     4.175835  9.799551 -3.356538
  S     6.480953  8.860754 -2.005756
