16  
    
  C     5.497118  5.843904 -4.457118
  C     6.732674  5.553934 -3.819265
  C     5.568234  9.369610 -4.127084
  C     6.832289  9.024661 -3.509177
  N     7.771098  5.426352 -4.637487
  N     5.588542  5.916288 -5.772903
  N     4.969140  5.681767 -2.021437
  N     7.849220  8.855467 -4.338245
  N     5.695163  9.615490 -5.444890
  N     5.044599  9.013551 -1.583408
  S     7.175610  5.670279 -6.193696
  S     4.156248  6.070259 -3.403613
  S     6.598484  5.435947 -2.153005
  S     7.300462  9.084244 -5.855063
  S     4.256834  9.397355 -3.026066
  S     6.716040  8.802378 -1.782687
