16  
    
  C     5.897222  6.064145 -4.465246
  C     7.045131  5.566077 -3.701350
  C     5.665929  9.504666 -4.423695
  C     6.879178  8.983807 -3.784717
  N     8.099256  5.286235 -4.463476
  N     6.095396  6.258899 -5.802917
  N     5.078275  5.591951 -2.023193
  N     7.942178  8.910857 -4.570373
  N     5.774853  9.712831 -5.696689
  N     5.131060  9.259138 -1.882553
  S     7.646126  5.665513 -6.025343
  S     4.434719  6.133918 -3.447772
  S     6.748361  5.423303 -1.911076
  S     7.386625  9.336843 -6.107792
  S     4.405653  9.826317 -3.258121
  S     6.725733  8.897054 -2.035716
