16  
    
  C     5.478961  5.563213 -4.105127
  C     6.770614  5.132893 -3.530168
  C     5.493904  8.936006 -4.137638
  C     6.808636  8.894606 -3.520859
  N     7.770246  5.054714 -4.429806
  N     5.574224  5.835013 -5.422955
  N     5.101348  5.410913 -1.576894
  N     7.862581  8.861783 -4.341270
  N     5.492465  8.849911 -5.444241
  N     5.090446  9.183784 -1.587568
  S     7.133533  5.498873 -5.930090
  S     4.277879  6.048531 -2.870567
  S     6.784513  5.105474 -1.755481
  S     7.102877  8.762976 -5.908712
  S     4.196582  8.998611 -2.966320
  S     6.668923  8.692909 -1.814887
