16  
    
  C     5.486482  6.008891 -4.302956
  C     6.729457  5.571039 -3.643512
  C     5.389109  9.506534 -4.299573
  C     6.701415  9.155018 -3.757878
  N     7.752643  5.463401 -4.464558
  N     5.619196  6.354454 -5.587514
  N     4.936825  5.560518 -1.772444
  N     7.682527  9.167266 -4.679510
  N     5.392320  9.668323 -5.638081
  N     4.907213  9.251033 -1.877698
  S     7.208461  6.038970 -5.966234
  S     4.099647  6.061077 -3.158277
  S     6.509487  5.036247 -1.982848
  S     6.933236  9.430197 -6.212007
  S     4.071801  9.670056 -3.206756
  S     6.532158  8.895777 -2.037418
