16  
    
  C     5.471199  6.601133 -4.483508
  C     6.587403  5.990388 -3.870994
  C     5.531880 10.212110 -4.424881
  C     6.738420  9.763312 -3.751093
  N     7.537212  5.587639 -4.685978
  N     5.649412  6.813155 -5.804558
  N     4.861597  6.563287 -2.004269
  N     7.846796  9.542971 -4.459473
  N     5.692416 10.291457 -5.709034
  N     4.909282  9.884863 -1.882756
  S     7.142028  6.107851 -6.142114
  S     4.138120  6.876165 -3.478109
  S     6.357683  5.896701 -2.106157
  S     7.320078  9.942840 -6.015874
  S     4.146750 10.274768 -3.307677
  S     6.484432  9.511603 -2.021808
