16  
    
  C     5.643518  5.754953 -4.343683
  C     6.887947  5.433717 -3.825569
  C     5.716261  9.642969 -4.277344
  C     6.987409  9.298034 -3.718380
  N     7.854111  5.308547 -4.716360
  N     5.595047  5.804489 -5.653882
  N     5.212436  5.642203 -1.837920
  N     7.953523  9.279891 -4.652995
  N     5.682453  9.864319 -5.577861
  N     5.286780  9.142083 -1.816197
  S     7.158947  5.624368 -6.189382
  S     4.375425  5.950681 -3.217513
  S     6.852403  5.248704 -2.055395
  S     7.165921  9.533541 -6.140342
  S     4.376306  9.588249 -3.119760
  S     6.880444  8.762253 -2.100271
