16  
    
  C     5.847521  5.505478 -4.304085
  C     7.071911  5.169632 -3.693840
  C     5.452597  9.405743 -4.456118
  C     6.591342  8.806091 -3.789144
  N     8.135584  5.154093 -4.530318
  N     5.837843  5.697227 -5.641336
  N     5.261081  5.229490 -1.762401
  N     7.626553  8.460772 -4.565172
  N     5.612609  9.430287 -5.753567
  N     4.935420  9.531568 -1.935971
  S     7.384962  5.360980 -6.071399
  S     4.460673  5.542557 -3.210632
  S     6.858280  4.956390 -2.003740
  S     7.085366  8.837012 -6.133469
  S     4.103751  9.741797 -3.390378
  S     6.403333  8.710682 -2.029318
