16  
    
  C     5.121129  5.995482 -4.299038
  C     6.312859  5.729371 -3.599288
  C     5.560268  9.579486 -4.069466
  C     6.751255  9.022191 -3.451296
  N     7.346012  5.573280 -4.392883
  N     5.282115  6.093459 -5.606031
  N     4.458723  5.818252 -1.837647
  N     7.716611  8.731455 -4.333208
  N     5.575003  9.567867 -5.427069
  N     5.239142  9.538326 -1.459622
  S     6.866121  5.665244 -5.931825
  S     3.824712  6.436445 -3.232686
  S     6.104314  5.589325 -1.879660
  S     7.095951  9.005292 -5.846218
  S     4.369631  9.987720 -2.868833
  S     6.703420  8.762351 -1.693330
