16  
    
  C     5.426962  5.992582 -4.411910
  C     6.705505  5.694875 -3.747860
  C     5.490351  9.384194 -4.517218
  C     6.767570  9.119650 -3.871352
  N     7.710884  5.468528 -4.602808
  N     5.567479  6.126458 -5.728566
  N     4.974199  5.820017 -1.886931
  N     7.890963  9.195950 -4.592508
  N     5.694145  9.562235 -5.851085
  N     4.993723  9.234911 -1.959969
  S     7.103442  5.791411 -6.140918
  S     4.145019  6.200148 -3.274182
  S     6.655709  5.533056 -2.049237
  S     7.343062  9.291638 -6.153436
  S     4.128330  9.383169 -3.352934
  S     6.685465  8.885514 -2.157733
