16  
    
  C     5.817950  5.568343 -4.264033
  C     7.056081  5.246246 -3.651712
  C     5.473805  9.326671 -4.413074
  C     6.578404  8.704231 -3.737791
  N     8.037940  5.141069 -4.546439
  N     5.853709  5.705536 -5.591779
  N     5.419041  5.184066 -1.748523
  N     7.551051  8.290230 -4.538136
  N     5.653805  9.446222 -5.718131
  N     4.817602  9.314047 -1.896900
  S     7.442607  5.468663 -5.999709
  S     4.502697  5.601775 -3.080101
  S     7.059013  4.901525 -1.941526
  S     7.093619  8.781039 -6.069423
  S     4.193631  9.792846 -3.344066
  S     6.349219  8.699067 -1.984224
