16  
    
  C     5.332392  5.907170 -4.344192
  C     6.451531  5.372444 -3.706032
  C     5.661451  9.651818 -4.207825
  C     6.721284  9.065406 -3.448288
  N     7.540171  5.239390 -4.447185
  N     5.463147  6.091748 -5.644892
  N     4.756001  5.817275 -1.823561
  N     7.787514  8.782865 -4.226189
  N     5.861866  9.863307 -5.529910
  N     4.808700  9.261375 -1.753781
  S     7.050313  5.630949 -5.996477
  S     4.003915  6.242384 -3.260456
  S     6.330008  5.295019 -1.940810
  S     7.411231  9.344307 -5.791497
  S     4.341960  9.995778 -3.227925
  S     6.409559  8.771110 -1.801120
