16  
    
  C     5.220668  6.423591 -4.311062
  C     6.310569  5.777362 -3.734679
  C     5.745400  9.580967 -4.247027
  C     6.954610  9.060679 -3.629008
  N     7.324010  5.565450 -4.543876
  N     5.313213  6.617599 -5.607757
  N     4.553650  5.887327 -1.907644
  N     7.925646  8.753879 -4.481969
  N     5.878202  9.741491 -5.564503
  N     5.400724  9.609384 -1.680414
  S     6.869397  6.015933 -6.007609
  S     3.933776  6.594530 -3.264053
  S     6.190436  5.561040 -2.035796
  S     7.407048  9.215567 -5.955640
  S     4.522682  9.793293 -3.057936
  S     6.919957  8.930550 -1.894532
