16  
    
  C     5.526687  5.954607 -4.503960
  C     6.794810  5.633704 -3.953008
  C     5.813051  9.450787 -4.222130
  C     7.088693  9.133304 -3.641783
  N     7.777935  5.599744 -4.856821
  N     5.585884  6.261682 -5.818751
  N     5.018446  5.623067 -2.002718
  N     8.127727  9.064206 -4.455533
  N     5.810663  9.529564 -5.537092
  N     5.362933  9.194560 -1.705960
  S     7.156485  6.060220 -6.289744
  S     4.181183  5.970433 -3.427592
  S     6.633566  5.323472 -2.156307
  S     7.391261  9.287586 -6.005274
  S     4.474315  9.554363 -3.120428
  S     6.925738  8.772119 -1.891177
