16  
    
  C     5.431285  5.920616 -4.421347
  C     6.570748  5.343113 -3.749657
  C     5.398825  9.318835 -4.217532
  C     6.627408  8.893218 -3.600190
  N     7.622086  5.198064 -4.547340
  N     5.615997  6.074675 -5.737734
  N     4.815805  5.693726 -2.012764
  N     7.645283  8.834500 -4.460212
  N     5.457015  9.622638 -5.535015
  N     5.058075  9.124369 -1.594162
  S     7.198322  5.640822 -6.032381
  S     4.085368  6.212103 -3.444616
  S     6.331277  5.068991 -2.069037
  S     7.017131  9.145971 -5.942034
  S     4.180710  9.598344 -2.942024
  S     6.644375  8.785408 -1.889135
