16  
    
  C     5.852053  5.510065 -4.130306
  C     7.137227  5.178542 -3.608213
  C     5.424166  9.309292 -4.341386
  C     6.541802  8.694069 -3.652063
  N     8.104695  5.113377 -4.490733
  N     5.851923  5.761867 -5.431278
  N     5.436350  5.212584 -1.603651
  N     7.535308  8.324114 -4.428399
  N     5.622135  9.450579 -5.663609
  N     4.740564  9.096103 -1.906930
  S     7.431373  5.486435 -5.953346
  S     4.589199  5.598082 -2.935267
  S     7.054167  4.912724 -1.894325
  S     7.177499  8.739794 -5.955926
  S     4.173108  9.905880 -3.289312
  S     6.351532  8.582841 -1.940865
