16  
    
  C     5.500616  6.161138 -4.442009
  C     6.749097  5.588457 -3.973235
  C     5.426489 10.001533 -4.418998
  C     6.602196  9.456344 -3.765772
  N     7.686998  5.485203 -4.873787
  N     5.434871  6.306161 -5.761648
  N     5.254469  5.865629 -1.886806
  N     7.604605  9.084259 -4.572825
  N     5.645581 10.114621 -5.724198
  N     4.746019  9.421494 -2.034277
  S     6.967016  5.793272 -6.302957
  S     4.343264  6.351012 -3.224332
  S     6.757019  5.292344 -2.274758
  S     7.199517  9.533027 -6.094457
  S     4.105971 10.249972 -3.297469
  S     6.390946  8.999511 -2.093603
