16  
    
  C     5.667527  6.115254 -4.535447
  C     6.772891  5.523061 -3.880235
  C     5.601140  9.718105 -4.410943
  C     6.728625  9.195800 -3.721816
  N     7.876919  5.296694 -4.628565
  N     5.791212  6.314126 -5.856403
  N     4.984103  5.829040 -2.006874
  N     7.767976  9.078921 -4.521508
  N     5.800186 10.118524 -5.663807
  N     4.889676  9.352280 -1.956929
  S     7.358465  5.841490 -6.197558
  S     4.276232  6.123723 -3.456545
  S     6.536015  5.412903 -2.121228
  S     7.297512  9.564011 -6.056721
  S     4.223929  9.866250 -3.388642
  S     6.502799  8.946963 -2.046969
