16  
    
  C     5.287936  6.256978 -4.334555
  C     6.393785  5.653649 -3.656262
  C     5.482944  9.702394 -4.171027
  C     6.645681  9.108409 -3.594502
  N     7.423166  5.269237 -4.409955
  N     5.437930  6.423067 -5.655276
  N     4.486912  5.878906 -1.800146
  N     7.685065  8.865916 -4.390454
  N     5.693740  9.967136 -5.450155
  N     5.014040  9.856250 -1.718699
  S     6.964774  5.794519 -5.946128
  S     3.925391  6.559842 -3.181031
  S     6.119230  5.519051 -1.921145
  S     7.148303  9.322922 -5.931679
  S     4.173936 10.010835 -3.091571
  S     6.497072  8.940536 -1.872230
