16  
    
  C     5.485337  5.260821 -3.877786
  C     6.678945  4.948726 -3.200049
  C     5.395231  9.376369 -4.120266
  C     6.516420  8.770293 -3.457737
  N     7.736230  4.846058 -3.975077
  N     5.561304  5.347870 -5.182720
  N     4.815485  5.122966 -1.375097
  N     7.561560  8.588232 -4.305695
  N     5.528623  9.661404 -5.401061
  N     4.659110  9.085374 -1.738859
  S     7.167858  5.197582 -5.498536
  S     4.083926  5.264965 -2.874290
  S     6.452814  4.855798 -1.499575
  S     7.104516  9.122818 -5.783646
  S     4.007142  9.681372 -3.170221
  S     6.293778  8.755583 -1.735924
