16  
    
  C     5.223178  6.188789 -4.233245
  C     6.334480  5.570307 -3.644978
  C     5.544429  9.737319 -4.194059
  C     6.694378  9.143547 -3.646595
  N     7.333471  5.325258 -4.460446
  N     5.368803  6.374367 -5.522862
  N     4.578042  5.918058 -1.859380
  N     7.669709  8.832297 -4.534103
  N     5.567628  9.974971 -5.518201
  N     5.106933  9.781343 -1.683805
  S     6.895754  5.840077 -5.960993
  S     3.888604  6.581197 -3.233364
  S     6.132939  5.417658 -1.916021
  S     7.050793  9.424868 -5.968017
  S     4.240478  9.989073 -3.152028
  S     6.486286  8.981641 -1.845646
