16  
    
  C     5.440426  5.703559 -4.312576
  C     6.706383  5.404628 -3.680599
  C     5.336014 10.214491 -4.622207
  C     6.420701  9.451201 -3.959704
  N     7.696730  5.276985 -4.514522
  N     5.514082  5.712291 -5.647943
  N     4.956732  5.557905 -1.745557
  N     7.313650  8.996453 -4.825062
  N     5.517157 10.425369 -5.929516
  N     4.675041  9.602356 -2.149542
  S     7.143583  5.442705 -6.012603
  S     4.062743  5.546916 -3.193025
  S     6.614031  5.351204 -1.940856
  S     6.936631  9.668612 -6.280005
  S     4.017523 10.467128 -3.466047
  S     6.226482  9.119223 -2.258720
