16  
    
  C     5.553138  5.973434 -4.496874
  C     6.618773  5.408553 -3.715155
  C     5.799020  9.424763 -4.314244
  C     7.012434  9.041280 -3.647840
  N     7.684156  5.110863 -4.410746
  N     5.802157  6.184840 -5.778291
  N     4.588165  5.659008 -2.114620
  N     8.048073  8.929265 -4.492197
  N     5.939295  9.707840 -5.605717
  N     5.219625  9.057824 -1.861044
  S     7.433375  5.792038 -5.935545
  S     4.098395  6.240500 -3.584874
  S     6.203011  5.185295 -2.045427
  S     7.482743  9.386320 -6.000406
  S     4.413669  9.431388 -3.285246
  S     6.839938  8.836557 -1.916330
