16  
    
  C     5.524657  5.673366 -4.479112
  C     6.812423  5.464966 -3.866393
  C     5.440159  9.572360 -4.243588
  C     6.689809  9.144124 -3.635599
  N     7.872972  5.496070 -4.646154
  N     5.608953  5.899124 -5.779681
  N     5.133523  5.404224 -1.967921
  N     7.724913  8.991266 -4.476191
  N     5.528234  9.893104 -5.528129
  N     4.981990  9.333274 -1.719722
  S     7.258252  5.882336 -6.194275
  S     4.174470  5.506634 -3.335753
  S     6.772099  5.078764 -2.117998
  S     7.091396  9.534743 -5.991134
  S     4.108333  9.642330 -3.083222
  S     6.634387  9.049334 -1.931841
