16  
    
  C     5.396229  5.725087 -4.534689
  C     6.531053  5.283724 -3.783712
  C     5.303902  9.453736 -4.361385
  C     6.530288  9.117636 -3.722591
  N     7.629729  5.109338 -4.496895
  N     5.537419  5.813550 -5.863896
  N     4.711071  5.780983 -2.042953
  N     7.559632  8.881599 -4.546160
  N     5.372887  9.500871 -5.674499
  N     4.789566  9.377690 -1.872614
  S     7.202514  5.552107 -6.059163
  S     4.029195  6.151090 -3.487062
  S     6.270531  5.253503 -2.001834
  S     6.836471  9.058625 -6.074286
  S     4.000615  9.694757 -3.299461
  S     6.376375  8.892741 -2.011506
