16  
    
  C     5.339145  6.097960 -4.358587
  C     6.551371  5.444461 -3.775401
  C     5.407148  9.153123 -4.322528
  C     6.698058  8.913488 -3.659309
  N     7.501631  5.286498 -4.699105
  N     5.442954  6.316557 -5.648738
  N     4.757893  5.533411 -1.961024
  N     7.714353  8.750299 -4.481926
  N     5.541228  9.300175 -5.628178
  N     4.937935  9.302254 -1.856925
  S     6.996167  5.832606 -6.120210
  S     3.996515  6.189340 -3.250739
  S     6.389872  5.322636 -2.064510
  S     7.158615  9.080725 -5.986339
  S     4.041545  9.233312 -3.177037
  S     6.568792  8.751554 -1.930749
