16  
    
  C     5.542864  5.833260 -4.422580
  C     6.616540  5.232840 -3.698319
  C     5.740963  9.249622 -4.224409
  C     6.968257  8.823986 -3.611987
  N     7.653695  4.857684 -4.455309
  N     5.743823  5.994091 -5.738132
  N     4.798252  5.543384 -1.946050
  N     7.994035  8.727058 -4.488118
  N     5.816400  9.485202 -5.527625
  N     5.136023  9.096514 -1.746289
  S     7.276125  5.448718 -5.968028
  S     4.164109  6.114358 -3.409710
  S     6.343810  4.970814 -2.011009
  S     7.424353  9.201675 -5.946735
  S     4.360931  9.442382 -3.132861
  S     6.742512  8.767077 -1.852919
