16  
    
  C     5.820951  5.783269 -4.004792
  C     6.901242  4.982345 -3.433177
  C     5.633890  9.638207 -4.181643
  C     6.834664  8.997317 -3.740934
  N     7.930142  4.865464 -4.273153
  N     6.067627  6.241767 -5.243069
  N     5.182330  5.117217 -1.566015
  N     7.847149  9.058630 -4.603217
  N     5.702432 10.109936 -5.405467
  N     5.176556  8.918549 -1.785461
  S     7.598648  5.632134 -5.645577
  S     4.385104  5.779235 -2.940022
  S     6.751963  4.590189 -1.765877
  S     7.262433  9.821335 -5.910220
  S     4.398437  9.668018 -3.034846
  S     6.730382  8.459333 -2.056465
