16  
    
  C     5.635582  5.773925 -4.099313
  C     6.832900  5.219805 -3.577809
  C     5.835711  9.155541 -3.929140
  C     7.083803  8.750106 -3.350584
  N     7.842610  4.980874 -4.392522
  N     5.686080  5.931722 -5.430123
  N     5.214462  5.293590 -1.601331
  N     8.087377  8.752509 -4.234259
  N     5.897387  9.486633 -5.230886
  N     5.295293  9.037280 -1.390838
  S     7.200139  5.489487 -5.852297
  S     4.446016  5.982973 -2.885516
  S     6.797928  4.873311 -1.880455
  S     7.479851  9.244811 -5.711048
  S     4.466627  9.288156 -2.834596
  S     6.921772  8.692753 -1.577090
