16  
    
  C     5.308139  5.901114 -4.297770
  C     6.508849  5.366939 -3.631313
  C     5.616441  9.664344 -4.231446
  C     6.760534  9.079901 -3.513266
  N     7.519331  5.271919 -4.482798
  N     5.437058  6.083580 -5.608256
  N     4.795215  5.814345 -1.803546
  N     7.792994  8.803208 -4.260500
  N     5.859185  9.836628 -5.523850
  N     4.790295  9.286271 -1.780068
  S     7.037078  5.626376 -6.018396
  S     4.039321  6.246864 -3.239375
  S     6.313686  5.287009 -1.973207
  S     7.434219  9.352128 -5.779364
  S     4.266638  9.969066 -3.187054
  S     6.392391  8.761814 -1.823077
