16  
    
  C     5.405475  5.726934 -4.373702
  C     6.651696  5.339305 -3.789347
  C     5.360598  9.975988 -4.598896
  C     6.507973  9.409528 -3.996364
  N     7.638257  5.359747 -4.674657
  N     5.408049  5.952859 -5.679070
  N     4.905497  5.603144 -1.837849
  N     7.562300  9.311683 -4.848256
  N     5.474139 10.396855 -5.889452
  N     4.681005  9.709806 -2.099824
  S     7.000236  5.737891 -6.115946
  S     4.070424  5.682260 -3.284232
  S     6.510953  5.258588 -2.034272
  S     6.969660  9.882720 -6.316376
  S     3.969660 10.231808 -3.540102
  S     6.246439  9.135663 -2.289237
