16  
    
  C     5.760857  5.729843 -4.320065
  C     6.944152  5.173137 -3.700165
  C     5.211454  9.814046 -4.614635
  C     6.347549  9.273423 -3.954366
  N     7.957234  4.959681 -4.550784
  N     5.823227  5.851168 -5.634092
  N     5.160304  5.545754 -1.759090
  N     7.329282  8.906764 -4.738618
  N     5.333727  9.939372 -5.915799
  N     4.480910  9.727373 -2.214487
  S     7.340188  5.341549 -6.025495
  S     4.412736  5.853072 -3.231913
  S     6.767089  5.155136 -1.915996
  S     6.848190  9.358554 -6.277745
  S     3.911717 10.255720 -3.630570
  S     6.092083  9.164683 -2.196763
