16  
    
  C     5.776029  5.602696 -4.282432
  C     7.017190  5.190238 -3.648430
  C     5.520593  9.415445 -4.504095
  C     6.661908  8.842239 -3.836551
  N     8.087373  5.021584 -4.423186
  N     5.867032  5.734623 -5.611754
  N     5.132740  5.347643 -1.751342
  N     7.729902  8.676404 -4.640754
  N     5.653525  9.578708 -5.826293
  N     4.821840  9.214082 -2.023461
  S     7.448123  5.324680 -5.944308
  S     4.459483  5.929985 -3.138314
  S     6.732621  4.863748 -1.920480
  S     7.147543  9.045838 -6.184712
  S     4.086175  9.619402 -3.498177
  S     6.331775  8.570486 -2.147395
