16  
    
  C     5.576847  5.743965 -4.403588
  C     6.874408  5.447529 -3.852995
  C     5.545586  9.584261 -4.353520
  C     6.803259  9.214922 -3.785800
  N     7.894834  5.317204 -4.703779
  N     5.570961  5.877685 -5.724963
  N     5.207285  5.627664 -1.862400
  N     7.818569  9.126732 -4.652277
  N     5.535967  9.732878 -5.671094
  N     5.271977  9.313863 -1.745191
  S     7.130915  5.629942 -6.185415
  S     4.285591  5.964802 -3.228839
  S     6.806089  5.382077 -2.079478
  S     7.169154  9.538270 -6.110501
  S     4.327035  9.682766 -3.093792
  S     6.836526  8.883720 -2.109382
