16  
    
  C     5.105568  5.917132 -4.330599
  C     6.329897  5.377449 -3.668733
  C     5.409706  9.476860 -4.045342
  C     6.629065  8.892992 -3.506636
  N     7.331097  5.212105 -4.500550
  N     5.221050  6.146757 -5.634351
  N     4.630354  5.816570 -1.759250
  N     7.525801  8.495128 -4.408079
  N     5.433168  9.578896 -5.396135
  N     5.035653  9.348698 -1.509977
  S     6.762673  5.553606 -6.021680
  S     3.860751  6.105664 -3.194236
  S     6.232871  5.418527 -1.963221
  S     6.921245  8.948058 -5.851359
  S     4.220917  9.833741 -2.907425
  S     6.586146  8.849396 -1.688637
