16  
    
  C     5.605604  6.171776 -4.377342
  C     6.760345  5.571368 -3.722954
  C     5.500281  9.666649 -4.174492
  C     6.740298  9.286121 -3.551510
  N     7.841806  5.451455 -4.503968
  N     5.775051  6.348679 -5.670922
  N     4.910375  5.852158 -1.945713
  N     7.701279  9.154761 -4.447459
  N     5.447406  9.850199 -5.478374
  N     4.857005  9.343740 -1.736364
  S     7.304837  5.971482 -6.023912
  S     4.217482  6.377219 -3.351007
  S     6.498862  5.206874 -2.054811
  S     6.976512  9.450728 -5.953294
  S     4.121315  9.893207 -3.060336
  S     6.492604  9.084362 -1.872196
