16  
    
  C     5.545447  6.054126 -4.378609
  C     6.638056  5.402319 -3.701408
  C     5.818001  9.797732 -4.250417
  C     7.016436  9.378167 -3.568560
  N     7.595813  4.956101 -4.517479
  N     5.747529  6.224722 -5.704446
  N     4.905785  6.039047 -1.875163
  N     7.996064  8.969082 -4.352793
  N     5.950692  9.752173 -5.549101
  N     5.173264  9.302323 -1.745591
  S     7.199875  5.459747 -6.039344
  S     4.213465  6.445431 -3.303795
  S     6.459673  5.427660 -1.937564
  S     7.419996  9.233115 -5.910290
  S     4.403709  9.871266 -3.141923
  S     6.811520  9.085706 -1.914203
