16  
    
  C     5.232696  5.814477 -4.282238
  C     6.482081  5.364914 -3.653081
  C     5.410886  9.465005 -4.189482
  C     6.616193  8.916194 -3.568354
  N     7.440107  5.196836 -4.552110
  N     5.342621  5.954943 -5.588543
  N     4.731450  5.653199 -1.754712
  N     7.526449  8.570467 -4.449818
  N     5.463039  9.615537 -5.510959
  N     4.933879  9.255830 -1.599984
  S     6.869414  5.496414 -6.046406
  S     3.986360  6.037098 -3.191209
  S     6.339547  5.249127 -1.946119
  S     6.967512  8.970316 -5.955037
  S     4.102963  9.631461 -3.002750
  S     6.557624  8.867338 -1.777958
