16  
    
  C     5.769058  5.649976 -4.264153
  C     6.933788  5.153577 -3.644241
  C     5.468772  9.419281 -4.509569
  C     6.607903  8.856381 -3.819719
  N     7.962375  5.040131 -4.471492
  N     5.907542  5.839741 -5.566185
  N     5.196013  5.388545 -1.796231
  N     7.604237  8.537498 -4.633577
  N     5.668352  9.650811 -5.788071
  N     4.782990  9.206512 -1.980790
  S     7.430517  5.346455 -6.039710
  S     4.451059  5.999531 -3.157981
  S     6.782998  4.966297 -1.941902
  S     7.262617  9.060175 -6.138971
  S     4.120692  9.622787 -3.435005
  S     6.358121  8.587420 -2.076373
