16  
    
  C     5.676548  6.590949 -4.528827
  C     6.840760  6.009801 -3.911537
  C     5.519310 10.039852 -4.585202
  C     6.709307  9.591688 -3.945367
  N     7.883874  5.842317 -4.714281
  N     5.735187  6.690649 -5.830764
  N     5.044791  6.374505 -2.037625
  N     7.727426  9.341984 -4.801007
  N     5.656705 10.159614 -5.914345
  N     4.998441 10.150847 -2.134200
  S     7.235828  6.209389 -6.296526
  S     4.355169  6.927449 -3.459237
  S     6.571738  5.686904 -2.189857
  S     7.170975  9.592293 -6.324491
  S     4.224607 10.457000 -3.532763
  S     6.560335  9.409084 -2.244790
