16  
    
  C     5.574753  6.408046 -4.549121
  C     6.598780  5.576551 -3.850203
  C     5.791594  9.429058 -4.422551
  C     6.986169  9.010541 -3.729227
  N     7.659761  5.228110 -4.540184
  N     5.937382  6.608788 -5.802912
  N     4.588884  5.851316 -2.263846
  N     8.091552  9.027738 -4.510739
  N     5.857042  9.634260 -5.729329
  N     5.084361  9.223794 -1.944569
  S     7.490141  5.962267 -6.069741
  S     4.061908  6.612932 -3.653682
  S     6.050710  5.039444 -2.286499
  S     7.449112  9.443043 -6.103225
  S     4.405141  9.698674 -3.426151
  S     6.688026  8.742454 -2.038981
