16  
    
  C     5.595678  6.084531 -4.397593
  C     6.714160  5.419537 -3.704719
  C     5.613235  9.516296 -4.285846
  C     6.811058  9.129013 -3.666027
  N     7.795612  5.314892 -4.482909
  N     5.772241  6.300813 -5.702178
  N     4.862772  5.706189 -1.909137
  N     7.865302  8.978988 -4.507632
  N     5.675114  9.676327 -5.620305
  N     5.180953  9.377987 -1.690428
  S     7.302874  5.840526 -6.003361
  S     4.248084  6.459212 -3.299940
  S     6.402742  5.059847 -1.979666
  S     7.269529  9.315347 -6.012516
  S     4.393920  9.815398 -3.093578
  S     6.814271  8.829344 -1.935577
