16  
    
  C     5.549944  6.217358 -4.500010
  C     6.769107  5.705784 -3.882222
  C     5.371661  9.949001 -4.714605
  C     6.621754  9.583634 -4.034280
  N     7.722659  5.525054 -4.764849
  N     5.661218  6.597558 -5.790059
  N     4.987254  5.855263 -2.014090
  N     7.700302  9.493871 -4.871848
  N     5.523043 10.117834 -6.052502
  N     4.835175  9.660952 -2.213214
  S     7.236755  6.085219 -6.166710
  S     4.240552  6.408715 -3.379251
  S     6.584288  5.491096 -2.166697
  S     7.078049  9.762863 -6.358853
  S     4.012819 10.052451 -3.544850
  S     6.527008  9.541176 -2.384936
