16  
    
  C     5.118756  6.275743 -4.529185
  C     6.383106  6.030056 -3.889762
  C     5.374918  9.690886 -4.210416
  C     6.660473  9.304845 -3.667836
  N     7.435769  5.925662 -4.684140
  N     5.262497  6.524896 -5.787936
  N     4.596009  5.963297 -2.028899
  N     7.646668  9.277678 -4.578384
  N     5.454543  9.921512 -5.547020
  N     5.124115  9.259951 -1.687227
  S     6.825787  6.376296 -6.274922
  S     3.777523  6.364515 -3.405244
  S     6.262961  5.850511 -2.140989
  S     7.002667  9.715517 -6.007622
  S     4.156680  9.557873 -3.070265
  S     6.692588  8.947130 -1.921803
