16  
    
  C     5.543257  5.834424 -4.411432
  C     6.612796  5.236289 -3.697889
  C     5.745538  9.243070 -4.222750
  C     6.971703  8.813644 -3.608659
  N     7.644836  4.854828 -4.452010
  N     5.748350  5.996101 -5.727610
  N     4.799111  5.548932 -1.944111
  N     7.993414  8.730280 -4.489475
  N     5.811579  9.484238 -5.520591
  N     5.140652  9.089908 -1.745810
  S     7.278547  5.450057 -5.967776
  S     4.158816  6.108100 -3.412822
  S     6.342295  4.971693 -2.014816
  S     7.426223  9.202689 -5.944390
  S     4.358780  9.434056 -3.134283
  S     6.746377  8.767672 -1.858567
