16  
    
  C     5.359620  5.960582 -4.258228
  C     6.625942  5.468843 -3.643768
  C     5.442324  9.600808 -4.443315
  C     6.659592  9.180769 -3.798512
  N     7.589664  5.347769 -4.544502
  N     5.416938  6.242698 -5.565018
  N     4.970042  5.667179 -1.659187
  N     7.709309  8.904698 -4.524312
  N     5.668411  9.695442 -5.768424
  N     5.039110  9.725077 -1.874627
  S     7.024945  5.924998 -5.984654
  S     4.105483  6.064980 -3.069738
  S     6.589377  5.361883 -1.927507
  S     7.199684  9.223365 -6.072759
  S     4.173534  9.698564 -3.284626
  S     6.623490  9.194909 -2.064677
