16  
    
  C     5.644696  5.794672 -4.213944
  C     6.969290  5.441835 -3.553419
  C     5.604249  9.493485 -4.290970
  C     6.870229  9.008686 -3.775289
  N     7.944332  5.188422 -4.440225
  N     5.706867  5.935360 -5.544385
  N     5.075593  5.495037 -1.729748
  N     7.904454  8.915968 -4.584555
  N     5.739825  9.704690 -5.594505
  N     5.030631  8.977294 -1.891962
  S     7.269707  5.587469 -5.961943
  S     4.246494  5.730648 -3.150720
  S     6.760305  5.126945 -1.872480
  S     7.256747  9.376517 -6.093684
  S     4.262821  9.625867 -3.275592
  S     6.713831  8.790130 -2.038269
