16  
    
  C     5.745021  5.671387 -4.213905
  C     6.960185  5.245000 -3.695547
  C     5.767521  9.734669 -4.383906
  C     7.020545  9.191935 -3.862515
  N     7.933448  5.256140 -4.594305
  N     5.767922  5.917475 -5.516271
  N     5.294905  5.184811 -1.781082
  N     8.039090  9.038216 -4.694331
  N     5.924132 10.089431 -5.621269
  N     5.216213  9.236047 -1.953212
  S     7.324761  5.824697 -6.011329
  S     4.381597  5.659991 -3.092964
  S     6.892941  4.873670 -2.013201
  S     7.453294  9.617735 -6.130548
  S     4.397269  9.753085 -3.305933
  S     6.820719  8.763940 -2.146269
