16  
    
  C     5.726837  5.320760 -4.262642
  C     6.952403  4.953437 -3.612839
  C     5.697292  9.483650 -4.426960
  C     6.835803  8.939379 -3.722988
  N     8.038975  4.758156 -4.377045
  N     5.937526  5.597469 -5.532874
  N     5.171989  5.329911 -1.734022
  N     7.869162  8.703364 -4.534745
  N     5.887519  9.821173 -5.696375
  N     4.866724  9.122310 -1.996439
  S     7.502299  5.057425 -5.931724
  S     4.354039  5.582822 -3.207601
  S     6.762407  4.877608 -1.839803
  S     7.459274  9.418617 -6.041413
  S     4.280451  9.664176 -3.449968
  S     6.473951  8.702614 -2.056794
