16  
    
  C     5.478225  6.104452 -4.439759
  C     6.626258  5.678745 -3.651924
  C     5.627639  9.533789 -4.228321
  C     6.773303  9.122641 -3.468288
  N     7.770941  5.553323 -4.340863
  N     5.713899  6.087735 -5.765062
  N     4.697620  6.136578 -1.953590
  N     7.840158  8.893343 -4.273998
  N     5.791931  9.717870 -5.547771
  N     4.775285  9.415066 -1.858410
  S     7.307949  5.743390 -5.979715
  S     4.070522  6.432870 -3.404835
  S     6.286032  5.593128 -1.868397
  S     7.338426  9.226653 -5.845943
  S     4.212151  9.897342 -3.285343
  S     6.461169  9.031525 -1.742239
