16  
    
  C     5.475753  5.773064 -4.388360
  C     6.684595  5.288675 -3.748264
  C     5.765379  9.115657 -4.237133
  C     7.003865  8.856835 -3.535047
  N     7.642595  4.892955 -4.600064
  N     5.579474  5.831866 -5.693710
  N     4.956966  5.672231 -1.817774
  N     8.032921  8.620853 -4.370555
  N     5.865953  9.109254 -5.552858
  N     5.135525  9.279857 -1.761279
  S     7.147953  5.332968 -6.119376
  S     4.166754  5.998324 -3.249533
  S     6.507879  5.239146 -2.047617
  S     7.456174  8.693468 -5.907256
  S     4.373417  9.506635 -3.233668
  S     6.785846  8.926548 -1.808817
