16  
    
  C     5.640250  5.418437 -4.240134
  C     6.897674  5.345337 -3.544326
  C     5.232647  9.909798 -4.617493
  C     6.301013  9.268110 -3.932591
  N     7.989676  5.234557 -4.294195
  N     5.764482  5.388075 -5.592095
  N     5.059276  5.566941 -1.772825
  N     7.260842  8.926430 -4.771377
  N     5.306933 10.029389 -5.902386
  N     4.509466  9.866114 -2.155669
  S     7.348547  5.285860 -5.939273
  S     4.277029  5.702287 -3.206813
  S     6.703273  5.336560 -1.820951
  S     6.872261  9.481052 -6.299369
  S     3.926596 10.360335 -3.611501
  S     6.095038  9.100071 -2.202222
