16  
    
  C     5.469136  5.816547 -4.375211
  C     6.735869  5.379866 -3.786729
  C     5.364938  9.730962 -4.585934
  C     6.613933  9.315543 -3.951919
  N     7.651898  5.181931 -4.720867
  N     5.544928  5.974929 -5.683785
  N     5.041754  5.692802 -1.872922
  N     7.625553  8.901751 -4.718081
  N     5.516271  9.769821 -5.900945
  N     4.845791  9.376700 -2.130127
  S     7.018500  5.476968 -6.194255
  S     4.167096  6.028309 -3.247175
  S     6.643540  5.311224 -2.119651
  S     7.087113  9.203370 -6.233618
  S     4.029150  9.744072 -3.548308
  S     6.476700  9.182603 -2.200470
