16  
    
  C     5.512281  6.113929 -4.430937
  C     6.751140  5.608590 -3.947982
  C     5.487261 10.002830 -4.434980
  C     6.611975  9.444565 -3.747013
  N     7.680773  5.493957 -4.886018
  N     5.463989  6.276174 -5.727865
  N     5.206899  5.896388 -1.872188
  N     7.590898  9.099101 -4.593943
  N     5.601360 10.121358 -5.801547
  N     4.720854  9.403095 -2.052974
  S     6.989203  5.769087 -6.354208
  S     4.338557  6.352903 -3.235341
  S     6.755559  5.285887 -2.243348
  S     7.197804  9.559024 -6.100231
  S     4.093641 10.237481 -3.332900
  S     6.397715  8.995088 -2.077530
