16  
    
  C     5.455149  6.117334 -4.418451
  C     6.633657  5.695733 -3.623653
  C     5.593557  9.547414 -4.215219
  C     6.796547  9.087961 -3.489241
  N     7.731100  5.535253 -4.350684
  N     5.717063  6.101952 -5.736320
  N     4.686127  6.124154 -1.939506
  N     7.876625  8.895031 -4.291643
  N     5.787770  9.727160 -5.514208
  N     4.769406  9.416443 -1.843676
  S     7.286899  5.747467 -5.982877
  S     4.076275  6.442798 -3.402496
  S     6.263358  5.597027 -1.881854
  S     7.320908  9.225204 -5.835332
  S     4.206244  9.924674 -3.288169
  S     6.454351  9.026851 -1.728668
