16  
    
  C     5.427629  6.378142 -4.464525
  C     6.556875  5.865237 -3.841517
  C     5.751376  9.584208 -4.423497
  C     7.000750  9.217983 -3.775440
  N     7.570321  5.628299 -4.699993
  N     5.465955  6.451607 -5.814912
  N     4.906133  6.412250 -1.998920
  N     7.944980  8.959198 -4.688174
  N     5.692150  9.691567 -5.765392
  N     5.185047  9.521752 -1.868848
  S     7.024632  6.001221 -6.144529
  S     4.115868  6.657806 -3.423538
  S     6.424387  5.882550 -2.120000
  S     7.281661  9.297064 -6.197453
  S     4.442844  9.816693 -3.308034
  S     6.817913  9.122563 -2.034473
