16  
    
  C     5.529803  5.720898 -4.704698
  C     6.830574  5.615274 -4.080194
  C     5.412876  9.685929 -4.298347
  C     6.630478  9.263984 -3.635839
  N     7.891047  5.726595 -4.874356
  N     5.627505  5.950924 -6.023546
  N     5.042469  5.363013 -2.216678
  N     7.709876  9.321809 -4.402858
  N     5.532496 10.004387 -5.580314
  N     4.884449  9.175933 -1.792157
  S     7.222586  5.811668 -6.367161
  S     4.242186  5.681459 -3.585467
  S     6.664257  5.427040 -2.366886
  S     7.220055  9.850609 -5.875106
  S     4.114965  9.847573 -3.143119
  S     6.442851  8.788301 -1.996337
