16  
    
  C     5.110021  6.315303 -4.517075
  C     6.355825  5.895629 -3.939453
  C     5.378538  9.579594 -4.117146
  C     6.697794  9.308061 -3.495249
  N     7.403776  5.880389 -4.786061
  N     5.181661  6.495629 -5.873231
  N     4.545356  5.973359 -1.998259
  N     7.663294  9.238280 -4.379859
  N     5.370217  9.727099 -5.402640
  N     4.910706  9.113643 -1.665074
  S     6.802840  6.267921 -6.239104
  S     3.760141  6.488268 -3.403229
  S     6.168300  5.533160 -2.176460
  S     6.998463  9.654642 -5.877813
  S     4.111738  9.491003 -2.990140
  S     6.610939  8.966814 -1.734353
