16  
    
  C     5.588737  6.097643 -4.349225
  C     6.776103  5.472861 -3.671306
  C     5.588754  9.543118 -4.260832
  C     6.879213  9.101041 -3.682362
  N     7.755182  5.261089 -4.535568
  N     5.740326  6.325725 -5.643163
  N     4.904623  5.740455 -1.887472
  N     7.873448  9.035188 -4.536305
  N     5.675418  9.679367 -5.590777
  N     5.207693  9.335610 -1.708948
  S     7.313346  5.859853 -6.041058
  S     4.278892  6.442952 -3.308611
  S     6.426846  5.072021 -2.024468
  S     7.246057  9.297456 -5.994006
  S     4.313380  9.802073 -3.098501
  S     6.828724  8.833614 -1.972666
