16  
    
  C     5.663498  5.831823 -3.941609
  C     6.873864  5.299351 -3.330657
  C     5.531164  9.467341 -4.010911
  C     6.724956  8.968137 -3.375203
  N     7.862632  5.195702 -4.221708
  N     5.804692  6.163826 -5.216200
  N     5.073936  5.180063 -1.572537
  N     7.768164  8.874487 -4.198812
  N     5.689154  9.769298 -5.292669
  N     5.018764  9.065317 -1.460164
  S     7.353804  5.894928 -5.662298
  S     4.302639  5.903275 -2.890633
  S     6.636669  4.616113 -1.727699
  S     7.249769  9.312463 -5.660223
  S     4.272580  9.724412 -2.806051
  S     6.594829  8.529659 -1.700396
