16  
    
  C     5.641053  5.856930 -3.937479
  C     6.862491  5.293360 -3.345900
  C     5.554795  9.487374 -4.002163
  C     6.740327  8.969773 -3.373289
  N     7.879476  5.201536 -4.215901
  N     5.813961  6.170849 -5.211554
  N     5.083169  5.150749 -1.567266
  N     7.782087  8.886224 -4.196937
  N     5.690276  9.776723 -5.305907
  N     5.027708  9.042398 -1.466116
  S     7.348341  5.901464 -5.670242
  S     4.310260  5.897799 -2.867979
  S     6.636287  4.604681 -1.742313
  S     7.243886  9.323369 -5.683166
  S     4.267606  9.727426 -2.800634
  S     6.600255  8.527425 -1.702937
