16  
    
  C     5.539786  5.930918 -4.689851
  C     6.840871  5.720385 -4.033307
  C     5.487762  9.731373 -4.333920
  C     6.682917  9.198932 -3.706011
  N     7.894291  5.600682 -4.834864
  N     5.642675  5.955693 -5.982201
  N     4.901015  5.552110 -2.232578
  N     7.798389  9.142448 -4.453998
  N     5.691682 10.140564 -5.597088
  N     4.856151  9.178450 -1.898822
  S     7.271209  5.887029 -6.417430
  S     4.131881  5.871194 -3.710105
  S     6.635211  5.375560 -2.279131
  S     7.285269  9.829844 -5.955745
  S     4.100796  9.845916 -3.207471
  S     6.481991  8.852663 -2.056926
