16  
    
  C     5.170565  6.115665 -4.315919
  C     6.354918  5.562453 -3.655179
  C     5.533991  9.773752 -4.261660
  C     6.677083  9.183466 -3.619603
  N     7.388501  5.335872 -4.461890
  N     5.324082  6.392862 -5.621859
  N     4.565538  5.960673 -1.815855
  N     7.591533  8.929411 -4.565301
  N     5.541414  9.941480 -5.607865
  N     4.984401  9.685318 -1.717421
  S     6.824567  5.858208 -5.955533
  S     3.894915  6.572965 -3.256698
  S     6.177628  5.322316 -1.919340
  S     7.063830  9.461725 -6.073580
  S     4.234380 10.001265 -3.103432
  S     6.594806  8.983939 -1.898587
