16  
    
  C     5.565563  5.852091 -4.487848
  C     6.717868  5.359638 -3.815017
  C     5.469515  9.771325 -4.229870
  C     6.678971  9.203351 -3.722442
  N     7.748511  5.115308 -4.603692
  N     5.741928  6.105386 -5.766100
  N     4.900842  5.608106 -2.018476
  N     7.705531  9.046599 -4.542747
  N     5.589272  9.998845 -5.537512
  N     5.151367  9.207218 -1.611692
  S     7.283092  5.559011 -6.059924
  S     4.225037  6.169249 -3.477180
  S     6.456616  5.115245 -2.141030
  S     7.143852  9.502068 -6.008560
  S     4.231225  9.824380 -2.984825
  S     6.682822  8.744042 -2.003734
