16  
    
  C     5.598576  5.670752 -4.372730
  C     6.718769  5.141675 -3.706102
  C     5.440660  9.897341 -4.497913
  C     6.636203  9.258480 -3.990331
  N     7.772024  4.859798 -4.470427
  N     5.777215  5.909132 -5.675939
  N     4.964376  5.665731 -1.868881
  N     7.642554  9.068512 -4.805608
  N     5.568309 10.176579 -5.791359
  N     4.910145  9.307146 -2.053763
  S     7.316907  5.413465 -6.013787
  S     4.160739  5.814939 -3.346593
  S     6.423900  4.852277 -2.020623
  S     7.136534  9.598049 -6.305002
  S     4.088386 10.036489 -3.335963
  S     6.519315  8.987926 -2.270392
