16  
    
  C     5.301333  5.483749 -4.387154
  C     6.470174  4.890575 -3.762886
  C     5.564036  9.192175 -4.398920
  C     6.642288  8.451603 -3.815414
  N     7.538144  4.707391 -4.542309
  N     5.545949  5.797552 -5.670708
  N     4.721893  5.090194 -1.853687
  N     7.669713  8.279922 -4.618444
  N     5.787667  9.572901 -5.663674
  N     4.829637  8.660509 -1.966195
  S     7.051602  5.317171 -6.044483
  S     3.964075  5.750128 -3.226803
  S     6.298239  4.575296 -2.030965
  S     7.316676  9.044250 -6.022132
  S     4.288819  9.575182 -3.254509
  S     6.333356  7.906521 -2.219175
