16  
    
  C     5.684494  6.223205 -4.181926
  C     6.826179  5.605765 -3.596438
  C     5.930474  9.623567 -4.192097
  C     7.177222  9.140292 -3.652706
  N     7.815372  5.445584 -4.458646
  N     5.812316  6.527122 -5.474211
  N     5.066428  5.628511 -1.774330
  N     8.101642  8.856374 -4.543962
  N     5.933594  9.675408 -5.508805
  N     5.546176  9.603500 -1.651678
  S     7.296313  5.907736 -5.949488
  S     4.383467  6.415738 -3.067729
  S     6.740444  5.329763 -1.883304
  S     7.363955  9.182126 -6.040284
  S     4.636060  9.819812 -3.012011
  S     6.955677  8.783164 -1.931887
