16  
    
  C     5.687040  5.880511 -3.915416
  C     6.843187  5.213521 -3.445088
  C     5.600709  9.601824 -3.958183
  C     6.815830  9.004207 -3.405232
  N     7.911212  5.252411 -4.230569
  N     5.770497  6.285179 -5.186084
  N     5.058085  5.034008 -1.535582
  N     7.849597  8.902984 -4.243422
  N     5.680498  9.787486 -5.255805
  N     5.031297  8.969129 -1.527595
  S     7.351959  5.885312 -5.662651
  S     4.341153  5.863919 -2.756470
  S     6.642682  4.589510 -1.844160
  S     7.225528  9.388854 -5.776906
  S     4.276966  9.722695 -2.802995
  S     6.625015  8.517555 -1.722184
