16  
    
  C     5.535539  5.914340 -4.655381
  C     6.859657  5.706091 -4.030642
  C     5.468775  9.730950 -4.337435
  C     6.658814  9.195166 -3.718241
  N     7.908175  5.617656 -4.852194
  N     5.642839  5.925451 -5.979556
  N     4.937243  5.512600 -2.231587
  N     7.777625  9.185886 -4.441445
  N     5.695874 10.091149 -5.581729
  N     4.838242  9.178430 -1.875530
  S     7.263020  5.876656 -6.422320
  S     4.127873  5.833990 -3.695389
  S     6.648992  5.387835 -2.300548
  S     7.275717  9.841589 -5.930900
  S     4.093367  9.852156 -3.174026
  S     6.483243  8.845120 -2.065847
