16  
    
  C     5.274449  5.171604 -3.968505
  C     6.501741  4.917845 -3.265546
  C     5.390819  9.438720 -4.152211
  C     6.589260  9.045058 -3.455641
  N     7.644442  4.897385 -3.963444
  N     5.460396  5.450273 -5.245272
  N     4.690525  5.190787 -1.460567
  N     7.614681  8.770478 -4.279590
  N     5.437979  9.531257 -5.487499
  N     4.663066  9.097676 -1.731055
  S     7.101052  5.114430 -5.570677
  S     3.868292  5.227247 -2.863906
  S     6.332867  4.770413 -1.492812
  S     7.011706  9.072055 -5.855815
  S     4.010737  9.647530 -3.130721
  S     6.300187  8.793042 -1.784919
