16  
    
  C     5.089395  6.051773 -4.299099
  C     6.340059  5.759783 -3.577609
  C     5.615727  9.582546 -4.071146
  C     6.782646  9.006349 -3.437418
  N     7.382080  5.555431 -4.383776
  N     5.290648  6.104823 -5.605916
  N     4.462675  5.817087 -1.833107
  N     7.728384  8.727993 -4.375545
  N     5.592112  9.612472 -5.441984
  N     5.218462  9.524887 -1.439985
  S     6.885799  5.677757 -5.940330
  S     3.802248  6.459215 -3.244421
  S     6.103896  5.592092 -1.869397
  S     7.114353  9.004110 -5.859690
  S     4.369983  9.976777 -2.867130
  S     6.706569  8.794956 -1.697776
