16  
    
  C     5.527887  6.214769 -4.487947
  C     6.719196  5.684934 -3.865783
  C     5.361256  9.967522 -4.676908
  C     6.620837  9.692157 -4.081335
  N     7.769715  5.514220 -4.683239
  N     5.643693  6.459850 -5.762820
  N     4.952248  5.796995 -1.975715
  N     7.649799  9.525156 -4.857972
  N     5.460564 10.071949 -5.971966
  N     4.864684  9.577315 -2.226229
  S     7.157824  6.069405 -6.216765
  S     4.214207  6.287587 -3.400118
  S     6.566682  5.382487 -2.144978
  S     7.068377  9.807288 -6.385105
  S     4.017202 10.008509 -3.609437
  S     6.433162  9.491936 -2.340021
