16  
    
  C     5.352683  5.490998 -4.445760
  C     6.539993  5.230851 -3.695382
  C     5.580706  8.980279 -4.167459
  C     6.878117  8.926723 -3.522265
  N     7.669653  5.125753 -4.419601
  N     5.587591  5.610161 -5.739233
  N     4.705023  5.633326 -1.960734
  N     7.855740  8.703689 -4.397073
  N     5.558372  8.873310 -5.478885
  N     5.152681  9.346643 -1.599715
  S     7.262277  5.226127 -6.005522
  S     3.995221  6.004853 -3.441694
  S     6.326022  5.211960 -1.949070
  S     7.169299  8.728934 -5.936242
  S     4.303638  9.312862 -3.033069
  S     6.768803  9.047097 -1.793252
