16  
    
  C     5.827552  5.494857 -4.304782
  C     7.094076  5.184212 -3.680422
  C     5.459595  9.379349 -4.416578
  C     6.626082  8.789457 -3.776235
  N     8.134699  5.171362 -4.514142
  N     5.830927  5.729295 -5.602410
  N     5.300278  5.208807 -1.762930
  N     7.606541  8.395922 -4.578390
  N     5.584651  9.453186 -5.727888
  N     4.910975  9.505441 -1.909925
  S     7.390245  5.377897 -6.055987
  S     4.493962  5.554531 -3.181085
  S     6.886461  4.950218 -2.018875
  S     7.100194  8.817192 -6.133196
  S     4.124418  9.742888 -3.388881
  S     6.377878  8.712967 -2.024183
