16  
    
  C     5.116830  6.278433 -4.531970
  C     6.381489  6.026270 -3.895598
  C     5.367766  9.686848 -4.212653
  C     6.656857  9.301333 -3.667427
  N     7.437900  5.925754 -4.683139
  N     5.257658  6.524569 -5.789919
  N     4.594630  5.965347 -2.025406
  N     7.641843  9.282088 -4.570072
  N     5.453206  9.927105 -5.540209
  N     5.124907  9.258051 -1.689367
  S     6.820345  6.376471 -6.272583
  S     3.775059  6.364449 -3.407065
  S     6.260989  5.846240 -2.146821
  S     7.003834  9.711124 -6.004570
  S     4.157407  9.553926 -3.063332
  S     6.690683  8.948269 -1.922656
