16  
    
  C     5.535399  6.037796 -4.386877
  C     6.605694  5.401970 -3.691965
  C     5.795661  9.770298 -4.237192
  C     7.001684  9.377526 -3.577286
  N     7.577414  4.984289 -4.515498
  N     5.750634  6.219116 -5.699796
  N     4.906384  6.010946 -1.882780
  N     7.994346  8.980207 -4.353613
  N     5.935334  9.735848 -5.549243
  N     5.161373  9.315201 -1.732309
  S     7.200073  5.451385 -6.055879
  S     4.219927  6.440103 -3.323465
  S     6.463455  5.433403 -1.943109
  S     7.423448  9.233364 -5.907092
  S     4.395035  9.865821 -3.147998
  S     6.809657  9.073533 -1.907973
