16  
    
  C     5.248325  5.242399 -3.990363
  C     6.464835  4.905862 -3.221215
  C     5.330576  9.497195 -4.192927
  C     6.561976  9.100087 -3.531489
  N     7.514781  4.846611 -4.016559
  N     5.416207  5.398708 -5.325031
  N     4.664793  5.189765 -1.457113
  N     7.591178  8.886083 -4.330603
  N     5.390987  9.473305 -5.503784
  N     4.714711  9.139000 -1.708262
  S     7.047275  5.118078 -5.598328
  S     3.805236  5.238945 -2.921536
  S     6.301904  4.731187 -1.506068
  S     7.046505  9.034945 -5.889471
  S     4.001923  9.644496 -3.120685
  S     6.331021  8.806379 -1.785163
