16  
    
  C     5.695884  5.829021 -4.353577
  C     6.871896  5.160051 -3.887658
  C     5.760282  9.234166 -4.058414
  C     7.026968  8.781383 -3.551681
  N     7.886165  5.215641 -4.775311
  N     5.767988  6.346478 -5.595594
  N     5.366699  5.246988 -1.852809
  N     7.993304  8.792348 -4.489176
  N     5.733197  9.430845 -5.362146
  N     5.367682  8.810954 -1.522966
  S     7.264032  5.978875 -6.092660
  S     4.482604  5.891023 -3.121341
  S     6.932609  4.780483 -2.207560
  S     7.226901  9.186133 -5.928012
  S     4.540368  9.277377 -2.888197
  S     6.948672  8.287756 -1.822947
