16  
    
  C     5.374353  5.540684 -4.467278
  C     6.537903  5.143231 -3.660058
  C     5.488797  9.043570 -4.199474
  C     6.763856  8.891440 -3.568083
  N     7.642064  5.084983 -4.368926
  N     5.578281  5.611986 -5.782838
  N     4.689841  5.705597 -1.985437
  N     7.815511  8.763705 -4.364296
  N     5.563809  8.866539 -5.535777
  N     5.147813  9.294264 -1.624113
  S     7.200670  5.264133 -5.948190
  S     4.014248  5.943008 -3.476697
  S     6.308158  5.154769 -1.968061
  S     7.147047  8.714127 -5.924226
  S     4.262729  9.332287 -3.044212
  S     6.783656  8.983753 -1.818246
