16  
    
  C     5.392745  6.029978 -4.188634
  C     6.672111  5.567772 -3.613714
  C     5.568659  9.651407 -4.367146
  C     6.825830  9.261525 -3.738451
  N     7.633799  5.454109 -4.510366
  N     5.457761  6.251193 -5.490100
  N     5.005287  5.734860 -1.702628
  N     7.854564  9.001026 -4.517871
  N     5.708989  9.739738 -5.694241
  N     4.989226  9.561352 -1.913054
  S     6.982141  5.871216 -5.979763
  S     4.125905  6.112568 -3.007959
  S     6.594682  5.305912 -1.932098
  S     7.299931  9.220143 -6.053998
  S     4.169146  9.835247 -3.365856
  S     6.591319  9.118251 -2.004827
