16  
    
  C     5.278441  5.921835 -4.398008
  C     6.507817  5.423416 -3.652811
  C     5.690570  9.664510 -4.193623
  C     6.780196  8.983945 -3.508244
  N     7.549539  5.150773 -4.456735
  N     5.545208  6.120570 -5.715322
  N     4.697687  5.803688 -1.848760
  N     7.822212  8.779130 -4.254477
  N     5.889901  9.904040 -5.469442
  N     4.864488  9.295320 -1.810411
  S     7.079099  5.648173 -5.964637
  S     3.954861  6.236285 -3.287006
  S     6.337126  5.300460 -1.920258
  S     7.392896  9.302463 -5.785697
  S     4.362711 10.030578 -3.225632
  S     6.446153  8.781847 -1.758501
