16  
    
  C     5.633911  5.676576 -4.094947
  C     6.934876  5.303184 -3.533866
  C     5.534787  9.043297 -4.168881
  C     6.844330  8.947182 -3.555748
  N     7.891641  5.038455 -4.428116
  N     5.636146  5.824191 -5.419896
  N     5.239014  5.540346 -1.578791
  N     7.897677  8.992072 -4.350365
  N     5.595473  9.163403 -5.500665
  N     5.058670  8.928938 -1.650437
  S     7.099839  5.219725 -5.955377
  S     4.296857  5.753798 -2.955320
  S     6.885040  5.324648 -1.801268
  S     7.221350  9.160020 -5.926925
  S     4.203813  8.950094 -3.047058
  S     6.750780  8.908681 -1.841310
