16  
    
  C     5.487322  5.753812 -4.355628
  C     6.723371  5.258876 -3.829295
  C     5.701971  9.129215 -4.426380
  C     6.890869  8.777330 -3.679841
  N     7.693626  4.980878 -4.706817
  N     5.460297  5.849727 -5.677401
  N     5.081208  5.593399 -1.801397
  N     7.990429  8.608672 -4.421520
  N     5.898830  9.236575 -5.743146
  N     5.115986  9.166771 -1.893683
  S     7.011423  5.455926 -6.175238
  S     4.331923  6.170385 -3.137462
  S     6.561177  4.972104 -2.092615
  S     7.507504  8.854166 -6.033013
  S     4.314354  9.458409 -3.281786
  S     6.725582  8.729360 -2.001052
