16  
    
  C     5.456933  5.174850 -4.223400
  C     6.763663  5.045517 -3.612101
  C     5.405408  9.201231 -4.512341
  C     6.570730  8.652418 -3.847454
  N     7.780379  5.018406 -4.453758
  N     5.511322  5.243628 -5.573102
  N     5.145386  5.269505 -1.634039
  N     7.576617  8.417717 -4.679863
  N     5.527537  9.400692 -5.826777
  N     4.807375  9.086839 -1.948636
  S     7.090928  5.134886 -5.997061
  S     4.269164  5.129418 -2.994160
  S     6.791216  5.087403 -1.874076
  S     7.084607  8.881040 -6.202078
  S     4.072359  9.544656 -3.395292
  S     6.451917  8.732045 -2.082114
