16  
    
  C     5.458435  5.982961 -4.412008
  C     6.704778  5.505085 -3.841267
  C     5.690827  9.775348 -4.580875
  C     6.827818  9.119123 -3.930304
  N     7.623061  5.239646 -4.759852
  N     5.453868  6.236185 -5.712849
  N     5.007403  5.664126 -1.864417
  N     7.749864  8.876358 -4.832352
  N     5.711973  9.948153 -5.894555
  N     5.220789  9.651590 -1.997316
  S     6.989891  5.726302 -6.186866
  S     4.168578  6.213051 -3.189139
  S     6.586088  5.345719 -2.088786
  S     7.206137  9.332234 -6.364471
  S     4.480389 10.249079 -3.419007
  S     6.650031  8.899211 -2.244664
