16  
    
  C     5.356325  6.071674 -4.623409
  C     6.636304  5.739803 -4.086013
  C     5.696402  9.412620 -4.154106
  C     6.916457  8.913580 -3.595539
  N     7.615319  5.728545 -4.996764
  N     5.386632  6.470515 -5.894633
  N     5.004805  5.732749 -2.064956
  N     7.977063  8.895930 -4.349571
  N     5.791994  9.800041 -5.443718
  N     5.212219  8.860542 -1.618395
  S     6.998251  6.204674 -6.366890
  S     4.079228  6.089481 -3.388314
  S     6.638626  5.520991 -2.358427
  S     7.367376  9.377652 -5.864506
  S     4.418233  9.428613 -2.930660
  S     6.840879  8.704445 -1.823731
