16  
    
  C     5.581302  5.953732 -4.260646
  C     6.689014  5.297177 -3.646898
  C     5.940630  9.155232 -3.988351
  C     7.208033  8.780102 -3.380856
  N     7.697361  4.954802 -4.445014
  N     5.754473  6.172552 -5.563866
  N     4.914642  5.702533 -1.786138
  N     8.238595  8.688349 -4.271919
  N     5.971506  9.428065 -5.283323
  N     5.444892  8.961428 -1.539069
  S     7.191266  5.493629 -5.937685
  S     4.187197  6.183656 -3.216386
  S     6.489414  5.202337 -1.946192
  S     7.511652  9.182525 -5.758687
  S     4.587413  9.080242 -2.912772
  S     7.064513  8.428203 -1.671567
