16  
    
  C     5.622578  5.744598 -4.322043
  C     6.895521  5.201519 -3.788730
  C     5.668110  9.857441 -4.507485
  C     6.903787  9.387347 -3.899206
  N     7.827182  5.034599 -4.723972
  N     5.748768  6.085622 -5.606136
  N     5.242590  5.514588 -1.775389
  N     7.953171  9.282034 -4.694760
  N     5.829511 10.128021 -5.807354
  N     4.931158  8.979915 -2.207220
  S     7.220025  5.595651 -6.155808
  S     4.341514  5.950375 -3.143162
  S     6.816291  4.943781 -2.093651
  S     7.438034  9.751214 -6.149170
  S     4.244718  9.518034 -3.612920
  S     6.589381  8.891001 -2.231274
