16  
    
  C     5.595117  6.160972 -4.362312
  C     6.762024  5.583654 -3.712526
  C     5.484892  9.663882 -4.181307
  C     6.737097  9.280741 -3.570662
  N     7.831907  5.442840 -4.500827
  N     5.776099  6.336874 -5.653113
  N     4.919118  5.856766 -1.959069
  N     7.703318  9.172547 -4.448937
  N     5.437738  9.853303 -5.480690
  N     4.851106  9.339891 -1.741096
  S     7.318494  5.969688 -6.023645
  S     4.211308  6.381490 -3.362707
  S     6.499376  5.213205 -2.045321
  S     6.981072  9.451849 -5.947568
  S     4.117433  9.885444 -3.056759
  S     6.499286  9.083565 -1.872101
