16  
    
  C     5.585694  6.099266 -4.367092
  C     6.773128  5.454258 -3.668142
  C     5.588278  9.537162 -4.260565
  C     6.860578  9.107346 -3.680493
  N     7.762026  5.273675 -4.524201
  N     5.746927  6.319334 -5.659707
  N     4.897299  5.731189 -1.889250
  N     7.874679  9.025351 -4.536691
  N     5.674808  9.678735 -5.601983
  N     5.199110  9.344739 -1.701892
  S     7.311078  5.856903 -6.033429
  S     4.271368  6.448523 -3.308162
  S     6.421174  5.068240 -2.013247
  S     7.253025  9.299964 -5.995567
  S     4.330016  9.805834 -3.098733
  S     6.829559  8.831089 -1.964340
