16  
    
  C     5.556816  5.911763 -4.440040
  C     6.684872  5.280959 -3.777431
  C     5.535136  9.575222 -4.099646
  C     6.798610  9.009864 -3.617866
  N     7.655229  4.985741 -4.624698
  N     5.796840  6.155769 -5.738024
  N     4.816148  5.687981 -1.969716
  N     7.685426  8.766571 -4.613915
  N     5.501263  9.785955 -5.412316
  N     5.097763  9.205552 -1.599702
  S     7.312393  5.544200 -6.128728
  S     4.111467  6.134261 -3.452662
  S     6.354957  5.130818 -2.010535
  S     6.977928  9.389279 -5.993666
  S     4.209960  9.711754 -3.015732
  S     6.695664  8.778310 -1.865072
