16  
    
  C     5.507504  5.881297 -4.413820
  C     6.713675  5.635937 -3.687117
  C     5.636607  8.932362 -4.167683
  C     6.917552  8.718347 -3.547698
  N     7.784144  5.531615 -4.478616
  N     5.640012  5.948483 -5.718284
  N     4.842361  5.671343 -1.942462
  N     7.931397  8.756105 -4.382316
  N     5.679375  9.166431 -5.484962
  N     5.199895  8.812286 -1.578991
  S     7.259421  5.800437 -6.054022
  S     4.102570  5.941468 -3.375748
  S     6.470753  5.336911 -1.998314
  S     7.374345  9.177211 -5.854171
  S     4.291919  9.007011 -2.978688
  S     6.768104  8.455191 -1.851176
