16  
    
  C     5.455175  5.679236 -4.283942
  C     6.562646  5.102421 -3.578858
  C     5.912304  9.185112 -3.967420
  C     7.137931  8.661917 -3.402736
  N     7.631165  4.874829 -4.355824
  N     5.685831  5.876915 -5.574684
  N     4.901202  5.836129 -1.757416
  N     8.148836  8.535189 -4.241443
  N     6.015537  9.502012 -5.265970
  N     5.416122  8.472742 -1.488798
  S     7.213823  5.359667 -5.891512
  S     4.173357  6.124247 -3.226276
  S     6.420543  5.180227 -1.818116
  S     7.527658  9.067817 -5.722567
  S     4.557719  8.983484 -2.790042
  S     7.094883  8.423675 -1.691472
