16  
    
  C     5.391315  5.502540 -4.332487
  C     6.609573  5.029867 -3.706118
  C     5.649902  9.279821 -4.337555
  C     6.745232  8.574778 -3.725700
  N     7.595888  4.765876 -4.573306
  N     5.518518  5.777926 -5.624561
  N     4.794761  5.170129 -1.856381
  N     7.733454  8.284320 -4.583485
  N     5.878974  9.641810 -5.588618
  N     4.861204  8.609968 -2.000263
  S     7.036184  5.304880 -6.034475
  S     4.012763  5.491912 -3.308195
  S     6.351940  4.689163 -2.025721
  S     7.290136  8.958244 -6.067870
  S     4.323436  9.576734 -3.179932
  S     6.466694  8.153533 -2.071126
