16  
    
  C     5.521347  5.965837 -4.497322
  C     6.606708  5.360219 -3.768282
  C     5.802335  9.499223 -4.322651
  C     7.009467  9.061913 -3.673991
  N     7.737982  5.145178 -4.488092
  N     5.870690  6.242178 -5.754999
  N     4.581938  5.720348 -2.153045
  N     8.008488  8.927455 -4.528305
  N     5.960408  9.753414 -5.623446
  N     5.192646  9.111796 -1.869224
  S     7.445457  5.849003 -5.944311
  S     4.041831  6.343336 -3.601333
  S     6.181582  5.126361 -2.061046
  S     7.519511  9.335289 -5.983893
  S     4.400871  9.426968 -3.270406
  S     6.838294  8.835320 -1.983191
