16  
    
  C     5.256862  6.286446 -4.354643
  C     6.308515  5.580659 -3.711838
  C     5.617179  9.565265 -4.221035
  C     6.775387  9.050889 -3.560890
  N     7.373783  5.326137 -4.463525
  N     5.504168  6.500452 -5.627650
  N     4.582562  6.270922 -1.882406
  N     7.753466  8.724818 -4.418522
  N     5.744842  9.778056 -5.548846
  N     5.183569  9.486576 -1.687872
  S     6.982440  5.884522 -5.977732
  S     3.860436  6.631315 -3.315757
  S     6.134680  5.573810 -1.909606
  S     7.251450  9.245425 -5.959275
  S     4.321363  9.836884 -3.045943
  S     6.737533  8.952769 -1.858030
