16  
    
  C     5.455271  5.663887 -4.355384
  C     6.595617  5.027387 -3.666963
  C     5.512391  9.709545 -4.610954
  C     6.664431  9.159824 -3.928431
  N     7.679549  4.922940 -4.415869
  N     5.714954  5.883274 -5.623439
  N     4.836698  5.518637 -1.837340
  N     7.689505  9.128361 -4.796160
  N     5.573324 10.100911 -5.871347
  N     4.822814  9.339668 -2.157642
  S     7.276820  5.418502 -5.983388
  S     4.165543  5.998477 -3.339203
  S     6.345746  4.756741 -1.994590
  S     7.220111  9.786715 -6.226555
  S     4.232900  9.989344 -3.552612
  S     6.379461  8.801626 -2.251230
