16  
    
  C     5.726488  5.838402 -4.580855
  C     6.898237  5.350502 -3.874080
  C     5.508921  9.414149 -4.252985
  C     6.803260  9.075913 -3.708879
  N     7.946206  5.121187 -4.658868
  N     5.837574  5.998814 -5.917540
  N     5.135987  5.670883 -2.003801
  N     7.833670  9.197608 -4.535400
  N     5.528607  9.798343 -5.540424
  N     5.124197  8.973016 -1.801584
  S     7.385421  5.440364 -6.186835
  S     4.378527  6.060926 -3.437801
  S     6.806407  5.307508 -2.077005
  S     7.118551  9.669056 -6.004972
  S     4.230558  9.359784 -3.152753
  S     6.754928  8.884386 -1.969769
