16  
    
  C     5.288474  6.268712 -4.324774
  C     6.410002  5.690355 -3.601325
  C     5.517873  9.739297 -4.283533
  C     6.640061  9.141008 -3.518755
  N     7.414355  5.378978 -4.385616
  N     5.547754  6.395532 -5.610139
  N     4.608731  5.885161 -1.887079
  N     7.639190  8.835156 -4.316081
  N     5.680171  9.853554 -5.623383
  N     5.035272  9.710974 -1.631540
  S     7.060115  5.734303 -5.946997
  S     3.927197  6.567347 -3.300539
  S     6.203305  5.555654 -1.886669
  S     7.259108  9.280488 -5.826611
  S     4.169873 10.018315 -3.109842
  S     6.454781  8.941666 -1.826726
