16  
    
  C     5.561570  5.695759 -4.350134
  C     6.813205  5.358303 -3.758932
  C     5.547980  9.489531 -4.307614
  C     6.813411  9.086362 -3.704679
  N     7.914620  5.444425 -4.533854
  N     5.654347  6.002744 -5.652149
  N     5.070524  5.315324 -1.867572
  N     7.779736  9.027465 -4.573646
  N     5.519616  9.651190 -5.626550
  N     5.092115  9.482648 -1.768324
  S     7.252366  5.788438 -6.026526
  S     4.285538  5.698408 -3.242146
  S     6.675395  5.017823 -2.053883
  S     7.127407  9.377313 -6.086904
  S     4.278835  9.701114 -3.189920
  S     6.712468  9.003112 -1.941048
