16  
    
  C     5.117487  5.244365 -4.092004
  C     6.352076  4.776522 -3.460585
  C     5.407863  9.320293 -4.275586
  C     6.620423  8.933907 -3.615137
  N     7.383095  4.727138 -4.306559
  N     5.306576  5.466711 -5.373462
  N     4.537561  5.071214 -1.580698
  N     7.624825  8.817861 -4.507245
  N     5.446001  9.423397 -5.589902
  N     4.874449  9.408489 -1.767872
  S     6.833564  5.018808 -5.815401
  S     3.763951  5.522837 -3.032209
  S     6.188532  4.701463 -1.673535
  S     7.030022  9.159426 -5.985930
  S     4.068229  9.629577 -3.204985
  S     6.467668  9.010414 -1.890030
