16  
    
  C     5.618142  5.761023 -4.309350
  C     6.652320  5.024427 -3.658081
  C     5.452787  9.273938 -4.182369
  C     6.585371  8.698973 -3.521047
  N     7.699002  4.737956 -4.398079
  N     5.848985  6.027615 -5.594537
  N     5.012441  5.540594 -1.763750
  N     7.583374  8.436409 -4.368160
  N     5.547300  9.369170 -5.496883
  N     4.784951  8.987362 -1.714456
  S     7.314171  5.239633 -5.927981
  S     4.358517  6.086226 -3.174461
  S     6.579633  4.953559 -1.927769
  S     7.066975  8.875761 -5.916673
  S     4.097829  9.517065 -3.139671
  S     6.424067  8.540911 -1.793683
