16  
    
  C     5.639022  6.085038 -4.179926
  C     6.821154  5.537307 -3.559453
  C     5.780542  9.535344 -4.243461
  C     7.014488  9.100795 -3.663435
  N     7.808597  5.298659 -4.413740
  N     5.718669  6.150635 -5.483459
  N     4.981063  5.877461 -1.702276
  N     8.057391  8.930328 -4.465780
  N     5.932192  9.677898 -5.588296
  N     5.532834  9.685331 -1.663577
  S     7.290089  5.791507 -5.915874
  S     4.391366  6.604528 -3.050480
  S     6.565870  5.325445 -1.879686
  S     7.469362  9.368601 -5.970896
  S     4.627066  9.987257 -3.040772
  S     6.994868  8.920565 -1.936028
