16  
    
  C     5.115951  5.458818 -4.167596
  C     6.340655  4.896941 -3.560008
  C     5.459577  9.339417 -4.324701
  C     6.677060  8.914287 -3.679735
  N     7.310466  4.497723 -4.364017
  N     5.243563  5.510906 -5.478478
  N     4.638233  5.151448 -1.664081
  N     7.653461  8.697829 -4.555494
  N     5.516523  9.625317 -5.653515
  N     4.934023  9.383242 -1.811665
  S     6.789371  5.027627 -5.852592
  S     3.899435  5.722014 -3.018035
  S     6.178118  4.699585 -1.856140
  S     7.132373  9.158534 -6.076390
  S     4.123595  9.621672 -3.280267
  S     6.531748  9.043126 -1.942999
