16  
    
  C     5.807730  5.583659 -4.328551
  C     6.925329  5.079867 -3.672436
  C     5.586149  9.544896 -4.304748
  C     6.722910  8.936355 -3.687045
  N     8.042528  5.022768 -4.395530
  N     6.066508  5.985360 -5.563905
  N     5.116369  5.298591 -1.930282
  N     7.786408  8.903183 -4.485905
  N     5.736393  9.824877 -5.599689
  N     4.821351  8.621636 -1.982861
  S     7.633080  5.584411 -5.949592
  S     4.419693  5.814767 -3.320400
  S     6.626484  4.636977 -2.021287
  S     7.337374  9.383983 -5.928405
  S     4.200220  9.561818 -3.233242
  S     6.439255  8.278572 -2.139822
