16  
    
  C     5.334589  6.043276 -4.365637
  C     6.605763  5.496082 -3.803468
  C     5.517487  9.172407 -4.434080
  C     6.769244  8.888342 -3.769009
  N     7.567483  5.407114 -4.695886
  N     5.342405  6.247962 -5.672211
  N     4.942469  5.795759 -1.909115
  N     7.818768  8.880994 -4.592637
  N     5.660854  9.525875 -5.685862
  N     4.890610  9.127341 -1.970014
  S     6.947910  5.884108 -6.113211
  S     4.075360  6.274968 -3.227389
  S     6.567216  5.358266 -2.059345
  S     7.210191  9.183912 -6.131277
  S     4.117611  9.183653 -3.420881
  S     6.536959  8.795132 -2.012771
