16  
    
  C     5.820383  5.742569 -4.349540
  C     6.928780  5.151188 -3.712518
  C     5.653668  9.365267 -4.338815
  C     6.888984  8.839759 -3.840633
  N     7.964035  5.058024 -4.555328
  N     5.982181  6.075612 -5.628511
  N     5.104607  5.281823 -1.913917
  N     7.945849  8.894936 -4.631030
  N     5.847717  9.999727 -5.499307
  N     5.221583  8.906469 -1.839681
  S     7.516054  5.584755 -6.063498
  S     4.406499  5.837198 -3.364308
  S     6.731187  4.942321 -1.992641
  S     7.386505  9.765193 -5.993496
  S     4.373959  9.400492 -3.199092
  S     6.829273  8.568267 -2.073900
