16  
    
  C     5.464821  5.780062 -4.261147
  C     6.598908  5.109180 -3.654412
  C     5.531888  9.751954 -4.612771
  C     6.685893  9.202793 -3.937927
  N     7.613232  4.878918 -4.464998
  N     5.626334  5.926893 -5.559820
  N     4.786664  5.409821 -1.891972
  N     7.777235  9.178000 -4.676595
  N     5.771940 10.118154 -5.881325
  N     4.728463  9.204918 -2.205850
  S     7.188655  5.453399 -5.990225
  S     4.198243  6.161322 -3.228331
  S     6.304936  4.817863 -1.975394
  S     7.382798  9.772828 -6.162963
  S     4.115712 10.039985 -3.514420
  S     6.320973  8.666841 -2.363686
