16  
    
  C     5.419435  5.956825 -4.577606
  C     6.562964  5.520402 -3.825508
  C     5.315423  9.499545 -4.413945
  C     6.392304  8.854545 -3.713832
  N     7.540980  5.055948 -4.587921
  N     5.540475  5.988962 -5.913263
  N     4.645752  5.688282 -2.020748
  N     7.442978  8.565269 -4.490091
  N     5.545265  9.673847 -5.726093
  N     4.768713  9.477569 -1.960287
  S     7.069055  5.384691 -6.149180
  S     3.993308  6.157576 -3.511765
  S     6.265612  5.209996 -2.083532
  S     7.045887  9.062991 -6.006382
  S     4.000153  9.874033 -3.399350
  S     6.311071  8.879781 -1.975613
