16  
    
  C     5.240381  6.422607 -4.666561
  C     6.441238  5.933342 -4.046747
  C     5.657151  9.732312 -4.437827
  C     6.914307  9.320011 -3.773621
  N     7.447187  5.717051 -4.855272
  N     5.311145  6.441343 -5.999460
  N     4.815832  6.430694 -2.205400
  N     7.934489  9.139844 -4.575895
  N     5.840667  9.931030 -5.738107
  N     5.240890  9.477560 -1.834521
  S     6.874360  6.061002 -6.422308
  S     3.937954  6.675973 -3.572142
  S     6.405543  5.951119 -2.349190
  S     7.434179  9.484136 -6.121511
  S     4.402300  9.925180 -3.228376
  S     6.923005  9.160712 -2.012172
