16  
    
  C     5.507839  5.256152 -4.173978
  C     6.822842  5.102013 -3.542224
  C     5.394103  9.252280 -4.425720
  C     6.595051  8.729078 -3.839655
  N     7.777596  4.882026 -4.440603
  N     5.528690  5.291153 -5.520440
  N     5.067538  5.264057 -1.643431
  N     7.570187  8.411176 -4.680994
  N     5.510653  9.433182 -5.724930
  N     4.876748  9.104038 -1.958971
  S     7.168099  5.147293 -5.907084
  S     4.170048  5.085914 -2.996864
  S     6.752645  5.085425 -1.857427
  S     6.964669  8.826660 -6.195868
  S     4.110249  9.552209 -3.349855
  S     6.461971  8.657859 -2.095362
