16  
    
  C     5.464285  5.999081 -4.405528
  C     6.632778  5.371972 -3.842946
  C     5.542590  9.818568 -4.632057
  C     6.711354  9.170187 -4.051675
  N     7.624546  5.187646 -4.731862
  N     5.496402  6.211862 -5.714057
  N     5.054046  5.527492 -1.870615
  N     7.605355  8.833257 -4.924508
  N     5.635324 10.013571 -5.945852
  N     5.274246  9.721632 -2.073135
  S     6.978822  5.712241 -6.267640
  S     4.212676  6.161777 -3.177987
  S     6.722291  5.250616 -2.159898
  S     7.115900  9.335529 -6.416712
  S     4.370940 10.345052 -3.378330
  S     6.679085  8.991054 -2.398574
