16  
    
  C     5.347830  6.060153 -4.411968
  C     6.630842  5.759395 -3.730304
  C     5.417500  9.767246 -4.378810
  C     6.616686  9.303453 -3.705972
  N     7.586910  5.643379 -4.616585
  N     5.432223  6.217365 -5.718555
  N     4.877229  5.968600 -1.852288
  N     7.712295  9.087864 -4.476703
  N     5.636802  9.844766 -5.726040
  N     4.790218  9.354509 -1.861497
  S     6.985337  5.893992 -6.132646
  S     4.045466  6.241560 -3.295402
  S     6.480184  5.663384 -2.003175
  S     7.226539  9.425824 -6.069045
  S     4.092634  9.961866 -3.269028
  S     6.492889  9.041728 -1.968760
