16  
    
  C     5.484444  5.272576 -4.206654
  C     6.784817  5.073253 -3.575055
  C     5.389793  9.246320 -4.437839
  C     6.577049  8.674579 -3.838506
  N     7.776702  4.905164 -4.419574
  N     5.522270  5.255261 -5.529931
  N     5.120282  5.273990 -1.630984
  N     7.589039  8.415548 -4.655908
  N     5.516351  9.436995 -5.753022
  N     4.871363  9.095321 -1.951597
  S     7.150091  5.151885 -5.931279
  S     4.204042  5.081296 -2.990506
  S     6.751804  5.091519 -1.868613
  S     6.990225  8.841126 -6.220034
  S     4.095854  9.546941 -3.373865
  S     6.460104  8.685689 -2.085975
