16  
    
  C     5.446625  5.689707 -4.321206
  C     6.708278  5.404274 -3.684892
  C     5.318880 10.206891 -4.605266
  C     6.386122  9.457182 -3.988784
  N     7.727199  5.281288 -4.522710
  N     5.516836  5.689517 -5.640723
  N     4.956432  5.548901 -1.739989
  N     7.319234  8.981298 -4.822749
  N     5.526291 10.414133 -5.935903
  N     4.668588  9.594156 -2.132041
  S     7.156924  5.422862 -5.996445
  S     4.076587  5.549019 -3.186295
  S     6.610608  5.357047 -1.929251
  S     6.933938  9.651155 -6.278425
  S     4.020867 10.481635 -3.468106
  S     6.221941  9.120739 -2.258080
