16  
    
  C     5.384330  5.955886 -4.332628
  C     6.493699  5.458448 -3.667320
  C     5.734564  9.646952 -4.165204
  C     6.818443  8.971427 -3.498193
  N     7.503578  5.127817 -4.437431
  N     5.544997  6.158045 -5.619283
  N     4.706141  5.760522 -1.867014
  N     7.879573  8.734688 -4.333806
  N     5.942468  9.928894 -5.443146
  N     4.925040  9.370973 -1.815036
  S     7.151150  5.650330 -5.978598
  S     3.958769  6.218887 -3.321997
  S     6.283162  5.316344 -1.944630
  S     7.412142  9.267128 -5.811481
  S     4.311222 10.052059 -3.171525
  S     6.491149  8.798915 -1.779684
