16  
    
  C     5.648187  5.532354 -4.332630
  C     6.903050  5.200295 -3.738434
  C     5.727728  9.512772 -4.006544
  C     6.923817  8.872306 -3.506777
  N     7.918072  5.200798 -4.599095
  N     5.709469  5.699589 -5.650909
  N     5.102995  5.576776 -1.899158
  N     7.932706  8.826861 -4.350972
  N     5.796270  9.805588 -5.306394
  N     5.259646  8.823256 -1.526117
  S     7.294065  5.454686 -6.110456
  S     4.291411  5.904724 -3.347748
  S     6.754538  5.256232 -2.025928
  S     7.416148  9.462950 -5.774537
  S     4.481111  9.678551 -2.780116
  S     6.885649  8.508083 -1.793217
