16  
    
  C     5.416916  5.281112 -4.358288
  C     6.667544  5.052499 -3.662923
  C     5.681388  9.325759 -4.211303
  C     6.845063  8.747149 -3.585061
  N     7.751717  5.024713 -4.434349
  N     5.582494  5.525194 -5.676074
  N     4.930640  5.349054 -1.715298
  N     7.786035  8.392199 -4.463252
  N     5.841871  9.589371 -5.515181
  N     5.207110  9.155461 -1.679794
  S     7.161344  5.252137 -5.992949
  S     4.147060  5.414805 -3.121690
  S     6.520318  4.885432 -1.917626
  S     7.348702  8.972881 -5.925859
  S     4.356543  9.454225 -3.077767
  S     6.704069  8.444849 -1.838654
