16  
    
  C     5.932171  5.548929 -4.085737
  C     7.039112  4.979588 -3.398085
  C     5.657826  9.666706 -4.253637
  C     6.873787  9.081680 -3.741197
  N     8.134193  4.960432 -4.154223
  N     6.072889  5.788784 -5.388909
  N     5.078070  5.147579 -1.707936
  N     7.923744  9.140727 -4.578936
  N     5.756175  9.989663 -5.539026
  N     5.070255  8.890415 -1.883896
  S     7.679866  5.405482 -5.681310
  S     4.496901  5.845801 -3.110655
  S     6.605182  4.636285 -1.753773
  S     7.344989  9.762739 -6.001614
  S     4.343376  9.735723 -3.111141
  S     6.664669  8.462976 -2.122933
