16  
    
  C     5.380404  6.014460 -4.279940
  C     6.618137  5.471610 -3.653035
  C     5.549160  9.636062 -4.262845
  C     6.658814  9.078042 -3.592579
  N     7.588827  5.215226 -4.516522
  N     5.509632  6.289141 -5.582507
  N     4.871977  5.612857 -1.742108
  N     7.714376  8.883613 -4.410314
  N     5.667082  9.881375 -5.582578
  N     4.866232  9.359058 -1.855973
  S     6.968294  5.701480 -5.978771
  S     4.142601  6.264794 -3.049705
  S     6.481423  5.196958 -1.968289
  S     7.234439  9.462700 -5.906903
  S     4.148144  9.684375 -3.305903
  S     6.368467  8.770196 -1.887245
