16  
    
  C     5.657637  5.730728 -4.221975
  C     6.886436  5.285143 -3.609941
  C     5.699297  9.651442 -4.370024
  C     6.932927  9.136686 -3.773787
  N     7.887146  5.263943 -4.482893
  N     5.777975  5.956870 -5.531128
  N     5.210338  5.386998 -1.720810
  N     7.874289  8.912335 -4.639113
  N     5.808777  9.974816 -5.665394
  N     5.114271  8.959567 -1.991463
  S     7.335086  5.671869 -5.954243
  S     4.390077  5.669572 -3.117568
  S     6.789446  5.086788 -1.911899
  S     7.333710  9.410543 -6.115874
  S     4.350546  9.616874 -3.294366
  S     6.762649  8.811080 -2.026310
