16  
    
  C     5.622168  6.420854 -4.497088
  C     6.813809  5.892562 -3.926950
  C     5.505357  9.984008 -4.660880
  C     6.692961  9.552601 -4.039085
  N     7.793640  5.620927 -4.803196
  N     5.739118  6.710173 -5.831249
  N     5.029809  6.148195 -2.038932
  N     7.720471  9.298848 -4.899260
  N     5.544711 10.047501 -5.995914
  N     4.927945  9.978331 -2.169857
  S     7.293482  6.173716 -6.213495
  S     4.306358  6.720521 -3.415033
  S     6.612881  5.642148 -2.170852
  S     7.090656  9.730082 -6.381526
  S     4.192773 10.261330 -3.547006
  S     6.553703  9.510190 -2.258200
