16  
    
  C     5.375881  5.990964 -4.403075
  C     6.638947  5.634004 -3.747773
  C     5.730576  9.726310 -4.409939
  C     6.880792  9.100157 -3.825498
  N     7.669883  5.446778 -4.629312
  N     5.473505  6.164364 -5.728328
  N     4.939390  5.901984 -1.887027
  N     7.917247  8.864412 -4.604336
  N     5.870314  9.894088 -5.706186
  N     5.115189  9.515400 -1.904046
  S     7.066722  5.740367 -6.089399
  S     4.082010  6.343597 -3.255845
  S     6.483374  5.329595 -2.016138
  S     7.356847  9.279737 -6.171539
  S     4.366946 10.086927 -3.395061
  S     6.616909  8.838635 -2.119695
