16  
    
  C     5.115040  6.281364 -4.533054
  C     6.380487  6.021550 -3.900704
  C     5.362599  9.682270 -4.215921
  C     6.654239  9.297866 -3.667022
  N     7.439961  5.926520 -4.683126
  N     5.252193  6.524635 -5.793764
  N     4.593590  5.967434 -2.021717
  N     7.637408  9.286390 -4.561089
  N     5.450961  9.932933 -5.533051
  N     5.123959  9.256346 -1.691667
  S     6.815130  6.376253 -6.269476
  S     3.772740  6.364491 -3.408984
  S     6.258815  5.841937 -2.152862
  S     7.005058  9.706662 -6.001529
  S     4.157842  9.549988 -3.055773
  S     6.688946  8.949514 -1.924100
