16  
    
  C     5.373146  5.734394 -4.370385
  C     6.645267  5.354869 -3.826490
  C     5.289071  9.968977 -4.635212
  C     6.489471  9.449317 -4.030609
  N     7.647916  5.377442 -4.645012
  N     5.434485  5.959058 -5.671560
  N     4.877746  5.607253 -1.854950
  N     7.556600  9.348453 -4.840300
  N     5.428445 10.338114 -5.875098
  N     4.674849  9.725595 -2.158744
  S     6.995616  5.785079 -6.160753
  S     4.061094  5.721140 -3.287033
  S     6.512593  5.234483 -2.058694
  S     7.016089  9.910893 -6.317850
  S     3.976360 10.190507 -3.533653
  S     6.267078  9.134130 -2.277078
