16  
    
  C     5.472293  5.313284 -4.253108
  C     6.729549  5.054750 -3.621344
  C     5.681676  9.287288 -4.175030
  C     6.858818  8.696304 -3.565353
  N     7.784988  4.996547 -4.431574
  N     5.558407  5.392962 -5.581806
  N     4.964179  5.315234 -1.706178
  N     7.861531  8.475289 -4.399226
  N     5.804293  9.547671 -5.479762
  N     5.259964  9.226677 -1.580598
  S     7.197058  5.267025 -5.976607
  S     4.120379  5.448386 -3.123683
  S     6.588463  4.936641 -1.883320
  S     7.391832  8.983224 -5.893995
  S     4.361810  9.471124 -3.004504
  S     6.724201  8.529996 -1.844655
