16  
    
  C     5.413564  6.087190 -4.381175
  C     6.721855  5.768362 -3.768922
  C     5.501549  9.655975 -4.262130
  C     6.765402  9.214099 -3.654474
  N     7.704022  5.628115 -4.640236
  N     5.470980  6.057786 -5.702926
  N     4.971654  5.785293 -1.876822
  N     7.756975  9.110123 -4.553694
  N     5.570142  9.881257 -5.595862
  N     4.984641  9.550203 -1.733371
  S     7.119697  5.839608 -6.154668
  S     4.181561  6.252925 -3.233916
  S     6.591577  5.511964 -2.097402
  S     7.109557  9.467132 -6.047162
  S     4.119162  9.836979 -3.183620
  S     6.538809  8.898678 -1.941754
