16  
    
  C     5.612566  6.071127 -4.384204
  C     6.787514  5.616765 -3.661332
  C     5.346777  9.673625 -4.242334
  C     6.583891  9.312410 -3.607175
  N     7.808126  5.391832 -4.483348
  N     5.777975  6.322263 -5.666969
  N     4.915300  5.855348 -1.943276
  N     7.620484  9.256253 -4.436919
  N     5.452732  9.822090 -5.560831
  N     4.935358  9.306086 -1.651781
  S     7.381579  5.921940 -5.980540
  S     4.192511  6.392340 -3.404516
  S     6.476514  5.320816 -1.979382
  S     7.040930  9.510031 -5.953500
  S     4.060416  9.820557 -3.082165
  S     6.563148  9.064923 -1.876105
