16  
    
  C     5.627176  6.073603 -4.478742
  C     6.827737  5.626131 -3.771257
  C     5.614961  9.723451 -4.387089
  C     6.798654  9.200535 -3.694706
  N     7.871112  5.434575 -4.530572
  N     5.812028  6.271511 -5.757327
  N     4.978584  5.903726 -2.043033
  N     7.807948  8.965516 -4.542351
  N     5.755224  9.850090 -5.692663
  N     4.798454  9.369126 -1.957560
  S     7.338570  5.834657 -6.151342
  S     4.201968  6.266525 -3.505792
  S     6.629545  5.494219 -2.058763
  S     7.350403  9.522427 -6.086450
  S     4.175668  9.902321 -3.399284
  S     6.482543  8.969564 -2.016336
