16  
    
  C     5.524931  6.371793 -4.437233
  C     6.715219  5.787200 -3.747143
  C     5.647688  9.688040 -4.418227
  C     6.849440  9.367136 -3.738658
  N     7.755634  5.572377 -4.511447
  N     5.685185  6.441218 -5.725857
  N     4.868189  6.290200 -1.993591
  N     7.890859  9.310079 -4.568818
  N     5.804607  9.956610 -5.712323
  N     5.030632  9.599106 -1.906042
  S     7.205033  6.018644 -6.080738
  S     4.154491  6.680579 -3.442573
  S     6.507775  5.827426 -2.006365
  S     7.313107  9.536764 -6.141313
  S     4.284206  9.861580 -3.424512
  S     6.649143  9.315965 -1.939931
