16  
    
  C     5.395224  6.021961 -4.228814
  C     6.606823  5.516949 -3.705091
  C     5.565639  9.602235 -4.432979
  C     6.738218  9.242546 -3.711277
  N     7.662498  5.383703 -4.539688
  N     5.427903  6.241411 -5.558460
  N     5.002925  5.708299 -1.691860
  N     7.772286  8.955533 -4.513867
  N     5.710991  9.730072 -5.741750
  N     5.008160  9.659512 -1.880102
  S     6.988443  5.907980 -5.951833
  S     4.113824  6.080929 -3.030651
  S     6.592543  5.335417 -1.907574
  S     7.235970  9.216431 -6.047322
  S     4.151130  9.765313 -3.315891
  S     6.623220  9.156313 -2.073096
