16  
    
  C     5.849760  5.749558 -4.041205
  C     6.910628  5.037702 -3.405955
  C     5.631407  9.605057 -4.205087
  C     6.861117  9.015282 -3.731567
  N     7.931842  4.836875 -4.227059
  N     6.083500  6.147068 -5.303930
  N     5.171481  5.122059 -1.577090
  N     7.855938  9.101732 -4.600647
  N     5.717618 10.124350 -5.434685
  N     5.172219  8.904268 -1.802887
  S     7.622849  5.606604 -5.638998
  S     4.396774  5.793266 -2.976900
  S     6.749015  4.585169 -1.761478
  S     7.253672  9.819699 -5.922908
  S     4.394141  9.696095 -3.068862
  S     6.729949  8.441833 -2.054538
