16  
    
  C     5.886564  5.411012 -4.171494
  C     7.038142  5.054727 -3.403873
  C     5.611044  9.643123 -4.359190
  C     6.822443  9.143867 -3.747111
  N     8.139055  4.966662 -4.132380
  N     6.092440  5.624781 -5.463625
  N     5.011619  5.216130 -1.758063
  N     7.915314  9.031248 -4.522047
  N     5.803953  9.996234 -5.630660
  N     5.022496  8.948131 -1.909549
  S     7.679337  5.270853 -5.764179
  S     4.473872  5.838711 -3.197051
  S     6.648440  4.636949 -1.732768
  S     7.393563  9.640459 -6.001126
  S     4.333118  9.708690 -3.198807
  S     6.634387  8.527996 -2.142906
