16  
    
  C     5.267838  5.929661 -4.270896
  C     6.459182  5.419414 -3.693785
  C     5.413637  9.458921 -4.129844
  C     6.602545  8.918826 -3.523365
  N     7.451299  5.110866 -4.536423
  N     5.273848  5.974427 -5.605464
  N     4.709484  5.676652 -1.791188
  N     7.506641  8.516244 -4.443057
  N     5.488835  9.667772 -5.487297
  N     4.979176  9.212446 -1.614953
  S     6.833593  5.511784 -6.057481
  S     3.892324  6.047889 -3.180026
  S     6.334345  5.266667 -1.938635
  S     6.944114  8.931819 -5.916613
  S     4.084629  9.671947 -2.961967
  S     6.569838  8.904522 -1.790335
