16  
    
  C     5.539867  5.831132 -4.443794
  C     6.625847  5.223811 -3.699737
  C     5.730198  9.263265 -4.228368
  C     6.960813  8.845874 -3.618413
  N     7.671278  4.865857 -4.462478
  N     5.735152  5.990672 -5.756740
  N     4.795054  5.533094 -1.951077
  N     7.993945  8.720762 -4.481437
  N     5.827393  9.487758 -5.542014
  N     5.127408  9.109421 -1.745424
  S     7.272155  5.445311 -5.969580
  S     4.174583  6.126766 -3.402755
  S     6.347136  4.969207 -2.003597
  S     7.419687  9.199214 -5.951936
  S     4.365384  9.459084 -3.131341
  S     6.735827  8.765236 -1.842174
