16  
    
  C     5.341682  6.046389 -4.365555
  C     6.581110  5.493705 -3.809814
  C     5.526597  9.154234 -4.439204
  C     6.756315  8.878230 -3.764168
  N     7.549288  5.407823 -4.702913
  N     5.348126  6.254915 -5.662878
  N     4.930981  5.781177 -1.915013
  N     7.801097  8.873024 -4.584677
  N     5.648656  9.529288 -5.700993
  N     4.884670  9.135729 -1.971778
  S     6.953951  5.881161 -6.115272
  S     4.071193  6.270038 -3.224566
  S     6.563465  5.358164 -2.056904
  S     7.213668  9.177174 -6.116962
  S     4.122285  9.180296 -3.400166
  S     6.535384  8.796889 -2.016093
