16  
    
  C     5.696782  5.869735 -4.559067
  C     6.904826  5.383009 -3.879528
  C     5.503908  9.440171 -4.292328
  C     6.765060  9.070892 -3.689428
  N     7.912439  5.117438 -4.670202
  N     5.820275  5.980965 -5.896023
  N     5.143315  5.606033 -1.998569
  N     7.822601  9.226639 -4.521689
  N     5.574548  9.783322 -5.588443
  N     5.118036  8.995860 -1.794328
  S     7.373668  5.466780 -6.206334
  S     4.375150  6.046002 -3.421437
  S     6.784148  5.308001 -2.089098
  S     7.131475  9.649691 -6.007100
  S     4.239899  9.350465 -3.140413
  S     6.778771  8.851408 -1.946367
