16  
    
  C     5.338467  6.030270 -4.355526
  C     6.506841  5.505978 -3.803581
  C     5.492833  9.141955 -4.457407
  C     6.694191  8.839500 -3.736611
  N     7.494029  5.383453 -4.692097
  N     5.415032  6.296614 -5.660486
  N     4.882450  5.701984 -1.892335
  N     7.752272  8.819046 -4.543181
  N     5.601084  9.494227 -5.764711
  N     4.896494  9.178621 -1.928591
  S     6.964963  5.874730 -6.148386
  S     4.063767  6.245187 -3.211406
  S     6.521687  5.365007 -2.065754
  S     7.229201  9.159058 -6.053914
  S     4.138785  9.164501 -3.327931
  S     6.530856  8.803105 -2.033353
