16  
    
  C     5.411015  5.487726 -4.202413
  C     6.582946  5.044933 -3.439838
  C     5.636929  8.942582 -4.008665
  C     6.871232  8.565937 -3.409941
  N     7.598554  4.747127 -4.233481
  N     5.600869  5.624441 -5.505943
  N     4.734134  5.362178 -1.725084
  N     7.827984  8.313676 -4.276428
  N     5.729470  9.090684 -5.352239
  N     5.294709  8.937615 -1.452087
  S     7.236309  5.326105 -5.744700
  S     4.042416  5.832189 -3.195352
  S     6.406130  5.197997 -1.716053
  S     7.289072  8.611188 -5.752959
  S     4.411404  9.094013 -2.824668
  S     6.827374  8.337302 -1.671308
