16  
    
  C     5.534487  6.040938 -4.714884
  C     6.705519  5.551066 -3.965221
  C     5.654583  9.863433 -4.359633
  C     6.823544  9.240284 -3.761343
  N     7.814357  5.476606 -4.692238
  N     5.778960  6.330329 -5.984978
  N     4.753931  5.741410 -2.247178
  N     7.865983  8.988787 -4.552792
  N     5.821615 10.211937 -5.630991
  N     4.917325  9.252066 -1.992593
  S     7.376164  5.937181 -6.264073
  S     4.070204  6.243523 -3.710059
  S     6.404648  5.324330 -2.344433
  S     7.328129  9.646893 -6.075055
  S     4.218540  9.741639 -3.428574
  S     6.514784  8.852438 -2.078437
