16  
    
  C     5.595825  5.533627 -4.126295
  C     6.927799  5.276598 -3.634858
  C     5.516286  9.487954 -4.525420
  C     6.583999  8.799768 -3.847681
  N     7.802472  5.173896 -4.619104
  N     5.545087  5.733931 -5.419969
  N     5.401488  5.248869 -1.606911
  N     7.642923  8.525890 -4.590043
  N     5.801092  9.675898 -5.816976
  N     4.891322  9.256101 -2.048311
  S     7.057769  5.485976 -6.070293
  S     4.387555  5.429657 -2.927634
  S     6.991475  5.099548 -1.956190
  S     7.354452  9.095222 -6.071365
  S     4.082155  9.625741 -3.524507
  S     6.313486  8.427226 -2.164321
