16  
    
  C     5.657489  5.258286 -4.284725
  C     6.944727  5.026102 -3.671133
  C     5.569456  9.387925 -4.497056
  C     6.728874  8.967580 -3.759452
  N     7.889024  4.762171 -4.572821
  N     5.622160  5.345710 -5.604525
  N     5.274738  5.289345 -1.725360
  N     7.848727  8.744188 -4.438708
  N     5.871085  9.563578 -5.778683
  N     4.795282  9.101870 -2.086296
  S     7.228499  5.076529 -6.039512
  S     4.331733  5.439496 -3.145118
  S     6.861874  4.990850 -1.984013
  S     7.454533  9.118950 -6.011984
  S     4.172218  9.695694 -3.548020
  S     6.406890  8.703055 -2.084666
