16  
    
  C     5.387246  5.954283 -4.289531
  C     6.611461  5.545233 -3.692981
  C     5.404386  9.359340 -4.375900
  C     6.681349  9.035731 -3.790123
  N     7.640617  5.381062 -4.509835
  N     5.467095  6.112678 -5.597373
  N     4.815614  5.561871 -1.820445
  N     7.649221  8.896315 -4.661717
  N     5.415799  9.501977 -5.695660
  N     4.971428  9.543890 -1.866438
  S     7.060593  5.733293 -6.038543
  S     4.054066  6.069358 -3.225304
  S     6.480947  5.323606 -1.979986
  S     6.933333  9.214370 -6.171700
  S     4.065226  9.683005 -3.287455
  S     6.583936  9.199243 -2.087457
