16  
    
  C     5.490292  5.849429 -4.338353
  C     6.725477  5.278571 -3.771513
  C     5.723038  9.303730 -4.384544
  C     6.942580  8.905051 -3.721934
  N     7.684984  4.964492 -4.620948
  N     5.634762  6.103594 -5.657619
  N     5.048102  5.377372 -1.886242
  N     7.901609  8.554735 -4.550460
  N     5.801070  9.415570 -5.712815
  N     5.060527  9.064626 -1.925996
  S     7.012934  5.324522 -6.107104
  S     4.269115  6.144313 -3.140900
  S     6.646875  4.930401 -2.062492
  S     7.314742  8.936697 -6.118291
  S     4.334862  9.390923 -3.369199
  S     6.706117  8.697746 -2.008023
