16  
    
  C     5.499589  5.978105 -4.523998
  C     6.586604  5.294464 -3.785875
  C     5.778112  9.572267 -4.351063
  C     6.980476  9.090753 -3.719951
  N     7.747917  5.217130 -4.487652
  N     5.906497  6.346627 -5.744177
  N     4.618727  5.773519 -2.175343
  N     8.052481  8.901419 -4.479928
  N     5.946862  9.782650 -5.651060
  N     5.165781  9.163899 -1.854631
  S     7.460615  5.879758 -5.968550
  S     4.020870  6.421707 -3.614531
  S     6.143714  5.082605 -2.101385
  S     7.539455  9.305032 -6.002625
  S     4.393597  9.431453 -3.265985
  S     6.832481  8.822794 -2.033498
