16  
    
  C     5.811306  5.512399 -4.222103
  C     6.989823  5.067070 -3.464087
  C     5.664504  9.608739 -4.376894
  C     6.812425  9.015983 -3.747628
  N     8.076899  4.866840 -4.199932
  N     6.019485  5.498333 -5.543662
  N     5.121783  5.235525 -1.757269
  N     7.865072  8.999043 -4.532460
  N     5.842446 10.002655 -5.643655
  N     5.015714  9.020473 -1.946290
  S     7.678071  5.203523 -5.751491
  S     4.459452  5.765185 -3.222199
  S     6.661678  4.696712 -1.778453
  S     7.413580  9.547348 -6.016429
  S     4.278816  9.702511 -3.311341
  S     6.628165  8.568131 -2.095138
