16  
    
  C     5.501042  5.821237 -4.251701
  C     6.556874  5.133181 -3.674352
  C     5.548750  9.800576 -4.612187
  C     6.671701  9.245730 -3.913289
  N     7.595125  4.888215 -4.450746
  N     5.630354  5.966832 -5.557403
  N     4.783758  5.428006 -1.837327
  N     7.761532  9.156106 -4.653950
  N     5.751941 10.152014 -5.878371
  N     4.723895  9.161089 -2.212763
  S     7.169712  5.454534 -6.004736
  S     4.200902  6.177482 -3.213604
  S     6.311975  4.830284 -1.972508
  S     7.423215  9.756028 -6.137699
  S     4.129893 10.038095 -3.518002
  S     6.308704  8.653396 -2.377979
