16  
    
  C     5.396900  5.505202 -4.332240
  C     6.618153  5.037995 -3.703400
  C     5.653096  9.279543 -4.331644
  C     6.752263  8.577932 -3.722992
  N     7.601227  4.763365 -4.570783
  N     5.523060  5.768942 -5.625820
  N     4.797645  5.178443 -1.860067
  N     7.739914  8.285929 -4.587508
  N     5.883053  9.644698 -5.581052
  N     4.864800  8.616082 -1.994866
  S     7.033382  5.306721 -6.032439
  S     4.006504  5.486549 -3.308452
  S     6.359932  4.690389 -2.025383
  S     7.285629  8.955119 -6.064516
  S     4.323921  9.574717 -3.181226
  S     6.470190  8.162408 -2.069025
