16  
    
  C     5.501464  5.840224 -4.483910
  C     6.726715  5.541008 -3.826600
  C     5.651033  9.425964 -4.070075
  C     6.874948  8.993909 -3.465207
  N     7.744400  5.413092 -4.650990
  N     5.608586  6.031695 -5.812697
  N     4.976479  5.665243 -1.936957
  N     7.865872  8.688663 -4.335619
  N     5.722212  9.470097 -5.407111
  N     5.063104  8.780906 -1.669033
  S     7.237803  5.792750 -6.181956
  S     4.153149  5.909831 -3.391448
  S     6.597859  5.502498 -2.081733
  S     7.223377  9.053468 -5.864167
  S     4.272839  9.211186 -3.016622
  S     6.713974  8.719243 -1.760368
