16  
    
  C     5.492050  5.936977 -4.448761
  C     6.688369  5.559484 -3.796189
  C     5.649359  9.276152 -4.166231
  C     6.899042  9.038765 -3.528812
  N     7.711381  5.266956 -4.603837
  N     5.607179  5.856476 -5.759847
  N     4.910840  5.799309 -1.975986
  N     7.930837  8.969504 -4.363900
  N     5.706047  9.412331 -5.506413
  N     5.116634  9.538378 -1.637541
  S     7.186820  5.500596 -6.196295
  S     4.172366  6.333869 -3.388395
  S     6.480080  5.377920 -2.103240
  S     7.357447  9.366187 -5.874644
  S     4.332326  9.671107 -3.101612
  S     6.662697  8.882009 -1.815861
