16  
    
  C     5.519884  5.799851 -4.059705
  C     6.729223  5.347081 -3.435968
  C     5.573604  8.862013 -4.032495
  C     6.831111  8.563749 -3.435933
  N     7.714535  5.108493 -4.321717
  N     5.632462  5.903896 -5.369802
  N     4.926562  5.466290 -1.605694
  N     7.737485  8.254668 -4.355293
  N     5.581412  8.953790 -5.364489
  N     5.098512  8.921007 -1.513411
  S     7.145039  5.410605 -5.832583
  S     4.119798  5.958097 -3.032644
  S     6.495139  4.892934 -1.736962
  S     7.076565  8.541669 -5.812503
  S     4.278623  9.088240 -2.929931
  S     6.732422  8.695600 -1.700317
