16  
    
  C     5.541354  5.998082 -4.336727
  C     6.635458  5.507904 -3.667582
  C     5.728937  9.547643 -4.213336
  C     6.935956  8.969184 -3.664322
  N     7.729439  5.263483 -4.388870
  N     5.725813  6.249485 -5.636564
  N     4.731299  5.618026 -1.913991
  N     7.916219  8.828014 -4.520626
  N     5.778911  9.745256 -5.504617
  N     5.187105  9.542421 -1.693172
  S     7.321685  5.762341 -5.929902
  S     4.181542  6.396545 -3.312070
  S     6.291953  5.139300 -2.027941
  S     7.308221  9.314406 -5.966500
  S     4.403038  9.895368 -3.110645
  S     6.712538  8.845359 -1.884193
