16  
    
  C     5.682500  6.217421 -4.176492
  C     6.819643  5.600951 -3.589472
  C     5.923489  9.625658 -4.195450
  C     7.171469  9.139117 -3.655517
  N     7.807502  5.450937 -4.452769
  N     5.811277  6.520992 -5.472642
  N     5.063797  5.629509 -1.777226
  N     8.102290  8.867862 -4.544542
  N     5.927997  9.678327 -5.504824
  N     5.554222  9.608722 -1.655032
  S     7.297600  5.902673 -5.949806
  S     4.387737  6.422241 -3.068993
  S     6.739307  5.330595 -1.880782
  S     7.369161  9.182586 -6.039115
  S     4.636408  9.825086 -3.012859
  S     6.955451  8.783846 -1.928785
