16  
    
  C     5.654570  5.869253 -4.189523
  C     6.715539  5.134715 -3.556637
  C     5.742761  9.570851 -4.476116
  C     6.928540  9.036937 -3.851358
  N     7.721998  4.946215 -4.390009
  N     5.861111  6.240830 -5.462792
  N     5.020009  5.502384 -1.646789
  N     7.864085  8.721452 -4.764510
  N     5.760685  9.699357 -5.790511
  N     5.172799  9.281990 -2.005681
  S     7.282247  5.495892 -5.866503
  S     4.353315  6.267319 -3.023528
  S     6.580627  4.811794 -1.854834
  S     7.285490  9.092079 -6.255337
  S     4.478825  9.832723 -3.399293
  S     6.799056  8.824734 -2.082061
