16  
    
  C     5.802443  5.757285 -3.938103
  C     6.924656  4.994326 -3.439384
  C     5.596863  9.623754 -4.143608
  C     6.823304  9.028157 -3.684321
  N     7.882415  4.848285 -4.352081
  N     6.035328  6.426940 -5.069830
  N     5.158896  5.041020 -1.536106
  N     7.829801  8.906158 -4.566117
  N     5.750938 10.115675 -5.357708
  N     5.184360  8.901748 -1.640519
  S     7.399020  5.830834 -5.691716
  S     4.432570  5.758065 -2.840259
  S     6.715076  4.604974 -1.800555
  S     7.279861  9.753794 -5.896930
  S     4.306335  9.628106 -2.907591
  S     6.756876  8.503604 -2.015362
