16  
    
  C     5.501226  5.954196 -4.434506
  C     6.716604  5.528370 -3.787251
  C     5.633575  9.315793 -4.219434
  C     6.892205  9.046440 -3.553514
  N     7.710211  5.179001 -4.600425
  N     5.613702  5.899857 -5.751438
  N     4.904181  5.820720 -1.996298
  N     7.954839  9.035687 -4.346967
  N     5.785694  9.456324 -5.505207
  N     5.130632  9.545903 -1.657389
  S     7.179765  5.489531 -6.141881
  S     4.162003  6.370062 -3.381927
  S     6.467939  5.397461 -2.106125
  S     7.356835  9.354047 -5.905288
  S     4.357320  9.713395 -3.108419
  S     6.665579  8.910325 -1.801123
