16  
    
  C     5.602971  5.569361 -4.430209
  C     6.837183  5.360637 -3.723221
  C     5.702269  9.367205 -4.071514
  C     6.913066  8.838110 -3.501381
  N     7.909118  5.124147 -4.467143
  N     5.676507  5.488488 -5.752509
  N     5.054268  5.716426 -1.886495
  N     7.917090  8.771448 -4.368251
  N     5.792978  9.854283 -5.284967
  N     5.202637  9.026121 -1.630675
  S     7.319288  5.254949 -6.066188
  S     4.321386  5.859346 -3.315415
  S     6.665612  5.277628 -1.962757
  S     7.361161  9.503096 -5.772934
  S     4.422181  9.653419 -2.961033
  S     6.779715  8.594429 -1.805723
