16  
    
  C     5.718060  5.832039 -4.310434
  C     6.872767  5.199557 -3.752723
  C     5.552862  9.376102 -4.344531
  C     6.673836  8.734547 -3.674501
  N     7.831058  4.925685 -4.609187
  N     5.847414  6.048695 -5.612509
  N     5.206287  5.617608 -1.831843
  N     7.706846  8.448915 -4.446484
  N     5.796108  9.726457 -5.573892
  N     4.862099  9.234396 -1.900860
  S     7.314396  5.422095 -6.114798
  S     4.409519  6.085722 -3.223840
  S     6.739748  5.113660 -2.037278
  S     7.283475  9.086930 -5.977701
  S     4.236033  9.836450 -3.328008
  S     6.452796  8.686273 -1.971140
