16  
    
  C     5.695880  5.889331 -4.134177
  C     6.889723  5.252176 -3.666544
  C     5.735215  9.257167 -4.056830
  C     6.949788  8.869673 -3.400147
  N     7.861373  5.096720 -4.589217
  N     5.779585  6.219918 -5.424291
  N     5.218257  5.206960 -1.696482
  N     7.989730  8.767451 -4.217964
  N     5.848991  9.448517 -5.378031
  N     5.366927  8.854997 -1.508571
  S     7.206777  5.573535 -6.014286
  S     4.425764  5.991824 -2.946637
  S     6.847462  4.809278 -1.942170
  S     7.421232  9.200708 -5.688781
  S     4.465845  9.236249 -2.858604
  S     6.970062  8.526676 -1.754881
