16  
    
  C     5.640278  5.510246 -4.380789
  C     6.861170  5.250629 -3.679181
  C     5.603992  9.614576 -4.235566
  C     6.789423  9.098343 -3.600977
  N     7.917856  4.988055 -4.413344
  N     5.730588  5.441152 -5.671791
  N     5.015567  5.641363 -1.900447
  N     7.788035  8.793038 -4.431162
  N     5.733808  9.846760 -5.535440
  N     5.008230  9.161437 -1.770456
  S     7.323844  5.027724 -5.985184
  S     4.293706  5.710254 -3.394973
  S     6.592520  5.285742 -1.982221
  S     7.325372  9.227332 -5.954939
  S     4.180122  9.569429 -3.168459
  S     6.573702  8.745708 -1.951909
