16  
    
  C     5.627748  5.617323 -4.439001
  C     6.802246  5.145922 -3.750998
  C     5.442625  9.969387 -4.478959
  C     6.601288  9.385155 -3.896433
  N     7.848649  4.952063 -4.557586
  N     5.752408  5.917759 -5.742771
  N     5.026923  5.486755 -1.932898
  N     7.562439  9.055373 -4.769026
  N     5.471034 10.114790 -5.796186
  N     4.941693  9.433119 -1.951858
  S     7.279069  5.411363 -6.051497
  S     4.248480  5.842505 -3.346910
  S     6.592957  5.007353 -1.968210
  S     6.926390  9.513129 -6.254996
  S     4.208977 10.058169 -3.318057
  S     6.526879  9.028652 -2.185742
