16  
    
  C     5.398835  6.023881 -4.172516
  C     6.683627  5.588096 -3.582836
  C     5.570167  9.669665 -4.364305
  C     6.837447  9.260451 -3.738396
  N     7.623993  5.474261 -4.501928
  N     5.459346  6.256644 -5.470350
  N     5.008170  5.735990 -1.689034
  N     7.875362  9.012835 -4.517060
  N     5.715362  9.734123 -5.679999
  N     4.981304  9.530168 -1.924477
  S     6.985082  5.858176 -5.992500
  S     4.127870  6.125666 -3.007964
  S     6.595029  5.296910 -1.939826
  S     7.314789  9.227403 -6.060360
  S     4.184125  9.853448 -3.380209
  S     6.577889  9.107184 -1.981171
