16  
    
  C     5.525538  5.867129 -4.462135
  C     6.714928  5.537183 -3.844008
  C     5.419215  9.396363 -4.352269
  C     6.696075  9.028006 -3.808993
  N     7.765407  5.412786 -4.640655
  N     5.608497  5.962638 -5.781468
  N     5.083018  5.697015 -1.879506
  N     7.656392  8.959981 -4.725456
  N     5.486276  9.735780 -5.654062
  N     5.089404  9.429621 -1.793169
  S     7.204151  5.621786 -6.208868
  S     4.223266  5.932476 -3.316222
  S     6.725540  5.474170 -2.116825
  S     7.069487  9.419293 -6.149448
  S     4.213424  9.816535 -3.137516
  S     6.700558  9.128800 -2.019548
