16  
    
  C     5.420213  5.281718 -4.349527
  C     6.673702  5.053148 -3.662183
  C     5.681509  9.320777 -4.207108
  C     6.847893  8.743851 -3.583653
  N     7.756856  5.022571 -4.432809
  N     5.582423  5.512164 -5.669601
  N     4.931090  5.346605 -1.714283
  N     7.790683  8.400162 -4.458646
  N     5.836971  9.587431 -5.515180
  N     5.215743  9.163315 -1.668972
  S     7.164425  5.253774 -5.991774
  S     4.145884  5.417883 -3.119461
  S     6.526488  4.890630 -1.914088
  S     7.354297  8.973274 -5.922127
  S     4.356392  9.454870 -3.070289
  S     6.705271  8.453253 -1.838187
