16  
    
  C     5.325084  6.007598 -4.484831
  C     6.447955  5.542361 -3.749947
  C     5.355831  9.638543 -4.243660
  C     6.583236  9.236756 -3.492619
  N     7.539660  5.290829 -4.463880
  N     5.465520  6.024919 -5.830077
  N     4.607257  6.038879 -1.959728
  N     7.626151  9.195562 -4.250222
  N     5.492819  9.842237 -5.536446
  N     4.705202  9.346868 -1.726792
  S     7.041549  5.611193 -6.057595
  S     3.964697  6.453592 -3.447093
  S     6.165965  5.522701 -2.039522
  S     7.133868  9.511444 -5.828034
  S     4.011257  9.778080 -3.142042
  S     6.341503  8.850886 -1.811188
