16  
    
  C     5.248273  6.149316 -4.389483
  C     6.454372  5.587518 -3.740841
  C     5.411666  9.849524 -4.349895
  C     6.665705  9.390268 -3.778822
  N     7.478565  5.326656 -4.552093
  N     5.437592  6.319132 -5.710492
  N     4.741005  5.942301 -1.811327
  N     7.695738  9.173194 -4.635187
  N     5.493025  9.901967 -5.695954
  N     4.966133  9.357520 -1.866597
  S     6.910520  5.769247 -6.087897
  S     3.918721  6.472628 -3.252022
  S     6.265790  5.249000 -2.050650
  S     7.037971  9.529939 -6.138683
  S     4.218553 10.018005 -3.195294
  S     6.594796  9.029567 -2.055792
