16  
    
  C     5.545423  5.733696 -4.434285
  C     6.829648  5.469526 -3.874098
  C     5.506036  9.556946 -4.384816
  C     6.759108  9.133308 -3.783863
  N     7.884889  5.345529 -4.713631
  N     5.571519  5.928214 -5.758921
  N     5.185248  5.632720 -1.895558
  N     7.772956  9.075087 -4.612989
  N     5.529750  9.710015 -5.736923
  N     5.244107  9.354465 -1.729919
  S     7.147063  5.618180 -6.176403
  S     4.265100  5.962757 -3.227689
  S     6.790085  5.418188 -2.073398
  S     7.140720  9.534841 -6.135355
  S     4.298547  9.716050 -3.083558
  S     6.816666  8.941171 -2.086380
