16  
    
  C     5.569577  5.695575 -4.352150
  C     6.810722  5.364906 -3.764405
  C     5.550009  9.490772 -4.299573
  C     6.816704  9.083167 -3.703900
  N     7.911413  5.445539 -4.542091
  N     5.654625  5.995031 -5.658654
  N     5.068053  5.317563 -1.867348
  N     7.774780  9.026681 -4.579177
  N     5.517499  9.658608 -5.616507
  N     5.089477  9.482643 -1.765587
  S     7.252271  5.792721 -6.026226
  S     4.283034  5.689862 -3.242086
  S     6.676686  5.020780 -2.063279
  S     7.125832  9.382997 -6.083356
  S     4.273530  9.697157 -3.188592
  S     6.706294  9.006594 -1.939728
