16  
    
  C     5.410888  5.705872 -4.254347
  C     6.603689  5.329679 -3.643815
  C     5.403311  9.275347 -4.182145
  C     6.701047  8.950736 -3.658201
  N     7.615192  5.192835 -4.487201
  N     5.454139  5.721056 -5.583888
  N     4.886687  5.617173 -1.769092
  N     7.744561  8.843305 -4.507745
  N     5.473081  9.438461 -5.529567
  N     5.014891  9.379898 -1.771091
  S     7.068530  5.564968 -5.998220
  S     4.035428  6.007964 -3.169523
  S     6.488777  5.188794 -1.927530
  S     7.041671  9.140803 -5.964149
  S     4.119502  9.597951 -3.142356
  S     6.516247  8.694836 -1.913382
