16  
    
  C     5.622960  6.142088 -4.383497
  C     6.770060  5.557198 -3.834815
  C     5.552242  9.571745 -4.231631
  C     6.767430  9.090380 -3.679934
  N     7.729186  5.265424 -4.685127
  N     5.685774  6.392727 -5.687457
  N     5.056673  5.686472 -1.877643
  N     7.769980  8.932746 -4.550460
  N     5.636621  9.899677 -5.545620
  N     5.111712  9.364998 -1.797201
  S     7.164205  5.869486 -6.137912
  S     4.284545  6.332577 -3.214658
  S     6.657458  5.280399 -2.070725
  S     7.144876  9.439399 -6.056258
  S     4.200137  9.660642 -3.114316
  S     6.732675  8.937603 -1.940477
