16  
    
  C     5.446228  5.751669 -4.191541
  C     6.622686  5.090079 -3.587547
  C     5.579743  9.389789 -4.144785
  C     6.760645  8.873110 -3.535090
  N     7.627865  4.866004 -4.455631
  N     5.590236  5.865074 -5.506482
  N     4.869896  5.294551 -1.693742
  N     7.805233  8.813410 -4.380110
  N     5.706736  9.674420 -5.444297
  N     4.975571  9.092536 -1.637029
  S     7.165896  5.446762 -5.878755
  S     4.097488  6.029869 -3.063134
  S     6.457062  4.858820 -1.888346
  S     7.237517  9.232564 -5.849718
  S     4.203286  9.430694 -3.086231
  S     6.550387  8.714463 -1.822201
