16  
    
  C     5.531766  5.924286 -4.363614
  C     6.798233  5.516166 -3.718254
  C     5.735705  9.456936 -4.441574
  C     6.995516  9.109806 -3.761028
  N     7.857325  5.414456 -4.473583
  N     5.704637  6.017601 -5.701935
  N     4.973160  5.602875 -1.864651
  N     8.062923  8.967451 -4.534902
  N     5.941166  9.678592 -5.715884
  N     5.188969  9.340433 -1.904902
  S     7.307558  5.729225 -6.060689
  S     4.232847  6.108042 -3.251881
  S     6.634541  5.270737 -1.979094
  S     7.514676  9.321054 -6.065006
  S     4.409018  9.510975 -3.400253
  S     6.811625  9.097994 -2.021104
