16  
    
  C     5.722402  5.738078 -4.321786
  C     6.926691  5.173288 -3.687452
  C     5.488515  9.418611 -4.491155
  C     6.573081  8.791480 -3.766015
  N     7.928505  4.942228 -4.533793
  N     5.855608  5.918803 -5.628218
  N     5.211291  5.433326 -1.797640
  N     7.588770  8.425938 -4.528458
  N     5.728024  9.680900 -5.803753
  N     4.821250  9.178294 -1.975665
  S     7.395183  5.394341 -6.037001
  S     4.455758  6.033855 -3.192722
  S     6.824427  5.028887 -1.926132
  S     7.274206  9.093177 -6.089357
  S     4.126777  9.663828 -3.383619
  S     6.385212  8.625062 -2.056216
