16  
    
  C     5.575970  5.403095 -4.112474
  C     6.811327  5.093619 -3.457581
  C     5.759894  9.244182 -3.993589
  C     7.005362  8.884831 -3.340751
  N     7.835648  5.043020 -4.306404
  N     5.601230  5.532790 -5.438797
  N     5.068625  5.270928 -1.546574
  N     8.006177  8.747053 -4.199603
  N     5.757727  9.281212 -5.307058
  N     5.263034  9.166733 -1.478674
  S     7.226094  5.122519 -5.852292
  S     4.309576  5.574426 -2.986031
  S     6.682988  5.084404 -1.715039
  S     7.382363  9.057051 -5.721694
  S     4.516948  9.607438 -2.925945
  S     6.930792  8.776422 -1.571673
