16  
    
  C     5.591998  5.554575 -3.996866
  C     6.859870  5.167463 -3.403678
  C     5.842035  9.386015 -3.878923
  C     7.114526  9.098195 -3.259972
  N     7.834632  4.894497 -4.238726
  N     5.638208  5.605355 -5.320889
  N     5.196104  5.474913 -1.517928
  N     8.127234  8.887238 -4.085340
  N     5.885951  9.406521 -5.226819
  N     5.320609  9.134700 -1.372073
  S     7.240034  5.230574 -5.743716
  S     4.285815  5.712505 -2.911730
  S     6.797247  5.013577 -1.706923
  S     7.492706  8.955998 -5.625592
  S     4.482247  9.534750 -2.735222
  S     6.955454  8.870831 -1.571432
