16  
    
  C     5.608952  5.870693 -4.496223
  C     6.883664  5.480699 -3.825244
  C     5.068499  9.602611 -4.427115
  C     6.255998  9.144787 -3.738889
  N     7.876987  5.273056 -4.708704
  N     5.665875  5.911351 -5.843784
  N     5.018053  5.723923 -1.936697
  N     7.326159  8.738710 -4.436411
  N     5.302087  9.602991 -5.726662
  N     4.594718  9.917350 -1.954659
  S     7.233236  5.575058 -6.197595
  S     4.212631  5.840339 -3.408859
  S     6.668833  5.318193 -2.106924
  S     6.790826  9.027172 -6.012430
  S     3.782730 10.100576 -3.363750
  S     6.112325  9.191197 -2.046141
