16  
    
  C     5.636320  6.053610 -4.499969
  C     6.835489  5.583717 -3.810932
  C     5.597784  9.701351 -4.404170
  C     6.772107  9.151850 -3.762165
  N     7.855132  5.370042 -4.686382
  N     5.812043  6.338502 -5.778993
  N     4.940753  5.870102 -2.016879
  N     7.842476  9.056291 -4.567176
  N     5.760435 10.043102 -5.680060
  N     4.875687  9.351526 -1.995134
  S     7.343146  5.830212 -6.128727
  S     4.263769  6.182322 -3.498175
  S     6.584716  5.469250 -2.109330
  S     7.290128  9.532483 -6.066291
  S     4.207034  9.888877 -3.447866
  S     6.479191  8.951936 -1.940867
