16  
    
  C     5.322925  5.519232 -4.343164
  C     6.489703  4.964134 -3.717329
  C     5.489877  9.203159 -4.405422
  C     6.583590  8.466389 -3.785011
  N     7.525119  4.784029 -4.534444
  N     5.503594  5.814259 -5.627629
  N     4.565547  5.163207 -1.905282
  N     7.587329  8.207640 -4.580725
  N     5.727526  9.601675 -5.664127
  N     4.944560  8.911237 -1.896492
  S     7.071871  5.224692 -6.071038
  S     4.024205  5.939601 -3.261558
  S     6.184202  4.673586 -1.949308
  S     7.268800  9.006055 -6.030688
  S     4.132396  9.346721 -3.269702
  S     6.318011  8.055306 -2.142555
