16  
    
  C     5.616203  5.535182 -4.058412
  C     6.879720  5.222868 -3.414975
  C     5.832642  9.313225 -3.898430
  C     7.114305  9.045625 -3.296107
  N     7.876800  4.877848 -4.255070
  N     5.713022  5.538568 -5.387551
  N     5.124694  5.407528 -1.518042
  N     8.134179  8.868968 -4.165887
  N     5.884611  9.345735 -5.199244
  N     5.308411  9.121926 -1.398923
  S     7.234758  5.181119 -5.800063
  S     4.210802  5.659001 -2.873824
  S     6.779274  5.041013 -1.696113
  S     7.432323  8.976606 -5.671242
  S     4.515012  9.582077 -2.777923
  S     6.893622  8.867818 -1.561990
