16  
    
  C     5.565329  6.260603 -4.471919
  C     6.745238  5.810837 -3.742453
  C     5.642329  9.609258 -4.423733
  C     6.790241  9.170911 -3.730075
  N     7.780376  5.482163 -4.493986
  N     5.667469  6.336145 -5.778994
  N     4.871777  6.074707 -1.918494
  N     7.806846  8.949667 -4.543252
  N     5.775238  9.727979 -5.736358
  N     5.078380  9.581851 -1.878218
  S     7.221354  5.846795 -6.088904
  S     4.236506  6.520171 -3.363461
  S     6.499203  5.797399 -2.014624
  S     7.275643  9.255065 -6.122904
  S     4.303920  9.862733 -3.379580
  S     6.634465  9.106972 -2.012874
