16  
    
  C     5.181042  6.234008 -4.363196
  C     6.222975  5.511559 -3.618597
  C     5.668806  9.617507 -4.174906
  C     6.906415  9.098847 -3.597159
  N     7.298039  5.158735 -4.330616
  N     5.453219  6.435845 -5.654774
  N     4.435986  6.265529 -1.826719
  N     7.968859  8.949168 -4.442515
  N     5.821431  9.780562 -5.507874
  N     5.261561  9.396903 -1.701852
  S     6.933936  5.798276 -5.885830
  S     3.808226  6.774628 -3.280240
  S     5.874477  5.398496 -1.895305
  S     7.354672  9.365353 -5.998603
  S     4.433243  9.982001 -3.049094
  S     6.767582  8.820773 -1.851914
