16  
    
  C     5.540458  6.180829 -4.352673
  C     6.744367  5.591094 -3.872486
  C     5.471497  9.757816 -4.255632
  C     6.620231  9.120685 -3.634874
  N     7.657632  5.377800 -4.822256
  N     5.549971  6.516778 -5.631786
  N     5.077615  5.574270 -1.935797
  N     7.598915  8.915873 -4.465394
  N     5.621512 10.061040 -5.536628
  N     4.984093  9.831817 -1.694407
  S     7.068038  6.009233 -6.209556
  S     4.288087  6.393026 -3.248711
  S     6.687873  5.250217 -2.208846
  S     7.128890  9.451337 -5.923506
  S     4.152292 10.094743 -3.103586
  S     6.463745  9.063221 -1.973772
