16  
    
  C     5.703798  5.874912 -4.447152
  C     6.926175  5.475258 -3.863201
  C     5.530998  9.455935 -4.278274
  C     6.805337  9.224485 -3.667533
  N     7.866948  5.175132 -4.710991
  N     5.758843  5.953011 -5.766560
  N     5.099021  5.474245 -2.006669
  N     7.832275  9.225087 -4.543383
  N     5.587195  9.706860 -5.612774
  N     5.149876  9.076935 -1.704183
  S     7.320040  5.557451 -6.246114
  S     4.350246  6.026984 -3.359073
  S     6.736566  5.286249 -2.170878
  S     7.257086  9.584390 -6.010922
  S     4.244397  9.332851 -3.118256
  S     6.772643  8.751243 -1.969730
