16  
    
  C     5.586968  6.162737 -4.385908
  C     6.764512  5.667687 -3.680754
  C     5.386359  9.595801 -4.243758
  C     6.683261  9.285634 -3.674434
  N     7.812496  5.302211 -4.436603
  N     5.796247  6.281543 -5.699461
  N     4.802185  5.840552 -1.974744
  N     7.711419  9.314172 -4.485255
  N     5.500677  9.897640 -5.507165
  N     4.874968  9.549710 -1.741858
  S     7.309542  5.774867 -5.961190
  S     4.112721  6.372361 -3.385372
  S     6.522689  5.600451 -1.920759
  S     7.020865  9.664817 -6.001989
  S     4.065636  9.603986 -3.203204
  S     6.503013  9.024582 -1.903249
