16  
    
  C     5.840673  6.085906 -4.363261
  C     6.997352  5.547236 -3.672728
  C     5.718143  9.482132 -4.371769
  C     6.910212  8.959027 -3.764806
  N     8.056085  5.359769 -4.450312
  N     6.110066  6.349899 -5.625617
  N     5.090782  5.672628 -1.966921
  N     7.936892  8.698997 -4.592782
  N     5.908850  9.672897 -5.660099
  N     5.169544  9.279076 -1.901768
  S     7.610341  5.744808 -6.021708
  S     4.419027  6.099846 -3.457093
  S     6.710403  5.386153 -2.004104
  S     7.454043  9.250674 -6.044711
  S     4.399352  9.882329 -3.263877
  S     6.763939  8.923361 -2.079063
