16  
    
  C     5.403628  6.014300 -4.456771
  C     6.658445  5.511338 -3.813676
  C     5.342694  9.556326 -4.540900
  C     6.548808  9.041322 -3.938305
  N     7.547791  5.221887 -4.736287
  N     5.410339  5.990987 -5.789969
  N     4.991525  5.724705 -1.906174
  N     7.561342  8.703898 -4.759864
  N     5.536867  9.774155 -5.853199
  N     4.786837  9.519177 -2.022902
  S     6.913989  5.490200 -6.244839
  S     4.119843  6.003545 -3.249628
  S     6.585247  5.261803 -2.080295
  S     7.052149  9.162458 -6.252349
  S     4.055141  9.895354 -3.510496
  S     6.424969  9.257924 -2.138726
