16  
    
  C     5.543335  5.705418 -4.414789
  C     6.847484  5.457218 -3.778314
  C     5.509192  9.502525 -4.216670
  C     6.775233  9.113168 -3.680896
  N     7.858375  5.438282 -4.630634
  N     5.652125  5.885718 -5.728036
  N     5.096908  5.360742 -1.869829
  N     7.763421  8.986532 -4.599656
  N     5.586239  9.776892 -5.514744
  N     5.065557  9.421848 -1.734775
  S     7.271817  5.864556 -6.098053
  S     4.197699  5.578241 -3.281734
  S     6.727993  5.053308 -2.144743
  S     7.082581  9.472759 -6.031804
  S     4.170877  9.653431 -3.137580
  S     6.626653  9.049574 -1.934248
