16  
    
  C     5.544299  5.696652 -4.348160
  C     6.826718  5.339343 -3.737087
  C     5.540001  9.484329 -4.330938
  C     6.796241  9.100299 -3.704803
  N     7.916119  5.438889 -4.509838
  N     5.654003  6.024371 -5.632456
  N     5.077837  5.309314 -1.866278
  N     7.798308  9.028929 -4.562135
  N     5.532598  9.628680 -5.655584
  N     5.104183  9.478890 -1.776415
  S     7.253831  5.776196 -6.028762
  S     4.288527  5.725215 -3.242221
  S     6.673641  5.008531 -2.025741
  S     7.132318  9.359574 -6.096772
  S     4.292953  9.713874 -3.192971
  S     6.729512  8.992814 -1.946443
