16  
    
  C     5.219338  6.417242 -4.672069
  C     6.441623  5.941287 -4.036344
  C     5.647807  9.716699 -4.443776
  C     6.872700  9.312995 -3.779108
  N     7.484668  5.705467 -4.855424
  N     5.330400  6.430219 -6.010892
  N     4.832210  6.421900 -2.203515
  N     7.925245  9.174442 -4.569714
  N     5.871296  9.942473 -5.732547
  N     5.212975  9.488531 -1.853520
  S     6.882723  6.053968 -6.430242
  S     3.935988  6.691104 -3.553757
  S     6.415855  5.941300 -2.337489
  S     7.439294  9.470268 -6.113740
  S     4.391639  9.935858 -3.222296
  S     6.930105  9.167924 -2.010373
