16  
    
  C     5.734799  5.457575 -3.950066
  C     7.009619  5.124340 -3.326460
  C     5.468414  9.365038 -4.223466
  C     6.571069  8.748572 -3.491329
  N     8.044203  4.955885 -4.178136
  N     5.824339  5.574460 -5.283785
  N     5.298157  5.132387 -1.422515
  N     7.628445  8.494904 -4.247530
  N     5.719728  9.560938 -5.511321
  N     4.815276  9.345457 -1.749792
  S     7.396421  5.280308 -5.680342
  S     4.445419  5.468486 -2.802496
  S     6.886779  4.885010 -1.631218
  S     7.171245  8.969380 -5.812303
  S     4.085864  9.758057 -3.210179
  S     6.220542  8.419903 -1.813586
