16  
    
  C     5.353212  6.042380 -4.360707
  C     6.531550  5.497658 -3.814597
  C     5.531464  9.132956 -4.446070
  C     6.729201  8.859014 -3.750499
  N     7.518442  5.403208 -4.707713
  N     5.371518  6.271021 -5.651975
  N     4.908454  5.748391 -1.914818
  N     7.771151  8.852730 -4.567059
  N     5.623417  9.525703 -5.736347
  N     4.880141  9.153851 -1.965136
  S     6.962564  5.876827 -6.126462
  S     4.065935  6.259272 -3.218589
  S     6.549817  5.359985 -2.056930
  S     7.221043  9.166542 -6.087428
  S     4.131623  9.173375 -3.361624
  S     6.532797  8.800255 -2.024629
