16  
    
  C     5.676921  5.411189 -4.160229
  C     6.882287  4.898211 -3.508238
  C     5.406835  9.250264 -4.660401
  C     6.613205  8.842436 -3.984378
  N     7.899748  4.754555 -4.317325
  N     5.906150  5.675465 -5.435512
  N     5.072477  5.136430 -1.694377
  N     7.639937  8.665366 -4.841029
  N     5.542007  9.461994 -5.970568
  N     4.840261  9.131442 -2.174284
  S     7.467842  5.299216 -5.841711
  S     4.342554  5.457526 -3.113286
  S     6.692685  4.786744 -1.808936
  S     7.144754  9.007601 -6.322427
  S     4.108307  9.746752 -3.557196
  S     6.439189  8.819160 -2.296921
