16  
    
  C     5.850123  5.528076 -4.011408
  C     7.125871  5.136584 -3.375447
  C     5.499280  9.393304 -4.236215
  C     6.611706  8.757639 -3.557894
  N     8.067130  5.022032 -4.325195
  N     5.820789  5.669486 -5.349625
  N     5.376637  5.199144 -1.508386
  N     7.657352  8.467064 -4.338218
  N     5.615925  9.475020 -5.539362
  N     4.731907  9.246174 -1.755001
  S     7.392135  5.385845 -5.835821
  S     4.516397  5.548511 -2.895998
  S     7.073026  4.857003 -1.652357
  S     7.185728  8.841587 -5.899323
  S     4.188070  9.805371 -3.239701
  S     6.182578  8.431476 -1.850024
