16  
    
  C     5.454910  6.020220 -4.222560
  C     6.618106  5.297513 -3.657296
  C     5.750713  9.866160 -4.458952
  C     6.764292  9.072696 -3.800269
  N     7.552770  4.933762 -4.554696
  N     5.591523  6.323823 -5.526374
  N     4.977639  5.889081 -1.661357
  N     7.817100  8.892191 -4.581602
  N     6.041036 10.288511 -5.699487
  N     4.687511  9.161868 -2.248811
  S     7.031531  5.651253 -5.936337
  S     4.178291  6.233247 -3.083603
  S     6.467897  5.070004 -1.909722
  S     7.485367  9.686675 -6.059604
  S     4.205367  9.948024 -3.612631
  S     6.297603  8.742055 -2.162006
