16  
    
  C     5.148306  6.274339 -4.485038
  C     6.417511  6.026922 -3.843459
  C     5.470430  9.703721 -4.235588
  C     6.733025  9.328725 -3.679333
  N     7.427047  5.947316 -4.715373
  N     5.275555  6.535438 -5.814466
  N     4.619404  5.947608 -2.038298
  N     7.688869  9.247281 -4.614787
  N     5.439166  9.889194 -5.570294
  N     5.069163  9.280868 -1.685057
  S     6.871455  6.360783 -6.260526
  S     3.800897  6.369187 -3.396730
  S     6.271702  5.882664 -2.102801
  S     6.999822  9.744072 -6.033644
  S     4.147819  9.588773 -3.102935
  S     6.706886  8.943943 -1.936060
