16  
    
  C     5.244547  6.386059 -4.709796
  C     6.461296  6.008367 -4.055850
  C     5.821098  9.728412 -4.303997
  C     7.072366  9.293083 -3.772588
  N     7.480229  5.762220 -4.857060
  N     5.312131  6.540885 -6.005469
  N     4.720639  6.402096 -2.165292
  N     8.018923  9.096286 -4.704933
  N     5.839113  9.852140 -5.628921
  N     5.250735  9.468812 -1.879103
  S     6.824533  6.063490 -6.454393
  S     3.924863  6.663600 -3.562598
  S     6.317686  6.003241 -2.302374
  S     7.306106  9.511770 -6.161129
  S     4.506768  9.837988 -3.264966
  S     6.897029  9.115724 -2.060585
