16  
    
  C     5.636258  5.767085 -4.334507
  C     6.891894  5.425268 -3.792146
  C     5.652931  9.617843 -4.267329
  C     6.960292  9.303696 -3.750717
  N     7.836714  5.307199 -4.713774
  N     5.592639  5.799330 -5.646302
  N     5.192906  5.642908 -1.836882
  N     7.908287  9.251423 -4.678071
  N     5.647508  9.829527 -5.580997
  N     5.280172  9.196829 -1.815577
  S     7.149778  5.633309 -6.203533
  S     4.360089  5.952971 -3.226186
  S     6.847438  5.285049 -2.079682
  S     7.175202  9.530753 -6.118860
  S     4.370125  9.610438 -3.111464
  S     6.869543  8.784973 -2.112680
