16  
    
  C     5.461471  5.666562 -4.360231
  C     6.737707  5.207766 -3.788662
  C     5.699772  9.087885 -4.398053
  C     6.920006  8.795665 -3.704834
  N     7.691591  4.994690 -4.687788
  N     5.491468  5.860277 -5.703549
  N     5.079130  5.646721 -1.831783
  N     8.005241  8.589998 -4.436388
  N     5.920804  9.174773 -5.718689
  N     5.119852  9.201953 -1.856590
  S     6.985222  5.470031 -6.163369
  S     4.317794  6.171220 -3.159736
  S     6.582618  4.985607 -2.089187
  S     7.524773  8.853943 -6.011431
  S     4.316309  9.482106 -3.281949
  S     6.720624  8.736525 -1.973426
