16  
    
  C     5.639801  5.246778 -4.275406
  C     6.918857  5.020241 -3.694707
  C     5.587634  9.401009 -4.489577
  C     6.746071  8.968263 -3.751825
  N     7.893193  4.820201 -4.592110
  N     5.616046  5.334086 -5.605314
  N     5.279752  5.279165 -1.737313
  N     7.837585  8.750931 -4.463669
  N     5.856148  9.519096 -5.790688
  N     4.781063  9.106796 -2.077339
  S     7.217164  5.059411 -6.049900
  S     4.311301  5.436578 -3.118386
  S     6.875262  4.992067 -1.994424
  S     7.438146  9.100532 -6.012272
  S     4.172631  9.686458 -3.550759
  S     6.383808  8.698833 -2.090697
