16  
    
  C     5.476891  6.093069 -4.417523
  C     6.634039  5.461661 -3.851104
  C     5.362830  9.785525 -4.500051
  C     6.597740  9.330917 -3.883217
  N     7.590654  5.210349 -4.741533
  N     5.567024  6.206826 -5.721353
  N     4.879569  5.774254 -1.939461
  N     7.676097  9.195126 -4.650063
  N     5.543029 10.104819 -5.783188
  N     4.950475  9.638404 -1.956442
  S     7.100907  5.687556 -6.270728
  S     4.152495  6.363958 -3.307568
  S     6.502479  5.375219 -2.099087
  S     7.150416  9.690283 -6.133061
  S     4.076627  9.911054 -3.360971
  S     6.463287  9.045301 -2.183563
