16  
    
  C     5.451889  5.949614 -4.401069
  C     6.716015  5.406158 -3.924487
  C     5.521376  9.911108 -4.648616
  C     6.638979  9.230221 -4.091551
  N     7.634164  5.168441 -4.823735
  N     5.467872  6.196283 -5.712806
  N     5.121323  5.520867 -1.886309
  N     7.554518  8.789885 -4.949195
  N     5.554485 10.008621 -5.975287
  N     5.220965  9.772115 -2.071765
  S     6.986707  5.696194 -6.203866
  S     4.250089  6.144715 -3.184363
  S     6.705839  5.185070 -2.169183
  S     7.060309  9.355715 -6.436995
  S     4.391444 10.322903 -3.411837
  S     6.649887  9.013609 -2.364748
