16  
    
  C     5.290113  6.151690 -4.372171
  C     6.597845  5.727007 -3.747186
  C     5.478514  9.652394 -4.380091
  C     6.677223  9.192112 -3.736714
  N     7.577459  5.525537 -4.599648
  N     5.354727  6.235897 -5.679330
  N     4.810299  5.999341 -1.849332
  N     7.767674  9.028486 -4.543992
  N     5.667649  9.930671 -5.695199
  N     4.827396  9.427436 -1.962430
  S     6.977514  5.936339 -6.102594
  S     3.999060  6.309838 -3.246256
  S     6.429612  5.692412 -2.054890
  S     7.225754  9.460097 -6.030751
  S     4.088665  9.909757 -3.351922
  S     6.407746  9.132990 -2.028883
