16  
    
  C     5.706875  5.883533 -4.384170
  C     6.934350  5.406204 -3.845710
  C     5.848186  9.580732 -3.872960
  C     7.082944  8.925838 -3.496574
  N     7.953465  5.315111 -4.701473
  N     5.742101  6.096394 -5.716771
  N     5.189691  5.256996 -1.921632
  N     7.979129  8.767172 -4.451802
  N     5.765729  9.836017 -5.163679
  N     5.419614  8.837473 -1.505139
  S     7.314757  5.721731 -6.221507
  S     4.363712  5.782971 -3.263711
  S     6.824975  5.014285 -2.213543
  S     7.210256  9.277115 -5.847092
  S     4.535552  9.500562 -2.797073
  S     7.005216  8.368881 -1.841722
