16  
    
  C     5.537938  5.867457 -4.410425
  C     6.720196  5.476503 -3.606921
  C     5.748139  9.272453 -4.270138
  C     7.014826  9.047346 -3.645694
  N     7.827112  5.268535 -4.343394
  N     5.848548  6.048288 -5.711131
  N     4.721727  5.609046 -1.986162
  N     8.055451  9.157365 -4.460836
  N     5.881723  9.481269 -5.570969
  N     5.194321  8.966147 -1.765067
  S     7.384607  5.437150 -5.946957
  S     3.989445  5.936803 -3.479339
  S     6.406846  5.328925 -1.928234
  S     7.467143  9.478724 -5.933682
  S     4.406776  9.410278 -3.182872
  S     6.804378  8.790244 -1.914930
