16  
    
  C     5.540114  6.039103 -4.333846
  C     6.770435  5.672629 -3.637995
  C     5.649455  9.452791 -4.396891
  C     6.909136  9.081693 -3.718916
  N     7.770335  5.459830 -4.552157
  N     5.613386  6.161094 -5.657980
  N     4.923031  5.901674 -1.841990
  N     7.936512  9.007653 -4.549970
  N     5.765064  9.527326 -5.747220
  N     5.036699  9.330407 -1.905256
  S     7.174259  5.737672 -6.046472
  S     4.188671  6.329165 -3.258784
  S     6.577268  5.541074 -1.931306
  S     7.400673  9.365644 -6.112210
  S     4.275322  9.668325 -3.309607
  S     6.667737  8.836158 -2.020218
