16  
    
  C     5.271606  6.270117 -4.521015
  C     6.362040  5.777932 -3.741491
  C     5.417288  9.986501 -4.137017
  C     6.652162  9.640085 -3.561525
  N     7.518336  5.582492 -4.431285
  N     5.531223  6.528943 -5.796175
  N     4.493986  6.083858 -2.057384
  N     7.636021  9.701018 -4.425174
  N     5.462084 10.319994 -5.448879
  N     5.062444  9.441147 -1.634634
  S     7.082972  6.060242 -6.055315
  S     3.821908  6.560010 -3.492511
  S     6.072917  5.479208 -2.115676
  S     7.049352 10.086782 -5.877448
  S     4.118740  9.723861 -3.020582
  S     6.663772  9.331135 -1.899032
