16  
    
  C     5.371684  6.019548 -4.276964
  C     6.617085  5.470359 -3.649771
  C     5.552151  9.635798 -4.273003
  C     6.660897  9.077107 -3.586529
  N     7.583889  5.219771 -4.519970
  N     5.505249  6.279880 -5.580238
  N     4.871351  5.618495 -1.745710
  N     7.708441  8.888220 -4.407094
  N     5.669416  9.885535 -5.583541
  N     4.864628  9.361774 -1.853379
  S     6.969947  5.697343 -5.980982
  S     4.141701  6.265366 -3.053447
  S     6.479798  5.195719 -1.966346
  S     7.238331  9.458753 -5.898149
  S     4.152401  9.687976 -3.305034
  S     6.367806  8.767665 -1.886480
