16  
    
  C     5.449230  5.747677 -4.391844
  C     6.680507  5.287069 -3.769961
  C     5.784162  9.082350 -4.248336
  C     7.012422  8.849828 -3.537486
  N     7.654560  4.871664 -4.604584
  N     5.585860  5.825765 -5.705930
  N     4.970798  5.692447 -1.827625
  N     8.026164  8.628006 -4.381537
  N     5.869529  9.117822 -5.565229
  N     5.138776  9.277054 -1.781747
  S     7.131226  5.362168 -6.119479
  S     4.183790  6.010722 -3.230776
  S     6.518308  5.217901 -2.047357
  S     7.446984  8.707172 -5.901923
  S     4.391489  9.517626 -3.262153
  S     6.774112  8.908360 -1.803622
