16  
    
  C     5.177853  6.241969 -4.319066
  C     6.217540  5.560392 -3.593690
  C     5.737169  9.626839 -4.234796
  C     6.895557  9.040719 -3.598807
  N     7.194084  5.078429 -4.359222
  N     5.469011  6.446103 -5.603991
  N     4.447163  6.251627 -1.869517
  N     7.875734  8.976511 -4.439977
  N     5.750288  9.900958 -5.519967
  N     5.109863  9.401025 -1.708282
  S     6.942809  5.694505 -5.883203
  S     3.877742  6.737720 -3.311706
  S     5.875641  5.448473 -1.900149
  S     7.303450  9.389751 -5.964060
  S     4.420295  9.910252 -3.094699
  S     6.707523  8.830147 -1.813436
