16  
    
  C     5.518339  6.085399 -4.343695
  C     6.696343  5.581872 -3.663181
  C     5.643844  9.372138 -4.467740
  C     6.872044  9.102276 -3.755165
  N     7.775299  5.320268 -4.423683
  N     5.662116  6.167349 -5.657194
  N     5.011939  5.942895 -1.754736
  N     7.953237  9.125476 -4.511943
  N     5.838376  9.576420 -5.810817
  N     5.057552  9.215282 -1.923571
  S     7.227149  5.706676 -6.031553
  S     4.199961  6.247899 -3.173414
  S     6.577718  5.519129 -1.962291
  S     7.459925  9.308477 -6.072733
  S     4.294487  9.655058 -3.397237
  S     6.614031  8.852652 -2.069816
