16  
    
  C     5.334902  6.014247 -4.449411
  C     6.598311  5.601921 -3.741244
  C     5.375917  9.575050 -4.302514
  C     6.593776  9.188661 -3.627226
  N     7.689480  5.467504 -4.512371
  N     5.553611  6.263644 -5.755463
  N     4.725777  5.566308 -1.961613
  N     7.566983  9.107766 -4.475491
  N     5.412841  9.818147 -5.578046
  N     4.805418  9.442839 -1.746201
  S     7.160933  5.959849 -6.030583
  S     4.005692  5.997018 -3.382561
  S     6.359995  5.339346 -2.023078
  S     6.971328  9.456270 -6.036036
  S     4.098043  9.697008 -3.193064
  S     6.451509  9.100966 -1.879172
