16  
    
  C     5.493581  5.847501 -4.351248
  C     6.707042  5.306051 -3.785550
  C     5.729632  9.287783 -4.403597
  C     6.940390  8.898145 -3.709911
  N     7.685509  4.978304 -4.626486
  N     5.625431  6.075964 -5.666841
  N     5.041461  5.396780 -1.875813
  N     7.888811  8.564355 -4.547306
  N     5.810276  9.404744 -5.729914
  N     5.064310  9.061657 -1.909823
  S     7.010579  5.332709 -6.127973
  S     4.267862  6.156977 -3.128761
  S     6.653679  4.917650 -2.059903
  S     7.330870  8.923600 -6.096154
  S     4.347472  9.389562 -3.373266
  S     6.709360  8.702116 -2.012639
