16  
    
  C     5.449475  5.969958 -4.413793
  C     6.697442  5.505262 -3.841609
  C     5.678489  9.773310 -4.590762
  C     6.816563  9.102189 -3.959718
  N     7.621423  5.230577 -4.799780
  N     5.460004  6.245614 -5.710517
  N     5.024233  5.639048 -1.865460
  N     7.751169  8.881570 -4.842003
  N     5.713850  9.961146 -5.908120
  N     5.205579  9.670799 -1.997279
  S     6.997079  5.718895 -6.191652
  S     4.166206  6.208123 -3.182279
  S     6.596240  5.341935 -2.087569
  S     7.191366  9.329718 -6.369967
  S     4.463662 10.266819 -3.406793
  S     6.668214  8.906033 -2.270689
