16  
    
  C     5.496780  5.853411 -4.332958
  C     6.732283  5.261722 -3.759891
  C     5.716608  9.313576 -4.376749
  C     6.936763  8.904605 -3.728576
  N     7.681222  4.956964 -4.621122
  N     5.634535  6.112484 -5.648902
  N     5.050392  5.368537 -1.887611
  N     7.911193  8.552632 -4.556436
  N     5.795708  9.420663 -5.701363
  N     5.061765  9.066772 -1.932716
  S     7.017092  5.321881 -6.098178
  S     4.271133  6.136727 -3.147632
  S     6.641249  4.938577 -2.065046
  S     7.309151  8.942253 -6.127615
  S     4.327942  9.392228 -3.366293
  S     6.703555  8.695669 -2.005296
