16  
    
  C     5.494790  6.055355 -4.430039
  C     6.647925  5.438392 -3.860746
  C     5.347716  9.815967 -4.539343
  C     6.556355  9.352049 -3.918751
  N     7.616579  5.230734 -4.744605
  N     5.550007  6.216862 -5.763138
  N     4.938770  5.776186 -1.980460
  N     7.617911  9.166995 -4.659863
  N     5.554146 10.095629 -5.794164
  N     4.898646  9.674235 -2.000053
  S     7.122405  5.672715 -6.264810
  S     4.159506  6.366620 -3.301204
  S     6.551162  5.378366 -2.103980
  S     7.191160  9.710981 -6.122514
  S     4.067266  9.908685 -3.361435
  S     6.475254  9.035095 -2.170719
