16  
    
  C     5.534890  6.385625 -4.525244
  C     6.666357  5.865369 -3.865404
  C     5.624620  9.829900 -4.430990
  C     6.858609  9.484634 -3.766288
  N     7.725334  5.511515 -4.664034
  N     5.678575  6.506510 -5.866590
  N     4.881686  6.223955 -2.012054
  N     7.935073  9.189862 -4.490811
  N     5.834651  9.818680 -5.741839
  N     5.093834  9.764727 -1.856408
  S     7.193592  5.879406 -6.170667
  S     4.223499  6.724510 -3.407603
  S     6.475247  5.878851 -2.084637
  S     7.432234  9.515577 -6.047016
  S     4.274464  9.913543 -3.362525
  S     6.671371  9.350270 -2.098528
