16  
    
  C     5.531611  5.847465 -4.138744
  C     6.504866  4.916497 -3.540733
  C     5.665688  9.498935 -4.601290
  C     6.761932  8.818790 -3.928557
  N     7.466502  4.637302 -4.424385
  N     5.740021  6.184521 -5.437715
  N     5.079048  5.703113 -1.585789
  N     7.822101  8.590371 -4.690685
  N     5.897661  9.684165 -5.884485
  N     5.145182  9.367289 -2.019902
  S     7.063721  5.265690 -5.924876
  S     4.396977  6.450714 -2.922644
  S     6.361302  4.615522 -1.853147
  S     7.413672  9.197117 -6.194811
  S     4.406368  9.864312 -3.430663
  S     6.639132  8.611325 -2.183664
