16  
    
  C     5.727741  5.679526 -4.197623
  C     6.837503  5.032777 -3.538562
  C     5.398398  9.315225 -4.223833
  C     6.515678  8.607395 -3.644305
  N     7.811556  4.729282 -4.402796
  N     5.778664  5.780020 -5.521994
  N     4.971366  5.458495 -1.761128
  N     7.517245  8.314414 -4.463484
  N     5.561566  9.488318 -5.519751
  N     4.864225  9.131428 -1.692222
  S     7.320426  5.260019 -5.941967
  S     4.319890  5.973904 -3.177531
  S     6.574854  4.903527 -1.819739
  S     6.985751  8.783653 -5.998504
  S     4.109959  9.566656 -3.098165
  S     6.418383  8.488547 -1.924386
