16  
    
  C     5.578672  5.231252 -4.232019
  C     6.885446  5.178172 -3.695726
  C     5.448630  9.256224 -4.528603
  C     6.637709  8.810856 -3.819276
  N     7.832576  5.103653 -4.617401
  N     5.467503  5.043094 -5.556663
  N     5.220090  5.211137 -1.707443
  N     7.735396  8.677740 -4.564114
  N     5.664416  9.348682 -5.829329
  N     4.744843  9.140517 -2.061224
  S     7.015881  5.100827 -6.100444
  S     4.322313  5.324765 -3.043964
  S     6.865748  4.994139 -1.967731
  S     7.241398  8.914694 -6.092914
  S     4.085152  9.596890 -3.524531
  S     6.379974  8.679850 -2.092156
