16  
    
  C     5.412254  5.282592 -4.372527
  C     6.655310  5.050762 -3.663680
  C     5.681800  9.336338 -4.218797
  C     6.840205  8.750667 -3.588152
  N     7.740133  5.028113 -4.438140
  N     5.580178  5.550075 -5.686200
  N     4.931529  5.353233 -1.717543
  N     7.778009  8.377324 -4.470438
  N     5.851214  9.592540 -5.513996
  N     5.188601  9.138786 -1.700787
  S     7.156185  5.249020 -5.995323
  S     4.147632  5.409006 -3.128122
  S     6.508928  4.874990 -1.924683
  S     7.337053  8.972233 -5.933684
  S     4.356892  9.453696 -3.092874
  S     6.701552  8.428565 -1.840983
