16  
    
  C     5.491522  5.666810 -4.238514
  C     6.632022  5.302904 -3.466987
  C     5.839033  8.954683 -3.995150
  C     7.085397  8.497168 -3.392724
  N     7.688325  4.949636 -4.233243
  N     5.608949  5.471307 -5.557647
  N     4.836653  5.780624 -1.769420
  N     8.103896  8.512350 -4.210872
  N     5.875173  9.187931 -5.305048
  N     5.320358  8.454369 -1.487001
  S     7.181133  5.100830 -5.817802
  S     4.060601  5.976094 -3.278243
  S     6.333845  5.061928 -1.739784
  S     7.443511  8.981707 -5.724193
  S     4.607302  9.119723 -2.810081
  S     6.993505  8.240344 -1.624703
