16  
    
  C     5.441962  6.058708 -4.247533
  C     6.706644  5.438278 -3.652099
  C     5.338777  9.542943 -4.380677
  C     6.561773  9.069169 -3.755588
  N     7.649673  5.177924 -4.559601
  N     5.607803  6.426863 -5.518892
  N     4.940000  5.567994 -1.737751
  N     7.638563  9.017089 -4.530489
  N     5.518732  9.845936 -5.688321
  N     4.930018  9.173703 -1.863174
  S     7.067385  5.925438 -5.972554
  S     4.165694  6.174907 -3.081134
  S     6.565531  5.138969 -1.894254
  S     7.122615  9.441489 -6.059378
  S     4.091869  9.614258 -3.220412
  S     6.504359  8.865013 -2.046287
