16  
    
  C     5.543098  6.428962 -4.543723
  C     6.665683  5.850601 -3.861245
  C     5.643362  9.794359 -4.436253
  C     6.855777  9.472505 -3.773536
  N     7.722017  5.535176 -4.632294
  N     5.673527  6.482797 -5.867988
  N     4.881532  6.224468 -2.023714
  N     7.925465  9.236788 -4.491399
  N     5.870972  9.845180 -5.723897
  N     5.076758  9.784783 -1.874834
  S     7.153954  5.872795 -6.212269
  S     4.218153  6.730828 -3.415738
  S     6.479320  5.877735 -2.114192
  S     7.427729  9.488847 -6.044176
  S     4.292522  9.923126 -3.346576
  S     6.675508  9.337885 -2.096810
