16  
    
  C     5.359193  5.916208 -4.308218
  C     6.647567  5.422556 -3.690296
  C     5.391020  9.407896 -4.407493
  C     6.656201  9.062125 -3.796578
  N     7.674240  5.363425 -4.541576
  N     5.485302  6.207732 -5.605511
  N     4.902460  5.572054 -1.804912
  N     7.651862  8.824916 -4.684460
  N     5.479836  9.592727 -5.723285
  N     4.997406  9.693445 -1.867387
  S     7.019996  5.827600 -5.991084
  S     4.041125  6.060898 -3.129589
  S     6.516445  5.376065 -1.960829
  S     7.061183  9.245456 -6.183249
  S     4.102294  9.654848 -3.267220
  S     6.614351  9.235440 -2.035860
