16  
    
  C     5.545848  5.305103 -4.155891
  C     6.812921  5.125901 -3.514699
  C     5.696418  9.155913 -4.081212
  C     6.933159  8.769235 -3.436786
  N     7.857101  4.980731 -4.347732
  N     5.612975  5.389147 -5.478766
  N     5.026395  5.240574 -1.683097
  N     7.958512  8.638299 -4.285171
  N     5.831301  9.362035 -5.376835
  N     5.297195  9.240396 -1.546683
  S     7.148602  5.209042 -5.860181
  S     4.219596  5.526691 -3.102864
  S     6.696553  5.039457 -1.773115
  S     7.380606  9.050553 -5.770614
  S     4.419584  9.577105 -2.913437
  S     6.845416  8.689066 -1.729798
