16  
    
  C     5.538265  5.931663 -4.462409
  C     6.641964  5.453507 -3.678952
  C     5.805794  9.300613 -4.274464
  C     7.044986  8.991178 -3.620645
  N     7.760980  5.245873 -4.361078
  N     5.854960  6.118389 -5.749412
  N     4.685236  5.592190 -2.042367
  N     8.074344  9.076908 -4.488665
  N     5.858481  9.541354 -5.589688
  N     5.141240  8.982329 -1.792203
  S     7.385907  5.521321 -5.921804
  S     4.053557  5.999273 -3.504098
  S     6.328598  5.302143 -1.949980
  S     7.464763  9.473009 -5.966998
  S     4.429656  9.426576 -3.219551
  S     6.823035  8.810977 -1.883661
