16  
    
  C     5.324519  5.883119 -4.477576
  C     6.573570  5.518607 -3.866388
  C     5.212923  9.896898 -4.695485
  C     6.493459  9.559904 -4.065157
  N     7.654657  5.559023 -4.708273
  N     5.434048  6.072705 -5.801786
  N     4.948202  5.650876 -1.922618
  N     7.623691  9.558999 -4.783358
  N     5.442161 10.092339 -6.011961
  N     4.666808  9.604689 -2.150399
  S     7.082563  5.904309 -6.146770
  S     4.061001  5.905773 -3.303866
  S     6.510810  5.145074 -2.170691
  S     7.046536  9.967250 -6.276530
  S     3.931357 10.067749 -3.577167
  S     6.351577  9.240002 -2.367807
