16  
    
  C     5.529898  6.087612 -4.714313
  C     6.702241  5.575568 -3.987165
  C     5.653786  9.833587 -4.362735
  C     6.834272  9.249306 -3.770362
  N     7.801508  5.422771 -4.710167
  N     5.814478  6.334428 -5.968959
  N     4.748660  5.737402 -2.251289
  N     7.872403  8.997380 -4.572376
  N     5.829476 10.197044 -5.643951
  N     4.950244  9.253298 -2.002917
  S     7.388062  5.955893 -6.241025
  S     4.039092  6.295231 -3.717616
  S     6.384379  5.307538 -2.320624
  S     7.360557  9.613370 -6.076237
  S     4.215175  9.740412 -3.418524
  S     6.519503  8.848328 -2.102146
