16  
    
  C     5.634458  5.759383 -4.311098
  C     6.899195  5.231572 -3.759533
  C     5.636435  9.830020 -4.524639
  C     6.895350  9.363612 -3.930805
  N     7.806723  5.039214 -4.727322
  N     5.749765  6.062907 -5.612006
  N     5.231832  5.532841 -1.777315
  N     7.957444  9.274260 -4.694104
  N     5.819405 10.105080 -5.808569
  N     4.919104  8.992035 -2.195596
  S     7.222457  5.582485 -6.153044
  S     4.348664  5.954788 -3.143256
  S     6.804543  4.954787 -2.104885
  S     7.436060  9.755109 -6.152128
  S     4.230833  9.512024 -3.626494
  S     6.587385  8.898752 -2.226710
