16  
    
  C     5.649172  6.113363 -4.194170
  C     6.845150  5.574445 -3.593572
  C     5.814657  9.545645 -4.288482
  C     7.038106  9.097011 -3.633503
  N     7.892140  5.332516 -4.417627
  N     5.728447  6.278519 -5.543147
  N     5.029742  5.737601 -1.738448
  N     8.037558  9.000324 -4.465764
  N     5.881012  9.721474 -5.582956
  N     5.559940  9.705650 -1.684237
  S     7.269946  5.839533 -5.882161
  S     4.404035  6.570817 -3.041260
  S     6.611347  5.337620 -1.855170
  S     7.456481  9.278143 -5.993294
  S     4.639167  9.948415 -3.025170
  S     7.020466  8.839483 -1.911404
