16  
    
  C     5.525757  6.089877 -4.319888
  C     6.730759  5.610303 -3.736568
  C     5.629375  9.380890 -4.461744
  C     6.861717  9.103999 -3.796491
  N     7.754590  5.380186 -4.500688
  N     5.652054  6.156651 -5.645239
  N     5.001208  5.916878 -1.759346
  N     7.998581  9.087162 -4.511042
  N     5.787969  9.560898 -5.772082
  N     5.027191  9.252826 -1.907301
  S     7.222947  5.708521 -6.020840
  S     4.192119  6.275739 -3.196185
  S     6.558326  5.534929 -1.944463
  S     7.451532  9.329626 -6.096765
  S     4.281996  9.666181 -3.365270
  S     6.633183  8.836802 -2.040544
