16  
    
  C     5.717015  5.705847 -4.303400
  C     6.930604  5.287444 -3.750556
  C     5.749408  9.662297 -4.454064
  C     6.972855  9.126607 -3.907854
  N     7.957387  5.278340 -4.594557
  N     5.682630  6.126261 -5.587762
  N     5.310650  5.179857 -1.735459
  N     8.034299  9.206286 -4.657801
  N     5.904855 10.023116 -5.718143
  N     5.227377  9.307967 -1.935451
  S     7.270037  5.775714 -6.050807
  S     4.456564  5.634611 -3.099070
  S     6.876265  4.712661 -2.094424
  S     7.513632  9.814918 -6.095163
  S     4.512293  9.872881 -3.336028
  S     6.795739  8.735212 -2.135680
