16  
    
  C     5.812920  5.787662 -3.998227
  C     6.900842  4.976187 -3.441855
  C     5.636470  9.642098 -4.178426
  C     6.831273  8.994204 -3.738550
  N     7.931939  4.868258 -4.278563
  N     6.065612  6.255872 -5.230504
  N     5.181469  5.117304 -1.566361
  N     7.846414  9.049620 -4.601292
  N     5.700148 10.108320 -5.402904
  N     5.175855  8.920795 -1.781647
  S     7.593351  5.637147 -5.647656
  S     4.385443  5.776569 -2.933512
  S     6.751685  4.591118 -1.766405
  S     7.263854  9.821701 -5.909695
  S     4.397404  9.663619 -3.028077
  S     6.730875  8.462516 -2.057693
