16  
    
  C     5.204335  6.319283 -4.505028
  C     6.456675  5.994287 -3.855787
  C     5.503472  9.682994 -4.248034
  C     6.818453  9.335617 -3.692652
  N     7.460892  5.987195 -4.737653
  N     5.261664  6.537563 -5.817966
  N     4.647850  5.940279 -2.007473
  N     7.745441  9.246152 -4.627830
  N     5.431957  9.885938 -5.549058
  N     5.003708  9.301424 -1.720443
  S     6.904451  6.328036 -6.198701
  S     3.832724  6.379323 -3.399510
  S     6.277548  5.905393 -2.082013
  S     7.015585  9.751395 -6.065619
  S     4.158746  9.617106 -3.113584
  S     6.698985  8.956827 -1.975781
