16  
    
  C     5.513316  5.973056 -4.467836
  C     6.672183  5.439792 -3.774906
  C     5.687961  9.462265 -4.225466
  C     6.900757  9.095882 -3.548278
  N     7.727839  5.081080 -4.557038
  N     5.627399  6.060087 -5.801325
  N     4.861085  5.867068 -1.971316
  N     7.960291  9.118009 -4.342675
  N     5.787863  9.589884 -5.563672
  N     5.164962  9.485543 -1.720952
  S     7.151415  5.459666 -6.053902
  S     4.180982  6.409082 -3.383684
  S     6.486318  5.423268 -2.051174
  S     7.405338  9.288216 -5.922742
  S     4.363069  9.782956 -3.131966
  S     6.717827  8.964242 -1.795249
