16  
    
  C     5.600521  5.652250 -4.418589
  C     6.887069  5.394340 -3.784289
  C     5.231886  9.694673 -4.443612
  C     6.426379  9.147562 -3.833835
  N     7.883134  5.269553 -4.632431
  N     5.681945  5.745014 -5.733884
  N     5.200255  5.557072 -1.900651
  N     7.403974  9.020753 -4.691909
  N     5.243491  9.833953 -5.788390
  N     4.928947  9.706359 -1.811200
  S     7.265587  5.402111 -6.197078
  S     4.374299  5.903836 -3.270950
  S     6.814800  5.119597 -2.084466
  S     6.891513  9.398751 -6.180087
  S     4.123153 10.120269 -3.173703
  S     6.437283  9.075498 -2.111036
