16  
    
  C     5.274674  6.023973 -4.498762
  C     6.449787  5.483892 -3.711083
  C     5.367061  9.609002 -4.154250
  C     6.580383  9.238101 -3.503842
  N     7.552405  5.269678 -4.449783
  N     5.460790  6.014704 -5.825051
  N     4.575459  6.074795 -1.991318
  N     7.687843  9.124795 -4.271448
  N     5.542166  9.806737 -5.450505
  N     4.709822  9.369152 -1.707899
  S     7.009640  5.555668 -6.032131
  S     3.956809  6.553636 -3.441997
  S     6.165200  5.531324 -2.032659
  S     7.135073  9.554109 -5.839879
  S     3.986536  9.783892 -3.188475
  S     6.343714  8.803735 -1.800046
