16  
    
  C     5.198648  5.286410 -3.975203
  C     6.389375  4.951783 -3.332497
  C     5.329226  9.426392 -4.247861
  C     6.558778  9.129332 -3.549741
  N     7.457465  4.723263 -4.112047
  N     5.335948  5.323386 -5.296055
  N     4.594982  5.153988 -1.494977
  N     7.580079  8.971318 -4.359022
  N     5.465230  9.423004 -5.601499
  N     4.770630  9.228628 -1.697425
  S     6.948424  5.126509 -5.610048
  S     3.837628  5.285210 -2.988477
  S     6.217547  4.711156 -1.589368
  S     7.016544  9.032944 -5.902472
  S     3.981768  9.653417 -3.110582
  S     6.400163  8.846860 -1.843399
