16  
    
  C     5.192488  5.565984 -4.149290
  C     6.375427  4.838205 -3.599035
  C     5.534361  9.531250 -4.418539
  C     6.710690  9.037826 -3.754566
  N     7.365376  4.511945 -4.452628
  N     5.366249  5.783058 -5.452284
  N     4.707700  5.324694 -1.641825
  N     7.752731  8.729510 -4.518051
  N     5.694299  9.648939 -5.757312
  N     4.947378  9.220185 -1.911245
  S     6.780776  5.009507 -5.970553
  S     3.971115  5.967523 -3.025680
  S     6.268425  4.644836 -1.848070
  S     7.198475  9.096408 -6.074140
  S     4.180204  9.707953 -3.293459
  S     6.581617  8.914886 -2.082005
