16  
    
  C     5.700230  5.987504 -4.388814
  C     6.832314  5.491344 -3.685597
  C     5.905868  9.510813 -4.295287
  C     7.049550  8.986142 -3.631932
  N     7.899747  5.457978 -4.457902
  N     5.912592  6.261307 -5.669792
  N     5.102590  5.828816 -1.871457
  N     8.054123  8.672266 -4.480683
  N     6.055957  9.654005 -5.611394
  N     5.229619  9.330310 -1.798281
  S     7.541853  5.952044 -6.010025
  S     4.347162  6.167924 -3.321197
  S     6.646029  5.172042 -1.972286
  S     7.486681  9.009498 -6.009702
  S     4.527837  9.707726 -3.257322
  S     6.772197  8.787156 -1.897808
