16  
    
  C     5.453880  6.148934 -4.439942
  C     6.741802  5.681275 -3.972081
  C     5.516156  9.930711 -4.363169
  C     6.604844  9.267282 -3.729487
  N     7.633721  5.387023 -4.870545
  N     5.492403  6.358274 -5.745946
  N     5.227054  5.789591 -1.939367
  N     7.677725  9.069511 -4.521319
  N     5.653527 10.160975 -5.688166
  N     4.816520  9.546344 -1.880070
  S     6.960004  5.894224 -6.315102
  S     4.303851  6.371490 -3.153105
  S     6.799333  5.279293 -2.295154
  S     7.129028  9.496705 -6.043730
  S     4.152538 10.246460 -3.255689
  S     6.364912  9.030673 -2.093871
