16  
    
  C     5.535631  5.853014 -4.372189
  C     6.791006  5.308535 -3.903591
  C     5.422343  9.883861 -4.582015
  C     6.622861  9.221307 -4.067575
  N     7.766418  5.213247 -4.815505
  N     5.528707  6.040251 -5.724385
  N     5.176322  5.563084 -1.830267
  N     7.555370  8.866956 -4.958702
  N     5.522000 10.072706 -5.875694
  N     5.020109  9.834342 -2.128303
  S     7.055499  5.641206 -6.254919
  S     4.299710  6.116954 -3.181062
  S     6.707837  4.974067 -2.129701
  S     6.880709  9.294663 -6.459954
  S     4.210010 10.369637 -3.477508
  S     6.465978  9.070753 -2.312722
