16  
    
  C     5.787329  5.761381 -3.947612
  C     6.886927  4.984866 -3.487398
  C     5.629813  9.639308 -4.146021
  C     6.845350  8.993166 -3.682173
  N     7.937916  4.848318 -4.312061
  N     6.050240  6.403815 -5.077832
  N     5.148551  5.096522 -1.576142
  N     7.832217  8.919615 -4.556159
  N     5.720453 10.113689 -5.398327
  N     5.173822  8.918493 -1.681239
  S     7.468478  5.757278 -5.692282
  S     4.422010  5.747665 -2.848563
  S     6.728776  4.606201 -1.789752
  S     7.276140  9.800533 -5.911161
  S     4.337943  9.628088 -2.934723
  S     6.746001  8.499819 -2.056499
