16  
    
  C     5.458565  5.660129 -4.215151
  C     6.648368  5.282645 -3.470294
  C     5.863336  8.977484 -3.980831
  C     7.091893  8.508649 -3.388587
  N     7.677419  4.945058 -4.251397
  N     5.627319  5.500618 -5.525379
  N     4.847178  5.793825 -1.786224
  N     8.091318  8.515488 -4.235208
  N     5.909634  9.220556 -5.304558
  N     5.326735  8.398179 -1.500250
  S     7.188237  5.124054 -5.825507
  S     4.070060  6.006475 -3.272885
  S     6.342085  5.067834 -1.763139
  S     7.464067  8.996817 -5.715398
  S     4.599322  9.110534 -2.793949
  S     7.009279  8.275246 -1.638877
