16  
    
  C     5.513643  5.894383 -4.420971
  C     6.771003  5.609923 -3.743026
  C     5.577594  9.040331 -4.137969
  C     6.861724  8.698290 -3.548569
  N     7.843929  5.517067 -4.561513
  N     5.626844  6.050005 -5.729402
  N     4.917401  5.742604 -1.932848
  N     7.927060  8.754487 -4.312720
  N     5.732193  9.297712 -5.431445
  N     5.132903  8.808382 -1.638425
  S     7.226687  5.805577 -6.065053
  S     4.081740  5.861449 -3.420241
  S     6.542194  5.422235 -2.059530
  S     7.284157  9.119086 -5.849882
  S     4.279352  9.070570 -3.004953
  S     6.776270  8.535215 -1.788618
