16  
    
  C     5.603286  6.112415 -4.470493
  C     6.791736  5.764435 -3.756855
  C     5.528689  9.607689 -4.451225
  C     6.710849  9.182130 -3.718575
  N     7.915666  5.602055 -4.455120
  N     5.738633  6.147218 -5.771212
  N     4.941917  5.995047 -1.947713
  N     7.794589  9.086145 -4.468792
  N     5.788820  9.775715 -5.740274
  N     4.993242  9.547735 -1.901112
  S     7.331897  5.801060 -6.099360
  S     4.226244  6.463786 -3.404831
  S     6.546476  5.616790 -2.017759
  S     7.334765  9.318813 -6.069804
  S     4.187809  9.897990 -3.416758
  S     6.534876  8.969069 -2.010432
