16  
    
  C     5.624791  5.428232 -4.422794
  C     6.869789  5.098814 -3.730033
  C     5.456530  9.366226 -4.493228
  C     6.637600  8.947271 -3.775028
  N     7.994930  4.959053 -4.453908
  N     5.820645  5.540592 -5.738674
  N     5.111472  5.473016 -1.878485
  N     7.697346  8.764492 -4.559994
  N     5.573235  9.339207 -5.810072
  N     4.827865  9.250818 -1.906493
  S     7.408789  5.221643 -5.996286
  S     4.324378  5.516249 -3.330898
  S     6.732581  5.058057 -2.017166
  S     7.142597  9.018463 -6.147688
  S     4.153180  9.830507 -3.336026
  S     6.429804  8.831829 -2.089009
