16  
    
  C     5.566113  5.915816 -4.488039
  C     6.688426  5.312995 -3.798018
  C     5.473748  9.665230 -4.212365
  C     6.670426  9.089735 -3.634780
  N     7.732968  4.991525 -4.524323
  N     5.756241  6.140657 -5.801723
  N     4.840491  5.649332 -2.025514
  N     7.661648  9.021036 -4.505734
  N     5.591592 10.029128 -5.502037
  N     5.099124  9.258010 -1.691223
  S     7.279222  5.548662 -6.077918
  S     4.194272  6.136351 -3.468245
  S     6.446590  5.120880 -2.097601
  S     7.077672  9.408343 -5.994159
  S     4.266256  9.751586 -2.925863
  S     6.698634  8.758363 -2.003386
