16  
    
  C     5.757597  5.481167 -4.219640
  C     6.953825  5.049474 -3.540107
  C     5.423946  9.360917 -4.643377
  C     6.620268  8.951784 -3.927169
  N     8.048189  4.938180 -4.319194
  N     5.900567  5.645623 -5.536786
  N     5.104638  5.247815 -1.764281
  N     7.627018  8.767094 -4.741804
  N     5.529388  9.364859 -5.992953
  N     4.821057  9.129591 -2.072180
  S     7.485530  5.301644 -5.859171
  S     4.382388  5.713425 -3.174648
  S     6.706263  4.710145 -1.824100
  S     7.151177  9.044283 -6.257619
  S     4.113245  9.713553 -3.531979
  S     6.398404  8.630943 -2.221625
