16  
    
  C     5.521617  5.228086 -4.154945
  C     6.812706  5.115974 -3.554557
  C     5.421355  9.266915 -4.422500
  C     6.623196  8.778851 -3.811604
  N     7.810837  4.879926 -4.428029
  N     5.561238  5.340786 -5.478565
  N     5.026315  5.246238 -1.649938
  N     7.541821  8.409461 -4.711109
  N     5.483343  9.421803 -5.731325
  N     4.880678  9.106628 -1.945157
  S     7.169042  5.137400 -5.900896
  S     4.148745  5.107446 -3.022642
  S     6.748036  5.074623 -1.821184
  S     6.945856  8.813484 -6.162557
  S     4.117668  9.565328 -3.317732
  S     6.466156  8.624040 -2.107909
