16  
    
  C     5.628614  5.685680 -4.447537
  C     6.906431  5.308563 -3.788285
  C     5.305962  9.731049 -4.401149
  C     6.586778  9.253760 -3.880443
  N     7.935386  5.143186 -4.639932
  N     5.703832  5.723401 -5.794091
  N     5.149943  5.432374 -1.882113
  N     7.565638  9.039730 -4.756233
  N     5.384738  9.914000 -5.706849
  N     4.975797  9.715580 -1.832630
  S     7.284643  5.412663 -6.128842
  S     4.312306  5.909425 -3.248236
  S     6.738429  5.118556 -2.071987
  S     6.844501  9.441706 -6.261468
  S     4.102627 10.126751 -3.215622
  S     6.468592  9.040396 -2.116626
