16  
    
  C     5.390443  5.940471 -4.346335
  C     6.661689  5.595410 -3.806813
  C     5.615287  9.390642 -4.470814
  C     6.841921  9.073906 -3.766577
  N     7.624562  5.469540 -4.687393
  N     5.447537  6.159000 -5.649076
  N     4.967961  5.908013 -1.808296
  N     7.850876  8.939873 -4.628199
  N     5.623479  9.471031 -5.784476
  N     4.876953  9.079674 -2.008384
  S     6.968113  5.877233 -6.176145
  S     4.178611  6.270191 -3.201042
  S     6.541858  5.407507 -2.089843
  S     7.229956  9.263912 -6.161898
  S     4.154379  9.233227 -3.475337
  S     6.575925  8.789069 -2.072447
