16  
    
  C     5.270497  6.297484 -4.304134
  C     6.190308  5.505055 -3.595050
  C     5.633386  9.659009 -4.182131
  C     6.823490  9.110853 -3.579295
  N     7.175153  5.053665 -4.359803
  N     5.486703  6.443365 -5.601016
  N     4.460818  6.213426 -1.881869
  N     7.835116  8.892978 -4.459674
  N     5.789483  9.942938 -5.478562
  N     5.046375  9.400959 -1.665808
  S     6.909796  5.580113 -5.875794
  S     3.886208  6.739697 -3.380654
  S     5.938212  5.480581 -1.889212
  S     7.263325  9.430814 -5.909290
  S     4.363351  9.821821 -3.146417
  S     6.620696  8.854466 -1.856136
