16  
    
  C     5.432590  6.028497 -4.376399
  C     6.652135  5.567512 -3.772439
  C     5.784967  9.754513 -4.481184
  C     6.930556  9.134664 -3.807514
  N     7.604336  5.408397 -4.630885
  N     5.473933  6.155825 -5.700435
  N     4.955736  5.848206 -1.859381
  N     7.881663  8.844056 -4.729047
  N     5.826473  9.873257 -5.820160
  N     5.095944  9.597943 -1.975956
  S     7.022725  5.744166 -6.117865
  S     4.116201  6.301387 -3.271891
  S     6.531495  5.333915 -2.045290
  S     7.294057  9.314326 -6.219199
  S     4.429693 10.127773 -3.400242
  S     6.624755  8.826875 -2.120738
