16  
    
  C     5.541188  5.950651 -4.418829
  C     6.762952  5.542247 -3.719382
  C     5.767853  9.446751 -4.382938
  C     7.013515  9.145419 -3.742547
  N     7.872175  5.451367 -4.434297
  N     5.690670  6.007545 -5.698216
  N     4.966345  5.545921 -1.917877
  N     8.025538  8.954011 -4.560133
  N     5.949740  9.629708 -5.709305
  N     5.188252  9.361895 -1.924677
  S     7.298432  5.742328 -6.082120
  S     4.218141  6.101261 -3.263106
  S     6.662679  5.255385 -2.018235
  S     7.525106  9.339320 -6.052236
  S     4.390306  9.515746 -3.358512
  S     6.871751  9.081065 -2.024642
