16  
    
  C     5.648947  5.579472 -4.276825
  C     6.964420  5.228378 -3.693468
  C     5.820586  9.802546 -4.368190
  C     6.975073  9.174491 -3.789350
  N     8.022983  5.268475 -4.517622
  N     5.742878  6.005989 -5.539280
  N     5.230079  5.254540 -1.716632
  N     7.926791  8.975322 -4.664508
  N     5.904783 10.068829 -5.696289
  N     5.155402  9.089475 -1.896072
  S     7.346388  5.770168 -6.007272
  S     4.353693  5.674954 -3.086295
  S     6.900451  4.963724 -1.941651
  S     7.412751  9.518909 -6.142068
  S     4.406802  9.663070 -3.292006
  S     6.786909  8.803635 -2.140849
