16  
    
  C     5.453712  5.850796 -4.390130
  C     6.732415  5.448022 -3.808824
  C     5.380719  9.713736 -4.570382
  C     6.592056  9.250215 -3.919984
  N     7.633494  5.168106 -4.720780
  N     5.505670  5.987378 -5.692436
  N     5.032498  5.696470 -1.843308
  N     7.591417  8.862433 -4.694044
  N     5.525159  9.778533 -5.913159
  N     4.836253  9.393364 -2.129520
  S     6.999658  5.476281 -6.203494
  S     4.172027  6.015227 -3.256921
  S     6.625327  5.304604 -2.120052
  S     7.067716  9.200448 -6.241332
  S     4.018246  9.767281 -3.552958
  S     6.498093  9.204645 -2.187113
