16  
    
  C     5.599934  6.361504 -4.535192
  C     6.598799  5.567816 -3.874643
  C     5.742574  9.413564 -4.428910
  C     6.973894  9.030610 -3.774185
  N     7.703579  5.271569 -4.571820
  N     5.950096  6.665036 -5.764660
  N     4.566265  5.827547 -2.320051
  N     8.041506  9.045325 -4.547057
  N     5.888418  9.621415 -5.731950
  N     5.058502  9.208237 -1.983041
  S     7.469192  5.948959 -6.111259
  S     4.053102  6.630761 -3.663319
  S     6.067830  5.076397 -2.284727
  S     7.445159  9.479541 -6.089024
  S     4.407914  9.743554 -3.416210
  S     6.659527  8.751205 -2.067395
