16  
    
  C     5.699918  5.765801 -4.357145
  C     6.946143  5.332659 -3.772115
  C     5.695911  9.599281 -4.311735
  C     6.947402  9.112336 -3.768370
  N     7.956661  5.220062 -4.615838
  N     5.783020  5.911305 -5.670374
  N     5.243823  5.493059 -1.815156
  N     7.959068  8.973491 -4.638547
  N     5.817204  9.984364 -5.577672
  N     5.318504  8.800298 -1.884835
  S     7.352865  5.567644 -6.096824
  S     4.375393  5.905968 -3.205854
  S     6.825825  5.040511 -2.094403
  S     7.350992  9.705125 -6.060553
  S     4.439434  9.433070 -3.143512
  S     6.941970  8.741528 -2.088698
