16  
    
  C     5.520176  6.022260 -4.402978
  C     6.576971  5.398607 -3.687501
  C     5.760101  9.730074 -4.213042
  C     6.976928  9.362267 -3.583467
  N     7.559905  5.021594 -4.506564
  N     5.749864  6.206715 -5.692293
  N     4.909763  5.973714 -1.889564
  N     7.994902  9.000415 -4.363851
  N     5.899687  9.719193 -5.550801
  N     5.148383  9.337880 -1.722299
  S     7.197105  5.442817 -6.073438
  S     4.227223  6.433486 -3.349917
  S     6.467973  5.439036 -1.953895
  S     7.434433  9.232791 -5.904375
  S     4.386894  9.857230 -3.155456
  S     6.806170  9.055902 -1.892759
