16  
    
  C     5.564849  5.969668 -4.425129
  C     6.769823  5.683042 -3.719500
  C     5.632770  9.442202 -4.392510
  C     6.840696  9.127718 -3.664927
  N     7.801605  5.474692 -4.519118
  N     5.734710  6.083558 -5.731948
  N     4.840066  5.820761 -1.934063
  N     7.878062  9.071420 -4.505940
  N     5.724103  9.639074 -5.701657
  N     4.996986  9.508012 -1.872568
  S     7.356511  5.714713 -6.086544
  S     4.164330  6.214964 -3.441039
  S     6.499362  5.679011 -1.920496
  S     7.340537  9.317923 -6.050010
  S     4.212622  9.569714 -3.370889
  S     6.597118  9.077251 -1.924028
