16  
    
  C     5.475387  5.906303 -4.519766
  C     6.712868  5.551741 -3.825712
  C     5.624366  9.306692 -4.171041
  C     6.878420  9.008902 -3.514819
  N     7.752302  5.370390 -4.615797
  N     5.572687  5.866237 -5.854032
  N     4.881915  5.784305 -1.955256
  N     7.917634  8.921113 -4.364272
  N     5.664409  9.391404 -5.482580
  N     5.132463  9.473528 -1.652577
  S     7.170080  5.511957 -6.196999
  S     4.187058  6.284821 -3.388315
  S     6.513728  5.360661 -2.080648
  S     7.342812  9.344410 -5.838776
  S     4.301455  9.617988 -3.093000
  S     6.676307  8.856787 -1.808735
