16  
    
  C     5.768172  5.495761 -4.214598
  C     6.939775  5.070195 -3.541748
  C     5.433727  9.355767 -4.632065
  C     6.629470  8.960404 -3.918330
  N     8.032884  4.947535 -4.319222
  N     5.902541  5.631993 -5.530155
  N     5.108694  5.254157 -1.771345
  N     7.626364  8.769007 -4.746495
  N     5.524821  9.375608 -5.971569
  N     4.823489  9.136769 -2.073904
  S     7.488716  5.304998 -5.869332
  S     4.393573  5.727585 -3.176997
  S     6.709315  4.710750 -1.826942
  S     7.151913  9.043428 -6.248647
  S     4.113358  9.708010 -3.535786
  S     6.392500  8.620937 -2.220689
