16  
    
  C     5.603507  5.476295 -4.049808
  C     6.849377  5.045864 -3.422139
  C     5.811095  9.396731 -3.915082
  C     7.032869  9.052386 -3.237333
  N     7.870533  4.980584 -4.282891
  N     5.683226  5.742897 -5.367644
  N     5.190267  5.508630 -1.492695
  N     8.041414  8.822837 -4.054890
  N     5.920043  9.436136 -5.250918
  N     5.382630  9.160563 -1.371370
  S     7.183701  5.342087 -5.793355
  S     4.390673  5.837088 -2.884211
  S     6.765619  4.967416 -1.669792
  S     7.505270  9.061843 -5.558203
  S     4.512767  9.424222 -2.799201
  S     7.006380  8.819655 -1.529749
