16  
    
  C     5.702570  5.415311 -4.179633
  C     6.869522  4.941055 -3.526193
  C     5.440123  9.355719 -4.662905
  C     6.628415  8.821647 -4.033838
  N     7.903246  4.669437 -4.342532
  N     5.795946  5.689915 -5.507528
  N     5.112967  5.081252 -1.657508
  N     7.658599  8.553451 -4.811749
  N     5.583491  9.497609 -5.978949
  N     4.830606  9.216583 -2.171840
  S     7.393049  5.290519 -5.796268
  S     4.286474  5.362818 -3.088907
  S     6.736629  4.819941 -1.749336
  S     7.086064  9.004983 -6.344139
  S     4.131680  9.708916 -3.640067
  S     6.481233  8.870248 -2.280614
