16  
    
  C     5.660924  5.491213 -4.397797
  C     6.850306  5.190785 -3.637919
  C     5.559985  9.601639 -4.311621
  C     6.726871  9.058450 -3.673875
  N     7.865554  4.887317 -4.474258
  N     5.767856  5.375246 -5.749718
  N     4.952810  5.611965 -1.885582
  N     7.772298  8.857305 -4.450121
  N     5.733864  9.727318 -5.622692
  N     4.899073  9.092548 -1.848430
  S     7.357997  5.082487 -6.021790
  S     4.281721  5.662276 -3.406248
  S     6.628145  5.262383 -1.902018
  S     7.221481  9.173146 -5.968375
  S     4.198446  9.637093 -3.250837
  S     6.550638  8.794851 -1.975796
