16  
    
  C     5.560470  5.479171 -4.257335
  C     6.790884  5.383968 -3.566735
  C     5.266950  9.977270 -4.579931
  C     6.336939  9.252184 -4.014293
  N     7.854569  5.293886 -4.384695
  N     5.636483  5.452608 -5.574037
  N     4.993802  5.487282 -1.754110
  N     7.375071  8.956141 -4.817281
  N     5.452280 10.269012 -5.871164
  N     4.604161  9.724145 -2.167299
  S     7.232290  5.326063 -5.970797
  S     4.213813  5.638859 -3.228275
  S     6.645059  5.374983 -1.834830
  S     6.884948  9.529145 -6.304614
  S     3.996066 10.492528 -3.480990
  S     6.110648  9.149030 -2.262241
