16  
    
  C     5.162162  5.216867 -4.033680
  C     6.378725  4.830327 -3.427798
  C     5.339651  9.326993 -4.225871
  C     6.613410  9.009728 -3.619613
  N     7.468088  4.712675 -4.215148
  N     5.276702  5.433904 -5.346117
  N     4.561163  5.077448 -1.581962
  N     7.636565  8.888594 -4.429188
  N     5.388895  9.417477 -5.553012
  N     4.864738  9.366332 -1.751095
  S     6.836373  5.050469 -5.746092
  S     3.790846  5.438548 -3.014264
  S     6.149559  4.713530 -1.674760
  S     7.038735  9.108127 -5.948176
  S     4.041092  9.641180 -3.177603
  S     6.443260  8.961919 -1.921264
