16  
    
  C     5.416190  5.966678 -4.359048
  C     6.619375  5.639357 -3.662254
  C     5.302279  9.403135 -4.386010
  C     6.594244  9.094810 -3.810923
  N     7.613846  5.386577 -4.514564
  N     5.506901  6.021877 -5.691938
  N     4.774166  5.602050 -1.854527
  N     7.601805  8.989546 -4.667851
  N     5.290002  9.437274 -5.708947
  N     4.937164  9.392733 -1.899929
  S     7.074786  5.658373 -6.054475
  S     4.052618  6.076623 -3.277312
  S     6.429775  5.259729 -1.969276
  S     6.924311  9.141048 -6.139034
  S     4.095193  9.703759 -3.275762
  S     6.552677  9.136718 -2.065727
