16  
    
  C     5.440018  6.100248 -4.166570
  C     6.628270  5.385057 -3.653628
  C     5.495734  9.521882 -4.279707
  C     6.692706  9.059192 -3.679717
  N     7.550498  5.209153 -4.575853
  N     5.541544  6.353749 -5.451872
  N     4.923822  5.540438 -1.733031
  N     7.731422  8.933180 -4.558684
  N     5.638241  9.882032 -5.597500
  N     4.798956  9.278818 -1.805929
  S     7.075284  5.813062 -6.022456
  S     4.151958  6.230024 -3.052907
  S     6.538751  5.194548 -1.936256
  S     7.176601  9.466746 -6.031695
  S     4.008925  9.638309 -3.254035
  S     6.467412  8.821608 -1.984904
