16  
    
  C     5.746088  5.893152 -4.399570
  C     6.966871  5.359647 -3.929162
  C     5.689374  9.197950 -4.071237
  C     6.927670  8.585890 -3.649435
  N     7.973194  5.368573 -4.817217
  N     5.726753  6.207218 -5.712088
  N     5.276031  5.139817 -1.934169
  N     7.894863  8.619451 -4.538913
  N     5.696812  9.612439 -5.338346
  N     5.473359  8.836051 -1.466381
  S     7.279378  6.031652 -6.240295
  S     4.507707  5.795061 -3.246501
  S     6.856284  4.811533 -2.263435
  S     7.291252  9.295311 -5.930259
  S     4.535582  9.407001 -2.719076
  S     7.034079  8.389622 -1.929737
