16  
    
  C     5.775500  6.091323 -4.385701
  C     6.986666  5.567490 -3.700837
  C     5.822553  9.555426 -4.387695
  C     6.931943  8.941341 -3.677316
  N     8.060559  5.334112 -4.484935
  N     5.977615  6.318961 -5.699995
  N     5.101451  5.823995 -1.924828
  N     7.922651  8.622299 -4.493203
  N     5.947221  9.719948 -5.687001
  N     5.188651  9.329735 -1.872198
  S     7.560274  5.910606 -5.953242
  S     4.349109  6.105035 -3.379406
  S     6.671722  5.262666 -1.999055
  S     7.511404  9.092038 -6.048727
  S     4.483945  9.811900 -3.295772
  S     6.807708  8.863022 -1.946351
