16  
    
  C     5.305946  6.170532 -4.445772
  C     6.326938  5.530626 -3.716431
  C     5.423714  9.620505 -4.243902
  C     6.590358  9.083249 -3.559091
  N     7.395017  5.048346 -4.384370
  N     5.454306  6.107439 -5.792555
  N     4.476296  6.138514 -1.963364
  N     7.668747  8.967663 -4.278180
  N     5.627606  9.977915 -5.473688
  N     4.825862  9.438480 -1.695415
  S     6.926046  5.433351 -5.982805
  S     3.999390  6.735772 -3.416726
  S     6.063251  5.559039 -1.932730
  S     7.219125  9.546311 -5.816465
  S     4.116699  9.701433 -3.140923
  S     6.356851  8.806625 -1.837231
