16  
    
  C     5.623748  5.911259 -4.284803
  C     6.779537  5.393944 -3.620289
  C     5.770612  9.512649 -4.426795
  C     6.976108  9.215477 -3.764275
  N     7.836648  5.228991 -4.423568
  N     5.685635  6.120031 -5.559593
  N     5.021816  5.944636 -1.822229
  N     8.013424  8.978017 -4.559392
  N     5.942395  9.607444 -5.773804
  N     5.055098  9.242704 -1.981787
  S     7.216275  5.742245 -6.012061
  S     4.241212  6.141739 -3.256955
  S     6.623428  5.375670 -1.890792
  S     7.518418  9.296033 -6.102738
  S     4.287035  9.553838 -3.489701
  S     6.684612  8.991710 -2.017916
