16  
    
  C     5.552384  6.066378 -4.375345
  C     6.659869  5.402665 -3.707254
  C     5.829159  9.814010 -4.251467
  C     7.022849  9.374796 -3.564160
  N     7.609354  4.938830 -4.516588
  N     5.744566  6.226496 -5.704242
  N     4.907767  6.056866 -1.868121
  N     7.998955  8.963314 -4.356086
  N     5.954471  9.765520 -5.550796
  N     5.181313  9.295820 -1.756874
  S     7.198969  5.465967 -6.028046
  S     4.209310  6.449111 -3.291760
  S     6.457032  5.423118 -1.935334
  S     7.421047  9.232239 -5.913101
  S     4.410932  9.874749 -3.138240
  S     6.812996  9.093099 -1.915171
