16  
    
  C     5.219649  6.178807 -4.235783
  C     6.336482  5.570773 -3.642296
  C     5.538790  9.746047 -4.195374
  C     6.691737  9.146685 -3.656177
  N     7.330703  5.327864 -4.463430
  N     5.359766  6.378394 -5.519590
  N     4.576175  5.921453 -1.859861
  N     7.665795  8.833980 -4.539235
  N     5.563558  9.969800 -5.518092
  N     5.103888  9.777455 -1.681172
  S     6.893970  5.840455 -5.960450
  S     3.887062  6.582821 -3.237736
  S     6.138061  5.410676 -1.915205
  S     7.050675  9.428633 -5.972433
  S     4.244802  9.987769 -3.154340
  S     6.490264  8.981805 -1.843937
