16  
    
  C     5.547894  5.978244 -4.493582
  C     6.613147  5.414208 -3.694422
  C     5.794174  9.411266 -4.313020
  C     7.018862  9.035473 -3.652066
  N     7.680255  5.111400 -4.396334
  N     5.792837  6.177426 -5.785162
  N     4.597588  5.645397 -2.106204
  N     8.060894  8.930422 -4.476511
  N     5.926860  9.696124 -5.602200
  N     5.216479  9.047768 -1.857369
  S     7.430647  5.774466 -5.935151
  S     4.111288  6.216318 -3.580939
  S     6.206703  5.199127 -2.042616
  S     7.476004  9.397907 -6.004569
  S     4.417716  9.432444 -3.286672
  S     6.841143  8.835595 -1.902863
