16  
    
  C     5.631145  5.728226 -4.348747
  C     6.829107  5.071744 -3.847083
  C     5.741163  9.910844 -4.495772
  C     6.934923  9.473869 -3.805884
  N     7.864912  5.027567 -4.698454
  N     5.697620  6.162873 -5.615197
  N     5.289573  5.425402 -1.820189
  N     7.955565  9.306530 -4.600832
  N     5.911725 10.198585 -5.774852
  N     5.003440  8.922828 -2.227746
  S     7.218212  5.668892 -6.151088
  S     4.374981  5.895098 -3.137392
  S     6.843278  4.890877 -2.062819
  S     7.437096  9.757692 -6.165908
  S     4.307041  9.602339 -3.544242
  S     6.633482  8.837411 -2.222538
