16  
    
  C     5.644259  5.700898 -4.262707
  C     6.746291  5.068793 -3.613453
  C     5.422601  9.297460 -4.209308
  C     6.612868  8.739035 -3.568345
  N     7.731849  4.641806 -4.410893
  N     5.894582  5.992835 -5.537600
  N     5.009052  5.488868 -1.763473
  N     7.538192  8.298136 -4.396011
  N     5.526189  9.454933 -5.525989
  N     4.843837  9.032047 -1.717965
  S     7.320780  5.261801 -5.947844
  S     4.338895  6.054770 -3.178929
  S     6.588734  4.965395 -1.893720
  S     7.027793  8.817877 -5.917501
  S     4.098784  9.517568 -3.126846
  S     6.403231  8.523923 -1.842312
