16  
    
  C     5.884340  6.081871 -4.433513
  C     7.009782  5.550083 -3.713627
  C     5.710344  9.482293 -4.364655
  C     6.898650  8.942273 -3.768765
  N     8.086762  5.331206 -4.453652
  N     6.104734  6.323690 -5.720413
  N     5.093163  5.617469 -1.997418
  N     7.934435  8.817038 -4.590913
  N     5.815770  9.698211 -5.687152
  N     5.143842  9.272074 -1.909903
  S     7.627445  5.694102 -6.023475
  S     4.425344  6.115324 -3.455995
  S     6.730786  5.410264 -1.937244
  S     7.432713  9.293440 -6.074281
  S     4.401067  9.860367 -3.250483
  S     6.737999  8.918857 -2.077571
