16  
    
  C     5.412622  6.172931 -4.334016
  C     6.609585  5.743455 -3.614377
  C     5.617364  9.610823 -4.177012
  C     6.720072  9.089004 -3.440158
  N     7.644387  5.403533 -4.366821
  N     5.562216  6.262444 -5.647894
  N     4.618043  6.025054 -1.896469
  N     7.759218  8.863202 -4.267975
  N     5.751219  9.731440 -5.496621
  N     4.859452  9.488169 -1.714208
  S     7.150505  5.749243 -5.898592
  S     4.032574  6.506351 -3.416392
  S     6.238928  5.594488 -1.936664
  S     7.286139  9.257995 -5.834822
  S     4.216993 10.011630 -3.230351
  S     6.417950  8.996797 -1.793114
