16  
    
  C     5.648400  5.704364 -4.402171
  C     6.924004  5.388066 -3.785809
  C     5.737518  9.715510 -4.263026
  C     7.012187  9.265978 -3.759475
  N     7.935176  5.335249 -4.641792
  N     5.646424  5.896211 -5.723279
  N     5.292912  5.605742 -1.836384
  N     7.992175  9.237833 -4.686419
  N     5.717954  9.961104 -5.568342
  N     5.258738  8.923156 -1.803880
  S     7.228424  5.567578 -6.161216
  S     4.381241  5.941838 -3.174317
  S     6.853159  5.123283 -2.035459
  S     7.263254  9.577440 -6.145918
  S     4.452949  9.498209 -3.154180
  S     6.924650  8.720462 -2.033070
