16  
    
  C     5.270482  6.264720 -4.515277
  C     6.361260  5.785234 -3.735720
  C     5.411971  9.991002 -4.143393
  C     6.648152  9.642051 -3.578052
  N     7.522783  5.587047 -4.427200
  N     5.537169  6.518843 -5.789321
  N     4.488920  6.079458 -2.064809
  N     7.636826  9.714257 -4.421223
  N     5.461170 10.329673 -5.440591
  N     5.053773  9.457554 -1.646287
  S     7.080745  6.061995 -6.054682
  S     3.829606  6.575710 -3.496085
  S     6.076706  5.481078 -2.108578
  S     7.056736 10.088720 -5.883180
  S     4.111832  9.732772 -3.023238
  S     6.671596  9.339165 -1.896948
