16  
    
  C     5.610050  6.130612 -4.378191
  C     6.754035  5.554515 -3.794315
  C     5.537070  9.610027 -4.258137
  C     6.776205  9.096054 -3.682155
  N     7.693439  5.275943 -4.683062
  N     5.706198  6.445689 -5.670418
  N     5.048835  5.712303 -1.880517
  N     7.775576  8.937665 -4.566246
  N     5.631516  9.867258 -5.555663
  N     5.113426  9.345986 -1.765506
  S     7.196349  5.852422 -6.153605
  S     4.281349  6.334317 -3.218900
  S     6.665294  5.247358 -2.066897
  S     7.147457  9.429703 -6.070916
  S     4.238188  9.652660 -3.122416
  S     6.732196  8.928158 -1.908897
