16  
    
  C     5.518507  5.105627 -4.169004
  C     6.879575  5.093763 -3.690850
  C     5.401935  9.195585 -4.545357
  C     6.574625  8.760945 -3.825463
  N     7.849374  5.144862 -4.611381
  N     5.461259  5.178260 -5.499587
  N     5.214975  5.221505 -1.662577
  N     7.613252  8.461634 -4.575242
  N     5.580264  9.311218 -5.854404
  N     4.814044  9.092603 -2.028255
  S     7.034736  5.105318 -6.063138
  S     4.228953  5.247821 -3.052001
  S     6.856249  5.042536 -1.892178
  S     7.177442  8.927115 -6.138704
  S     4.079472  9.560777 -3.441221
  S     6.396997  8.739880 -2.141784
