16  
    
  C     5.389127  5.944533 -4.521970
  C     6.486630  5.396467 -3.819808
  C     5.314887  9.393830 -4.384435
  C     6.435058  8.807418 -3.707761
  N     7.534829  5.067446 -4.560540
  N     5.606140  5.951831 -5.818781
  N     4.665847  5.682383 -2.099330
  N     7.460304  8.512191 -4.505176
  N     5.508988  9.725942 -5.676722
  N     4.731375  9.493714 -1.860048
  S     7.146863  5.358649 -6.149801
  S     3.991051  6.166164 -3.538790
  S     6.245659  5.259123 -2.085256
  S     7.061162  9.093896 -6.001171
  S     3.961545  9.771933 -3.312385
  S     6.287313  8.912052 -2.058141
