16  
    
  C     5.379324  5.726774 -4.528742
  C     6.533949  5.311734 -3.796615
  C     5.324285  9.461872 -4.364405
  C     6.558181  9.125713 -3.719292
  N     7.661275  5.127940 -4.497943
  N     5.547384  5.823024 -5.857896
  N     4.720597  5.781849 -2.024735
  N     7.559798  8.912522 -4.552525
  N     5.359897  9.482106 -5.674878
  N     4.798400  9.356870 -1.877488
  S     7.191287  5.551921 -6.049580
  S     4.026263  6.148040 -3.479327
  S     6.274194  5.245531 -2.003036
  S     6.839086  9.049514 -6.077110
  S     3.989406  9.700860 -3.276889
  S     6.376595  8.902467 -2.035020
