16  
    
  C     5.622093  5.744649 -4.359360
  C     6.909325  5.432500 -3.823973
  C     5.741899  9.668637 -4.277685
  C     7.007329  9.290032 -3.719788
  N     7.881974  5.311223 -4.718134
  N     5.598088  5.820418 -5.685102
  N     5.239973  5.637308 -1.836559
  N     7.984645  9.292889 -4.635736
  N     5.701217  9.889610 -5.578443
  N     5.289115  9.095016 -1.808326
  S     7.165871  5.614212 -6.175543
  S     4.381841  5.949683 -3.208998
  S     6.851599  5.220446 -2.037633
  S     7.167694  9.537555 -6.154416
  S     4.385446  9.570615 -3.129798
  S     6.889580  8.746899 -2.083899
