16  
    
  C     5.466724  6.099394 -4.423241
  C     6.635733  5.474002 -3.847652
  C     5.379882  9.777214 -4.484005
  C     6.610489  9.318412 -3.858812
  N     7.589177  5.201078 -4.736508
  N     5.572376  6.208161 -5.716755
  N     4.867130  5.773293 -1.924841
  N     7.689271  9.205610 -4.646990
  N     5.543057 10.105623 -5.785882
  N     4.963591  9.625851 -1.942903
  S     7.087921  5.693185 -6.266503
  S     4.151474  6.363930 -3.310608
  S     6.487050  5.373266 -2.098040
  S     7.136445  9.684929 -6.140198
  S     4.077532  9.913285 -3.360553
  S     6.460178  9.048401 -2.187408
