16  
    
  C     5.254557  6.260057 -4.326113
  C     6.405868  5.705023 -3.597930
  C     5.506568  9.748619 -4.271940
  C     6.643250  9.115427 -3.530260
  N     7.401520  5.355491 -4.409860
  N     5.521391  6.418345 -5.608324
  N     4.577264  5.873171 -1.850645
  N     7.633984  8.854529 -4.326876
  N     5.688009  9.878226 -5.594532
  N     5.059089  9.742398 -1.617953
  S     7.057874  5.736557 -5.952705
  S     3.930030  6.569313 -3.278604
  S     6.184858  5.549771 -1.892461
  S     7.243569  9.282131 -5.846636
  S     4.154289 10.018676 -3.109386
  S     6.462851  8.940184 -1.838168
