16  
    
  C     5.385342  6.059641 -4.436280
  C     6.578058  5.616326 -3.689332
  C     5.675080  9.601025 -4.248062
  C     6.798930  9.073305 -3.564218
  N     7.611046  5.409267 -4.457062
  N     5.548282  6.233864 -5.741208
  N     4.723858  5.910976 -2.002863
  N     7.793102  8.858142 -4.403464
  N     5.781173  9.821865 -5.535717
  N     4.897075  9.397550 -1.783030
  S     7.099181  5.830495 -6.068397
  S     4.041981  6.455270 -3.395105
  S     6.331789  5.419665 -1.989270
  S     7.371019  9.409259 -5.938294
  S     4.213742  9.779724 -3.254553
  S     6.539071  8.904042 -1.866798
