16  
    
  C     5.274899  5.563838 -4.178771
  C     6.386642  4.839397 -3.586439
  C     5.557039  9.541440 -4.464538
  C     6.757596  9.095398 -3.758479
  N     7.353795  4.521195 -4.462200
  N     5.414370  5.875491 -5.479090
  N     4.776246  5.371841 -1.648437
  N     7.755786  8.745984 -4.544160
  N     5.662159  9.653742 -5.762552
  N     4.965370  9.161441 -1.934636
  S     6.786889  5.025957 -6.002077
  S     4.010270  6.044089 -3.013490
  S     6.279244  4.632805 -1.810259
  S     7.247484  9.083123 -6.103643
  S     4.217363  9.760458 -3.325861
  S     6.582372  8.852587 -2.063078
