16  
    
  C     5.915003  5.589246 -4.081737
  C     7.018553  5.020270 -3.389044
  C     5.638162  9.639576 -4.236188
  C     6.882538  9.078021 -3.746919
  N     8.100429  4.909577 -4.151633
  N     6.060885  5.832054 -5.382875
  N     5.079185  5.153142 -1.710224
  N     7.930941  9.142581 -4.560654
  N     5.746729 10.020175 -5.509511
  N     5.064864  8.894672 -1.873722
  S     7.679656  5.447228 -5.664757
  S     4.497857  5.833692 -3.082190
  S     6.629279  4.626014 -1.758708
  S     7.323476  9.783385 -6.008526
  S     4.349620  9.740627 -3.109247
  S     6.691660  8.443720 -2.107059
