16  
    
  C     5.528607  5.955698 -4.494535
  C     6.793175  5.631791 -3.949897
  C     5.809887  9.445647 -4.226274
  C     7.081540  9.135829 -3.645898
  N     7.786087  5.599519 -4.843151
  N     5.591341  6.255258 -5.818149
  N     5.018532  5.617667 -1.999363
  N     8.129635  9.071225 -4.462010
  N     5.814561  9.533794 -5.537353
  N     5.361852  9.204228 -1.705807
  S     7.157298  6.054230 -6.292229
  S     4.184391  5.970419 -3.427276
  S     6.631166  5.319761 -2.152151
  S     7.394433  9.285235 -6.008481
  S     4.480122  9.553428 -3.123208
  S     6.923327  8.776268 -1.893388
