16  
    
  C     5.343201  6.093653 -4.356177
  C     6.542883  5.447581 -3.766345
  C     5.403038  9.146642 -4.306935
  C     6.698845  8.911171 -3.666561
  N     7.493532  5.286408 -4.687801
  N     5.450517  6.303844 -5.639284
  N     4.762123  5.529481 -1.969811
  N     7.732666  8.765398 -4.480288
  N     5.533138  9.311099 -5.614622
  N     4.944186  9.301977 -1.846578
  S     6.994857  5.831553 -6.119732
  S     3.991505  6.193552 -3.268233
  S     6.393932  5.311967 -2.060183
  S     7.144564  9.069904 -5.989144
  S     4.047080  9.241072 -3.177590
  S     6.560412  8.749419 -1.913774
