16  
    
  C     5.419136  6.072001 -4.358279
  C     6.606563  5.515954 -3.777829
  C     5.726051  9.779428 -4.509534
  C     6.890949  9.200228 -3.926296
  N     7.651931  5.321499 -4.619948
  N     5.483660  6.155177 -5.670910
  N     4.935626  5.785898 -1.851953
  N     7.806679  8.836986 -4.796159
  N     5.766336  9.877822 -5.826515
  N     5.146078  9.635919 -2.042183
  S     6.980624  5.752646 -6.178340
  S     4.174030  6.250145 -3.255809
  S     6.567551  5.343820 -2.085823
  S     7.263359  9.332866 -6.280685
  S     4.507667 10.161557 -3.417403
  S     6.617807  8.844216 -2.129703
