16  
    
  C     5.638147  5.699230 -4.239418
  C     6.795459  5.272731 -3.461810
  C     5.531969  9.357990 -4.162980
  C     6.694027  8.806948 -3.541023
  N     7.819452  5.041921 -4.264026
  N     5.760762  5.640276 -5.560525
  N     4.931424  5.669591 -1.738058
  N     7.738400  8.701345 -4.372413
  N     5.648328  9.584727 -5.472381
  N     4.833921  8.964096 -1.744360
  S     7.395017  5.309214 -5.859207
  S     4.253088  6.071328 -3.193208
  S     6.461486  4.974806 -1.769749
  S     7.196024  9.106388 -5.850396
  S     4.208620  9.584456 -3.132282
  S     6.424549  8.567263 -1.781537
