16  
    
  C     5.637282  5.837714 -4.345737
  C     6.820520  5.486807 -3.663333
  C     5.811722  9.465714 -4.453871
  C     6.979202  9.067246 -3.744387
  N     7.828282  5.338749 -4.562227
  N     5.704149  6.063434 -5.633127
  N     5.012278  5.729204 -1.779156
  N     8.061821  9.004057 -4.496638
  N     5.911691  9.737512 -5.795049
  N     5.110842  9.306703 -1.940334
  S     7.289096  5.722645 -6.015958
  S     4.253273  6.118583 -3.245136
  S     6.576555  5.312033 -1.934103
  S     7.510491  9.291655 -6.105618
  S     4.403517  9.510953 -3.424056
  S     6.730519  9.094834 -2.020063
