16  
    
  C     5.450010  6.118546 -4.406330
  C     6.633843  5.708341 -3.610556
  C     5.582819  9.555785 -4.209938
  C     6.806603  9.072071 -3.502986
  N     7.710719  5.524058 -4.356777
  N     5.711867  6.112526 -5.718741
  N     4.683492  6.115352 -1.928008
  N     7.886573  8.896360 -4.296368
  N     5.785333  9.729596 -5.498476
  N     4.774053  9.416205 -1.828584
  S     7.276795  5.748928 -5.981841
  S     4.077862  6.448344 -3.404904
  S     6.252861  5.598962 -1.891049
  S     7.313050  9.225349 -5.830262
  S     4.203116  9.938022 -3.290365
  S     6.449168  9.025059 -1.725532
