16  
    
  C     5.484976  6.051315 -4.237743
  C     6.698936  5.468716 -3.686815
  C     5.420518  9.512389 -4.333556
  C     6.701980  9.188459 -3.783825
  N     7.769706  5.434686 -4.500148
  N     5.648960  6.394625 -5.520733
  N     4.938982  5.599562 -1.770583
  N     7.680485  9.076932 -4.691733
  N     5.407806  9.656905 -5.644954
  N     4.927251  9.174772 -1.832164
  S     7.167109  5.996423 -5.947285
  S     4.141177  6.076282 -3.120699
  S     6.507667  5.062838 -1.984421
  S     6.968361  9.453905 -6.168497
  S     4.029640  9.674585 -3.228914
  S     6.551494  8.879757 -2.050834
