16  
    
  C     5.400842  6.011040 -4.173884
  C     6.595247  5.329027 -3.634374
  C     5.661301  9.706995 -4.561655
  C     6.708406  9.063258 -3.778410
  N     7.594869  5.168499 -4.501288
  N     5.549208  6.275948 -5.476097
  N     4.990451  5.770152 -1.663752
  N     7.787677  8.857845 -4.510500
  N     5.968003 10.139259 -5.789246
  N     4.784264  9.255124 -2.105443
  S     7.035462  5.743692 -5.983718
  S     4.203135  6.320974 -3.000099
  S     6.542805  5.195120 -1.885507
  S     7.614338  9.591427 -5.961760
  S     4.221175  9.909051 -3.543861
  S     6.380938  8.823997 -2.129592
