16  
    
  C     5.582256  5.981559 -4.264762
  C     6.705988  5.307060 -3.626801
  C     5.931157  9.152355 -3.985992
  C     7.207798  8.771420 -3.414047
  N     7.697035  5.036757 -4.449563
  N     5.779792  6.206402 -5.541812
  N     4.898533  5.662629 -1.804590
  N     8.252157  8.727329 -4.292317
  N     6.000072  9.383778 -5.296138
  N     5.450171  9.000138 -1.546219
  S     7.192914  5.497224 -5.959938
  S     4.212083  6.198536 -3.203815
  S     6.490879  5.202356 -1.967246
  S     7.519363  9.192785 -5.760187
  S     4.571478  9.120835 -2.915009
  S     7.046427  8.441669 -1.685984
