16  
    
  C     5.600872  5.616838 -4.437730
  C     6.836667  5.169532 -3.723355
  C     5.430062  9.975578 -4.424839
  C     6.634178  9.358492 -3.892913
  N     7.846127  4.969881 -4.559671
  N     5.749662  5.889896 -5.744729
  N     5.042789  5.443431 -1.916126
  N     7.564204  9.058627 -4.789750
  N     5.413561 10.078701 -5.744991
  N     4.942067  9.492013 -1.942884
  S     7.286664  5.416321 -6.082621
  S     4.266766  5.856609 -3.339510
  S     6.621511  5.038544 -1.984711
  S     6.910241  9.497501 -6.259990
  S     4.197754 10.071323 -3.324348
  S     6.528510  9.025140 -2.162044
