16  
    
  C     5.587984  5.483256 -4.157159
  C     6.910326  5.285832 -3.694154
  C     5.526238  9.395105 -4.583368
  C     6.632595  8.812082 -3.855529
  N     7.839396  5.195705 -4.648873
  N     5.408948  5.560850 -5.474483
  N     5.381241  5.249170 -1.582417
  N     7.730466  8.563275 -4.535967
  N     5.773880  9.582245 -5.887512
  N     4.804082  9.309022 -2.082093
  S     6.978632  5.469330 -6.035280
  S     4.398038  5.370142 -2.858456
  S     7.043808  5.126773 -1.876633
  S     7.309106  9.041657 -6.149424
  S     4.138332  9.724191 -3.538048
  S     6.315278  8.485090 -2.194964
