16  
    
  C     5.463391  5.292779 -3.880591
  C     6.723803  4.966464 -3.199505
  C     5.400851  9.366521 -4.142556
  C     6.506014  8.725438 -3.453812
  N     7.785934  4.823789 -3.970370
  N     5.570789  5.336986 -5.193273
  N     4.837106  5.109024 -1.396397
  N     7.540856  8.548997 -4.279061
  N     5.536696  9.682485 -5.420014
  N     4.662036  9.103989 -1.730543
  S     7.188894  5.214208 -5.509024
  S     4.116927  5.281707 -2.879595
  S     6.512613  4.862127 -1.462624
  S     7.139000  9.130653 -5.789391
  S     4.004817  9.687358 -3.159386
  S     6.295403  8.739242 -1.732643
