16  
    
  C     5.634519  5.755562 -4.329024
  C     6.909435  5.331168 -3.759923
  C     5.754304  9.636060 -4.297171
  C     7.002539  9.194498 -3.736413
  N     7.925278  5.298750 -4.622775
  N     5.763237  5.896050 -5.640877
  N     5.236287  5.553502 -1.822188
  N     7.906293  9.073570 -4.670311
  N     5.778057  9.986048 -5.604480
  N     5.289309  8.829132 -1.866414
  S     7.322344  5.555604 -6.144975
  S     4.391245  5.918466 -3.188468
  S     6.851016  5.065105 -2.095575
  S     7.329893  9.659473 -6.086943
  S     4.462319  9.447413 -3.138595
  S     6.935179  8.736894 -2.065797
