16  
    
  C     5.308336  6.161520 -4.383547
  C     6.438852  5.549708 -3.742723
  C     5.454240  9.834922 -4.376587
  C     6.703072  9.424192 -3.773075
  N     7.457683  5.349794 -4.563202
  N     5.453676  6.315258 -5.682451
  N     4.775842  5.918324 -1.866241
  N     7.682872  9.182256 -4.652609
  N     5.469019  9.906850 -5.728448
  N     4.992477  9.353656 -1.861918
  S     6.918215  5.747312 -6.099443
  S     3.944256  6.458688 -3.288259
  S     6.301245  5.254623 -2.053499
  S     7.033070  9.558712 -6.166882
  S     4.196565 10.016255 -3.239102
  S     6.571006  9.017943 -2.024663
