16  
    
  C     5.530791  6.129062 -4.385787
  C     6.752153  5.592612 -3.875643
  C     5.486103  9.804476 -4.256861
  C     6.608445  9.128370 -3.684512
  N     7.619579  5.384722 -4.835389
  N     5.549846  6.533455 -5.622366
  N     5.086006  5.591817 -1.956018
  N     7.639591  8.870313 -4.510270
  N     5.597556 10.052348 -5.540805
  N     4.957919  9.862832 -1.734042
  S     7.030870  6.005697 -6.247500
  S     4.336051  6.375874 -3.221511
  S     6.684156  5.275945 -2.217498
  S     7.128569  9.487125 -5.942394
  S     4.161383 10.118243 -3.137107
  S     6.458122  9.049978 -1.931186
