16  
    
  C     5.570541  6.270015 -4.647128
  C     6.553214  5.568786 -3.939519
  C     5.644224  9.626578 -4.524080
  C     6.834574  9.123310 -3.815718
  N     7.691558  5.327647 -4.611826
  N     5.870887  6.636221 -5.909888
  N     4.571350  5.731242 -2.324854
  N     7.952823  9.044046 -4.517659
  N     5.841647  9.837040 -5.808269
  N     5.032629  9.192194 -1.965898
  S     7.393333  5.970452 -6.145464
  S     4.207653  6.497537 -3.733039
  S     6.146564  5.221551 -2.268166
  S     7.483666  9.534136 -6.093062
  S     4.302223  9.786368 -3.373454
  S     6.633023  8.784037 -2.128581
