16  
    
  C     5.613971  5.811842 -4.435203
  C     6.772374  5.288019 -3.784799
  C     5.701024  9.542902 -4.233613
  C     6.874078  9.026945 -3.573964
  N     7.849693  4.996334 -4.559134
  N     5.681332  5.871692 -5.760185
  N     4.907064  5.528487 -1.954835
  N     7.922010  8.738709 -4.348471
  N     5.869641  9.658274 -5.560393
  N     5.103640  9.363068 -1.798004
  S     7.246043  5.413341 -6.058210
  S     4.316671  6.248859 -3.316892
  S     6.491052  4.971776 -2.070481
  S     7.324441  9.030502 -5.885223
  S     4.307502  9.803738 -3.177206
  S     6.601101  8.689588 -1.941553
