16  
    
  C     5.405513  5.967194 -4.352279
  C     6.620444  5.637413 -3.659527
  C     5.312685  9.399436 -4.383644
  C     6.600775  9.086149 -3.801779
  N     7.609769  5.386310 -4.515844
  N     5.507013  6.026613 -5.680130
  N     4.772395  5.598382 -1.850617
  N     7.607193  8.984545 -4.669834
  N     5.291002  9.443050 -5.706537
  N     4.941534  9.402577 -1.899965
  S     7.075213  5.663292 -6.055666
  S     4.055734  6.075726 -3.275294
  S     6.435152  5.263959 -1.970555
  S     6.925170  9.146134 -6.140396
  S     4.093452  9.702355 -3.277964
  S     6.554214  9.142163 -2.069980
