16  
    
  C     5.675894  5.878177 -4.469175
  C     6.939233  5.463481 -3.863011
  C     5.562927  9.473277 -4.264736
  C     6.870874  9.258751 -3.663916
  N     7.939912  5.234874 -4.735275
  N     5.718751  5.984829 -5.787792
  N     5.080338  5.443530 -1.998967
  N     7.900241  9.207410 -4.508053
  N     5.604252  9.665798 -5.570755
  N     5.176997  9.118896 -1.702411
  S     7.267441  5.596398 -6.219605
  S     4.326159  6.035417 -3.339349
  S     6.746371  5.255776 -2.167125
  S     7.281358  9.555340 -6.013010
  S     4.250835  9.330124 -3.108716
  S     6.747763  8.722359 -2.011843
