16  
    
  C     5.356656  6.027675 -4.454455
  C     6.594710  5.589703 -3.753687
  C     5.346392  9.557975 -4.296092
  C     6.587448  9.188013 -3.629900
  N     7.708922  5.472363 -4.504893
  N     5.561520  6.253522 -5.759410
  N     4.735590  5.541466 -1.955453
  N     7.587288  9.104264 -4.490232
  N     5.407263  9.822948 -5.591465
  N     4.802950  9.453076 -1.734384
  S     7.157382  5.978242 -6.028841
  S     4.003632  5.993180 -3.375665
  S     6.370245  5.326241 -2.008066
  S     6.973498  9.452120 -6.046129
  S     4.103086  9.692653 -3.191860
  S     6.457845  9.098698 -1.898084
