16  
    
  C     5.653557  5.726047 -4.347883
  C     6.891994  5.355382 -3.789851
  C     5.775965  9.671660 -4.286885
  C     7.006533  9.237261 -3.737326
  N     7.920176  5.329179 -4.614520
  N     5.715632  5.898339 -5.660200
  N     5.252628  5.584370 -1.834303
  N     7.921773  9.154666 -4.699166
  N     5.741582  9.980826 -5.591667
  N     5.264998  8.862685 -1.839791
  S     7.285319  5.555056 -6.162969
  S     4.390015  5.929258 -3.176657
  S     6.859004  5.086352 -2.071432
  S     7.310071  9.619889 -6.109367
  S     4.466282  9.465319 -3.142822
  S     6.932276  8.728737 -2.046583
