16  
    
  C     5.744909  5.431293 -3.948203
  C     6.997613  5.081348 -3.301449
  C     5.441852  9.386456 -4.205197
  C     6.555431  8.734005 -3.520118
  N     8.048571  4.966312 -4.128389
  N     5.803017  5.578176 -5.284625
  N     5.248986  5.124342 -1.407013
  N     7.627963  8.480927 -4.226105
  N     5.694341  9.573470 -5.493386
  N     4.815208  9.346641 -1.746613
  S     7.385653  5.257883 -5.662040
  S     4.426093  5.453095 -2.783661
  S     6.855935  4.893871 -1.638967
  S     7.189513  8.989679 -5.798266
  S     4.078641  9.746993 -3.199062
  S     6.227126  8.439751 -1.818511
