16  
    
  C     5.505483  5.624867 -4.284027
  C     6.726813  5.206472 -3.597798
  C     5.537843  9.215612 -4.239739
  C     6.748504  8.791739 -3.578679
  N     7.823510  4.960989 -4.308282
  N     5.726872  5.713528 -5.599466
  N     5.003594  5.663432 -1.763066
  N     7.773454  8.654285 -4.386290
  N     5.642285  9.493365 -5.538959
  N     4.887643  9.045214 -1.743173
  S     7.322520  5.330124 -5.832855
  S     4.261215  6.063383 -3.210904
  S     6.490434  4.986064 -1.916805
  S     7.201978  9.152410 -5.953341
  S     4.201624  9.591334 -3.189222
  S     6.499139  8.559437 -1.875775
