16  
    
  C     5.537305  6.024172 -4.190429
  C     6.658153  5.423475 -3.652454
  C     5.353781  9.555337 -4.401648
  C     6.610845  9.155786 -3.779790
  N     7.656135  5.349570 -4.517717
  N     5.585601  6.437959 -5.441108
  N     4.953122  5.592536 -1.729450
  N     7.604878  9.029986 -4.621854
  N     5.442420  9.712469 -5.692622
  N     4.897082  9.151984 -1.854719
  S     7.147722  5.956350 -5.967622
  S     4.188305  6.114759 -3.121719
  S     6.524095  5.110625 -1.977120
  S     7.040324  9.456719 -6.082725
  S     4.097723  9.636895 -3.220758
  S     6.559688  8.874164 -2.073962
