16  
    
  C     5.579375  5.947694 -4.259766
  C     6.684597  5.296347 -3.649830
  C     5.942880  9.155588 -3.988827
  C     7.209551  8.780724 -3.377275
  N     7.697063  4.938642 -4.444884
  N     5.748056  6.165326 -5.568648
  N     4.917789  5.710258 -1.783891
  N     8.230763  8.682193 -4.267342
  N     5.965539  9.436890 -5.280734
  N     5.444816  8.952051 -1.535492
  S     7.192089  5.492990 -5.933922
  S     4.182858  6.180991 -3.218846
  S     6.489439  5.201800 -1.940301
  S     7.511682  9.179617 -5.758226
  S     4.590719  9.072710 -2.912667
  S     7.067360  8.426200 -1.669352
