16  
    
  C     5.711805  5.466840 -4.415817
  C     6.943689  5.206346 -3.675466
  C     5.367304  9.332718 -4.471521
  C     6.589048  8.963496 -3.821298
  N     7.947162  4.964187 -4.484693
  N     5.790878  5.546258 -5.749845
  N     5.182671  5.398583 -1.885293
  N     7.653434  8.710554 -4.562261
  N     5.506691  9.413284 -5.803333
  N     4.906878  9.390201 -1.921817
  S     7.435623  5.287023 -6.070732
  S     4.321956  5.511732 -3.322243
  S     6.793173  4.995074 -1.940967
  S     7.164635  8.932498 -6.121264
  S     4.155107  9.789995 -3.371030
  S     6.424508  8.784150 -2.106590
