16  
    
  C     5.754550  5.632603 -4.273169
  C     6.974357  5.152670 -3.615794
  C     5.471531  9.425908 -4.494043
  C     6.627786  8.854978 -3.845308
  N     8.014006  5.047025 -4.461375
  N     5.905351  5.807163 -5.577749
  N     5.167576  5.378437 -1.787193
  N     7.642662  8.591800 -4.662453
  N     5.660645  9.629570 -5.795730
  N     4.793532  9.210085 -1.981464
  S     7.436383  5.334855 -6.014021
  S     4.454192  5.978311 -3.143278
  S     6.765135  4.934471 -1.943921
  S     7.234066  9.049198 -6.150781
  S     4.109819  9.616564 -3.462198
  S     6.344718  8.578940 -2.093973
