16  
    
  C     5.464175  5.682193 -4.288497
  C     6.703261  5.397025 -3.643454
  C     5.453078  9.286072 -4.297730
  C     6.675716  8.928764 -3.654086
  N     7.779378  5.221938 -4.421953
  N     5.530255  5.832229 -5.621692
  N     4.932141  5.588420 -1.724267
  N     7.716511  8.964145 -4.466293
  N     5.545188  9.419492 -5.664284
  N     5.025613  9.322539 -1.737636
  S     7.138526  5.533934 -5.967682
  S     4.167058  5.917523 -3.153244
  S     6.547237  5.183332 -1.897169
  S     7.146483  9.236990 -6.042062
  S     4.164487  9.600172 -3.175648
  S     6.582908  8.658122 -1.958778
