16  
    
  C     5.577037  5.865856 -4.460703
  C     6.712552  5.346509 -3.817378
  C     5.528842  9.778143 -4.230244
  C     6.766272  9.239176 -3.661419
  N     7.765799  5.191450 -4.582529
  N     5.756044  6.051907 -5.767445
  N     4.897710  5.613158 -2.054519
  N     7.729803  9.029376 -4.567546
  N     5.564435  9.971175 -5.561162
  N     5.122028  9.204368 -1.649746
  S     7.293671  5.588026 -6.129949
  S     4.221889  6.187879 -3.451206
  S     6.475051  5.103438 -2.130080
  S     7.156341  9.578475 -6.026804
  S     4.215005  9.863965 -3.013045
  S     6.669184  8.744799 -2.011757
