16  
    
  C     5.358736  6.323254 -4.460895
  C     6.465753  5.790487 -3.722589
  C     5.489225 10.009305 -4.218221
  C     6.747586  9.752694 -3.608094
  N     7.539692  5.653097 -4.486681
  N     5.476897  6.445210 -5.800441
  N     4.485990  6.046580 -2.077873
  N     7.751322  9.756440 -4.475383
  N     5.506911 10.307141 -5.499140
  N     4.998710  9.648387 -1.651587
  S     7.089539  6.076398 -6.027136
  S     3.972602  6.742481 -3.511670
  S     6.075842  5.581368 -2.021663
  S     7.081148 10.190111 -5.949952
  S     4.068119  9.887307 -3.075327
  S     6.613131  9.409819 -1.898193
