16  
    
  C     5.556172  6.178802 -4.404983
  C     6.747240  5.839780 -3.701375
  C     5.665426  9.664816 -4.374842
  C     6.882344  9.191960 -3.728935
  N     7.782604  5.523744 -4.479312
  N     5.707827  6.257792 -5.724670
  N     4.908684  6.039824 -1.941813
  N     7.875837  8.897746 -4.574677
  N     5.702845  9.661127 -5.701948
  N     4.991047  9.621703 -1.918595
  S     7.245514  5.826396 -6.079416
  S     4.246700  6.513092 -3.430086
  S     6.540025  5.735161 -2.011507
  S     7.274686  9.313675 -6.116559
  S     4.300068  9.860240 -3.383139
  S     6.538300  9.073588 -2.002845
