16  
    
  C     5.450893  5.599834 -4.269022
  C     6.629037  5.085526 -3.555501
  C     5.875428  9.096775 -3.945461
  C     7.142753  8.652189 -3.397478
  N     7.725154  4.907995 -4.298569
  N     5.650149  5.798823 -5.578372
  N     4.865623  5.828447 -1.737144
  N     8.159591  8.482448 -4.242518
  N     5.971805  9.439123 -5.225316
  N     5.417096  8.342424 -1.508900
  S     7.187642  5.272673 -5.848102
  S     4.144964  6.116255 -3.219704
  S     6.375625  5.157429 -1.838230
  S     7.548688  9.044629 -5.730379
  S     4.527536  9.031036 -2.765918
  S     7.070387  8.405793 -1.706841
