16  
    
  C     5.500507  5.814432 -4.562643
  C     6.754868  5.541016 -3.893278
  C     5.164484  9.435546 -4.447232
  C     6.353420  9.121500 -3.685853
  N     7.883665  5.488372 -4.628432
  N     5.644085  5.842338 -5.899380
  N     4.845765  5.614651 -2.039955
  N     7.378548  8.764428 -4.454370
  N     5.253318  9.367417 -5.769972
  N     4.614417  9.985832 -2.042011
  S     7.276548  5.687681 -6.150381
  S     4.115160  5.961804 -3.481590
  S     6.558680  5.357644 -2.143462
  S     6.838992  9.008462 -6.062890
  S     3.877309 10.199320 -3.516781
  S     6.126474  9.283767 -1.988879
