16  
    
  C     5.526171  6.052566 -4.438959
  C     6.795780  5.639439 -3.911679
  C     5.495509 10.011574 -4.489452
  C     6.628033  9.389768 -3.777500
  N     7.701909  5.461954 -4.881991
  N     5.518980  6.236892 -5.766135
  N     5.176673  5.912426 -1.885310
  N     7.610423  9.122262 -4.589075
  N     5.597147 10.120958 -5.794417
  N     4.734833  9.385012 -2.041012
  S     6.992783  5.757822 -6.391792
  S     4.312387  6.360617 -3.226931
  S     6.744133  5.282182 -2.197330
  S     7.170749  9.592340 -6.114711
  S     4.098084 10.211710 -3.388379
  S     6.378161  9.006442 -2.070176
