16  
    
  C     5.394577  5.967773 -4.345460
  C     6.621674  5.634451 -3.657830
  C     5.323992  9.395476 -4.381968
  C     6.607534  9.078077 -3.792258
  N     7.606627  5.386059 -4.516831
  N     5.506707  6.031576 -5.668222
  N     4.771144  5.594815 -1.846870
  N     7.612216  8.979214 -4.671244
  N     5.293254  9.448724 -5.704691
  N     4.945720  9.412621 -1.899374
  S     7.075632  5.668246 -6.056621
  S     4.058660  6.074877 -3.273223
  S     6.440320  5.268307 -1.971879
  S     6.925769  9.151353 -6.142124
  S     4.091213  9.701031 -3.279852
  S     6.555844  9.147470 -2.074219
