16  
    
  C     5.498200  6.017559 -4.460436
  C     6.673297  5.683966 -3.651440
  C     5.597742  9.595929 -4.307564
  C     6.736206  9.192459 -3.509874
  N     7.792273  5.573851 -4.353953
  N     5.696648  6.072366 -5.781551
  N     4.772619  6.129279 -1.927357
  N     7.763443  8.889417 -4.243645
  N     5.809541  9.656257 -5.605096
  N     4.879789  9.402338 -1.789563
  S     7.367541  5.732224 -5.950203
  S     4.069502  6.401424 -3.459732
  S     6.346145  5.591630 -1.897470
  S     7.398700  9.234207 -5.850642
  S     4.229163  9.811538 -3.303473
  S     6.460474  9.053060 -1.808023
