16  
    
  C     5.455131  5.743722 -4.356135
  C     6.646058  5.378348 -3.636269
  C     5.709122  9.066932 -4.129377
  C     7.015670  8.846493 -3.559652
  N     7.750651  5.321904 -4.365760
  N     5.667241  5.933373 -5.630140
  N     4.729955  5.460819 -1.994341
  N     8.032186  8.918353 -4.437928
  N     5.727410  9.327976 -5.438582
  N     5.242847  8.715192 -1.705643
  S     7.263310  5.710087 -5.933344
  S     4.065942  6.100263 -3.371357
  S     6.379613  5.196067 -1.961306
  S     7.339696  9.098580 -5.898915
  S     4.383739  8.941467 -3.107114
  S     6.855137  8.445265 -1.840336
