16  
    
  C     5.516751  6.049906 -4.577430
  C     6.508864  5.337735 -3.836815
  C     5.775591  9.587887 -4.400417
  C     6.978845  9.120678 -3.716037
  N     7.698853  5.272838 -4.420756
  N     5.888599  6.501886 -5.764226
  N     4.634171  5.850333 -2.191759
  N     8.047152  8.906211 -4.448517
  N     5.966873  9.776952 -5.717358
  N     5.191046  9.216208 -1.850648
  S     7.475334  5.908324 -5.984219
  S     4.096236  6.463975 -3.617884
  S     6.078020  5.047693 -2.193073
  S     7.532581  9.304060 -6.043998
  S     4.381799  9.467048 -3.286933
  S     6.792595  8.792835 -2.048381
