16  
    
  C     5.573862  5.898815 -4.131450
  C     6.559559  4.991028 -3.607009
  C     5.668901  9.516854 -4.591636
  C     6.758900  8.801378 -3.945280
  N     7.539294  4.609912 -4.403947
  N     5.738057  6.189535 -5.398084
  N     5.083632  5.716221 -1.535762
  N     7.814874  8.529700 -4.693732
  N     5.878173  9.771206 -5.905785
  N     5.214100  9.421549 -2.004683
  S     7.096846  5.328646 -5.900611
  S     4.458354  6.416207 -2.948932
  S     6.349686  4.661252 -1.860212
  S     7.448132  9.181691 -6.223426
  S     4.393706  9.828071 -3.417301
  S     6.663858  8.636073 -2.202024
