16  
    
  C     5.326458  6.004244 -4.482023
  C     6.445340  5.553298 -3.758130
  C     5.357264  9.641162 -4.245021
  C     6.576401  9.236033 -3.490301
  N     7.535203  5.293141 -4.468805
  N     5.465897  6.027911 -5.822104
  N     4.611597  6.034701 -1.958360
  N     7.622724  9.202699 -4.253399
  N     5.490141  9.846176 -5.550005
  N     4.709375  9.343473 -1.728436
  S     7.047943  5.616310 -6.060974
  S     3.965928  6.442067 -3.448603
  S     6.166615  5.520797 -2.038393
  S     7.133346  9.506551 -5.825838
  S     4.013480  9.777370 -3.137087
  S     6.339744  8.857687 -1.813410
