16  
    
  C     5.411034  5.945466 -4.289565
  C     6.609947  5.513975 -3.697456
  C     5.392182  9.361121 -4.375479
  C     6.679780  9.040062 -3.811661
  N     7.659265  5.378970 -4.510330
  N     5.457351  6.136832 -5.606267
  N     4.839906  5.557699 -1.818674
  N     7.661589  8.873630 -4.667215
  N     5.454444  9.513090 -5.691004
  N     4.972275  9.577383 -1.860018
  S     7.049937  5.750917 -6.026261
  S     4.044064  6.068772 -3.206124
  S     6.486085  5.336630 -1.978648
  S     6.944606  9.226496 -6.177760
  S     4.067237  9.677006 -3.286626
  S     6.592730  9.208660 -2.077430
