16  
    
  C     5.575332  5.967230 -4.460689
  C     6.635724  5.266291 -3.761647
  C     5.489791  9.601506 -4.153647
  C     6.729191  9.066817 -3.668671
  N     7.670967  4.977701 -4.558472
  N     5.810129  6.116605 -5.748511
  N     4.828872  5.676398 -2.026565
  N     7.710883  8.876536 -4.543406
  N     5.539011  9.935496 -5.432994
  N     5.153632  9.224666 -1.646324
  S     7.310394  5.547576 -6.143283
  S     4.141946  6.126199 -3.450098
  S     6.406626  5.126179 -2.032895
  S     7.014125  9.388358 -5.984658
  S     4.234855  9.730252 -2.978185
  S     6.682669  8.770804 -1.929270
