16  
    
  C     5.453764  5.636431 -4.319754
  C     6.711684  5.416697 -3.668742
  C     5.296157 10.181495 -4.587207
  C     6.337088  9.431340 -4.025216
  N     7.793306  5.282783 -4.494927
  N     5.533010  5.648345 -5.642497
  N     4.950991  5.530587 -1.748184
  N     7.323979  8.974366 -4.814098
  N     5.527017 10.391182 -5.913695
  N     4.629926  9.601455 -2.113880
  S     7.170254  5.389905 -5.984663
  S     4.114882  5.560127 -3.174117
  S     6.606113  5.366311 -1.909043
  S     6.933042  9.613629 -6.284942
  S     4.028259 10.499951 -3.466390
  S     6.213839  9.127938 -2.268644
