16  
    
  C     5.739320  5.337124 -4.259059
  C     6.965345  4.972329 -3.590379
  C     5.703404  9.492421 -4.419316
  C     6.843500  8.951694 -3.718278
  N     8.045144  4.764049 -4.331427
  N     5.964277  5.589227 -5.537955
  N     5.143895  5.329504 -1.736558
  N     7.885090  8.715832 -4.536524
  N     5.883183  9.847481 -5.684007
  N     4.879551  9.125973 -2.005026
  S     7.525073  5.067872 -5.907037
  S     4.362334  5.602657 -3.200082
  S     6.756321  4.856146 -1.857451
  S     7.446594  9.441412 -6.045222
  S     4.277410  9.664699 -3.435174
  S     6.491195  8.687442 -2.055652
