16  
    
  C     5.451908  6.118342 -4.412491
  C     6.634199  5.701739 -3.616831
  C     5.587333  9.551642 -4.212584
  C     6.801914  9.079774 -3.496107
  N     7.720771  5.529832 -4.353693
  N     5.715112  6.106937 -5.727717
  N     4.684627  6.119936 -1.934013
  N     7.882396  8.895683 -4.294392
  N     5.786607  9.728518 -5.506075
  N     4.771148  9.416357 -1.836621
  S     7.281819  5.748254 -5.982601
  S     4.077213  6.445518 -3.403453
  S     6.257990  5.598016 -1.886324
  S     7.316898  9.225190 -5.832716
  S     4.204697  9.931385 -3.289284
  S     6.451887  9.025919 -1.726763
