16  
    
  C     5.186791  6.254260 -4.586836
  C     6.424120  5.851948 -3.967851
  C     5.517992  9.570535 -4.053187
  C     6.796357  9.232295 -3.459342
  N     7.438618  5.750957 -4.836117
  N     5.246729  6.457529 -5.947448
  N     4.715797  5.811708 -2.046600
  N     7.821402  9.337587 -4.314759
  N     5.560639  9.844281 -5.380760
  N     5.030300  9.005380 -1.576997
  S     6.889600  6.182887 -6.316549
  S     3.917471  6.479795 -3.357134
  S     6.330157  5.548282 -2.270276
  S     7.169904  9.812455 -5.775699
  S     4.128711  9.389936 -2.868355
  S     6.693947  8.651636 -1.847723
