16  
    
  C     5.614439  5.695904 -4.316323
  C     6.849892  5.308288 -3.645669
  C     5.521418  9.454857 -4.390681
  C     6.780457  9.162269 -3.746243
  N     7.866838  5.382195 -4.472997
  N     5.675708  6.071819 -5.585426
  N     5.064852  5.305696 -1.843223
  N     7.818031  9.037691 -4.563799
  N     5.619661  9.549399 -5.724841
  N     5.181414  9.422682 -1.800299
  S     7.269757  5.740688 -6.029641
  S     4.256579  5.829709 -3.226601
  S     6.692850  4.970894 -1.937177
  S     7.170447  9.284318 -6.116088
  S     4.317496  9.772540 -3.191427
  S     6.764064  8.963098 -1.994120
