16  
    
  C     5.315617  6.378637 -4.639621
  C     6.544664  5.938729 -4.006529
  C     5.745728  9.789507 -4.345189
  C     6.978595  9.416523 -3.753686
  N     7.558877  5.745008 -4.830135
  N     5.398472  6.409606 -5.956910
  N     4.844509  6.356711 -2.068587
  N     8.039916  9.136064 -4.546213
  N     5.787100  9.810608 -5.682595
  N     5.141651  9.592556 -1.876774
  S     6.959134  5.950988 -6.391907
  S     4.112058  6.755286 -3.502393
  S     6.427017  5.883868 -2.294581
  S     7.398899  9.503435 -6.058205
  S     4.403985  9.965585 -3.305515
  S     6.734341  9.245100 -2.043808
