16  
    
  C     5.624056  5.983250 -4.533848
  C     6.783616  5.561969 -3.855645
  C     5.550731  9.886012 -4.376047
  C     6.742913  9.283742 -3.792340
  N     7.811796  5.334586 -4.694703
  N     5.805532  6.258357 -5.827130
  N     4.981788  5.796863 -2.016691
  N     7.802717  9.011645 -4.570803
  N     5.742637 10.038511 -5.689083
  N     4.969589  9.303995 -1.867874
  S     7.374538  5.789611 -6.189368
  S     4.181055  6.143199 -3.476326
  S     6.612381  5.263527 -2.138556
  S     7.368189  9.650002 -6.019645
  S     4.135640  9.884450 -3.262288
  S     6.542348  8.909532 -2.118752
