16  
    
  C     5.583470  5.694805 -4.336794
  C     6.855555  5.309275 -3.665793
  C     5.521331  9.462798 -4.379057
  C     6.767150  9.148984 -3.725912
  N     7.879777  5.404042 -4.470900
  N     5.663988  6.065655 -5.593680
  N     5.076662  5.303426 -1.851766
  N     7.825924  9.033721 -4.557723
  N     5.596850  9.569410 -5.714170
  N     5.159489  9.443345 -1.794537
  S     7.264227  5.748774 -6.032801
  S     4.268149  5.801356 -3.233418
  S     6.684878  4.981401 -1.958469
  S     7.154988  9.306104 -6.113613
  S     4.314680  9.754754 -3.193907
  S     6.759031  8.969415 -1.975927
