16  
    
  C     5.199350  5.553399 -4.148305
  C     6.373642  4.843562 -3.603047
  C     5.516598  9.522774 -4.391574
  C     6.686821  9.005266 -3.765429
  N     7.338438  4.513889 -4.446069
  N     5.339943  5.725298 -5.440325
  N     4.681913  5.298588 -1.640992
  N     7.745071  8.727505 -4.528660
  N     5.704104  9.639978 -5.735105
  N     4.937649  9.252005 -1.901283
  S     6.779632  5.007588 -5.942222
  S     3.957754  5.926100 -3.024887
  S     6.253085  4.656610 -1.874692
  S     7.179598  9.104187 -6.061585
  S     4.168830  9.684053 -3.281581
  S     6.576029  8.944405 -2.077000
