16  
    
  C     5.521705  6.005542 -4.325013
  C     6.721573  5.552850 -3.665285
  C     5.675994  9.446020 -4.494943
  C     6.850083  9.130074 -3.764286
  N     7.736692  5.260377 -4.397523
  N     5.672585  6.191203 -5.648852
  N     5.011079  5.988566 -1.782263
  N     7.950570  9.119055 -4.496938
  N     5.872076  9.558760 -5.779463
  N     5.010821  9.213548 -2.018969
  S     7.236960  5.703694 -6.000005
  S     4.203341  6.210209 -3.177808
  S     6.625887  5.477588 -1.943234
  S     7.472846  9.290914 -6.045643
  S     4.319437  9.618152 -3.435372
  S     6.642920  8.875027 -2.087497
