16  
    
  C     5.545382  5.724564 -4.410551
  C     6.662707  5.176674 -3.735977
  C     5.710002  9.463259 -4.256074
  C     6.869317  8.991748 -3.551120
  N     7.737257  5.051499 -4.518384
  N     5.740563  5.922733 -5.689018
  N     4.809568  5.445909 -1.987458
  N     7.881996  8.768362 -4.367758
  N     5.812895  9.594076 -5.587731
  N     5.104706  9.247753 -1.710828
  S     7.286435  5.395067 -6.098646
  S     4.263119  6.257666 -3.346247
  S     6.394847  4.973085 -2.017769
  S     7.402661  9.094190 -5.960610
  S     4.367289  9.650546 -3.181815
  S     6.698354  8.719044 -1.846478
