16  
    
  C     5.528989  5.959399 -4.404423
  C     6.675369  5.726327 -3.666020
  C     5.606540  9.629168 -4.359808
  C     6.735270  9.190454 -3.618293
  N     7.791448  5.531728 -4.358440
  N     5.763712  6.027989 -5.694204
  N     4.799993  6.068787 -1.965615
  N     7.833682  8.922597 -4.301192
  N     5.797467  9.636881 -5.696454
  N     4.882906  9.459240 -1.803133
  S     7.362265  5.740966 -5.936149
  S     4.140660  6.328986 -3.490482
  S     6.417692  5.614983 -1.996388
  S     7.437003  9.238067 -5.838655
  S     4.170142  9.717620 -3.273733
  S     6.536966  9.069413 -1.909647
