16  
    
  C     5.515607  5.686395 -4.294067
  C     6.724900  5.380556 -3.632598
  C     5.432854  9.300134 -4.327327
  C     6.666532  8.957047 -3.701378
  N     7.802176  5.257802 -4.406166
  N     5.539858  5.882263 -5.622789
  N     4.948592  5.581690 -1.736391
  N     7.741715  8.965170 -4.498071
  N     5.555095  9.427267 -5.669411
  N     5.032188  9.284035 -1.744199
  S     7.155633  5.516015 -5.965928
  S     4.199795  5.887642 -3.143982
  S     6.561022  5.182876 -1.887447
  S     7.180205  9.259092 -6.042709
  S     4.197354  9.597419 -3.178470
  S     6.585126  8.666409 -1.957355
