16  
    
  C     5.289421  6.365289 -4.320335
  C     6.485025  5.758418 -3.724689
  C     5.525504  9.635312 -4.488487
  C     6.715289  9.267011 -3.736514
  N     7.443638  5.482455 -4.607618
  N     5.369288  6.357934 -5.627005
  N     4.728670  6.012968 -1.860899
  N     7.793972  9.114901 -4.506234
  N     5.721412  9.863601 -5.783618
  N     4.890182  9.649493 -1.955873
  S     6.887908  5.866960 -6.094293
  S     4.028522  6.634389 -3.240581
  S     6.277013  5.593557 -2.030963
  S     7.326138  9.454103 -6.093302
  S     4.079529  9.741143 -3.357869
  S     6.410878  9.007205 -2.078880
