16  
    
  C     5.399923  5.934254 -4.357815
  C     6.640146  5.604625 -3.812815
  C     5.632371  9.367420 -4.440695
  C     6.845203  9.030342 -3.760874
  N     7.637945  5.439832 -4.664467
  N     5.434408  6.171856 -5.650482
  N     4.976971  5.894104 -1.808858
  N     7.860041  8.926301 -4.616738
  N     5.632564  9.474264 -5.764842
  N     4.886987  9.079664 -1.988602
  S     6.942590  5.888361 -6.163979
  S     4.159993  6.279420 -3.212029
  S     6.546492  5.394003 -2.092469
  S     7.215511  9.254769 -6.172803
  S     4.125040  9.222471 -3.490396
  S     6.570427  8.787383 -2.053805
