16  
    
  C     5.833940  5.752138 -4.503218
  C     7.017711  5.416905 -3.740962
  C     5.571097  9.628153 -4.299879
  C     6.849414  9.294713 -3.731640
  N     8.127608  5.308226 -4.494243
  N     6.037223  5.876670 -5.805808
  N     5.193523  5.884060 -2.002977
  N     7.883292  9.251442 -4.554410
  N     5.649969  9.800756 -5.633610
  N     5.102568  9.138813 -1.815005
  S     7.629897  5.484095 -6.077495
  S     4.499422  6.228444 -3.484886
  S     6.776092  5.321841 -2.016188
  S     7.164735  9.525980 -6.063137
  S     4.213617  9.522933 -3.183433
  S     6.720718  8.846041 -2.120616
