16  
    
  C     5.510675  5.867260 -4.351714
  C     6.612759  5.208639 -3.667928
  C     5.711145  9.172295 -4.198649
  C     6.959249  8.759016 -3.609384
  N     7.616313  4.861793 -4.452635
  N     5.792419  6.065863 -5.603807
  N     4.769426  5.632921 -1.952041
  N     7.999470  8.749803 -4.416921
  N     5.822467  9.484954 -5.484398
  N     5.189452  9.003489 -1.722322
  S     7.305407  5.451160 -5.963314
  S     4.083585  6.029025 -3.415511
  S     6.325462  4.985444 -2.037958
  S     7.412665  9.209189 -5.925652
  S     4.353070  9.321848 -3.167282
  S     6.827937  8.752079 -1.911667
