16  
    
  C     5.624076  5.724461 -4.359052
  C     6.870862  5.249252 -3.776945
  C     5.223471  9.813431 -4.646834
  C     6.371300  9.208598 -4.025351
  N     7.837728  5.018151 -4.655431
  N     5.720736  5.918650 -5.646033
  N     5.186783  5.486599 -1.836933
  N     7.433091  8.913856 -4.817426
  N     5.405003  9.928155 -5.970845
  N     4.638099  9.734071 -2.157909
  S     7.280041  5.448611 -6.114948
  S     4.344271  5.998280 -3.178975
  S     6.782550  5.025709 -2.029838
  S     6.888521  9.327390 -6.326787
  S     3.970912 10.372181 -3.503551
  S     6.215169  9.137410 -2.253812
