16  
    
  C     5.512931  5.721392 -4.073854
  C     6.760033  5.241303 -3.511429
  C     5.462428  8.899123 -4.115155
  C     6.748581  8.782629 -3.498687
  N     7.768488  5.146474 -4.364005
  N     5.558214  5.868351 -5.391039
  N     5.079324  5.488904 -1.542773
  N     7.738170  8.635085 -4.382396
  N     5.534867  8.832165 -5.451399
  N     5.108782  9.123963 -1.578794
  S     7.100410  5.484287 -5.829636
  S     4.315930  6.019525 -2.916225
  S     6.600926  4.982113 -1.839636
  S     7.133996  8.644352 -5.860763
  S     4.152322  9.038358 -2.904962
  S     6.722791  8.691837 -1.787368
