16  
    
  C     5.487943  5.931787 -4.461568
  C     6.691760  5.560239 -3.802991
  C     5.650263  9.276310 -4.158915
  C     6.894738  9.034381 -3.520639
  N     7.716315  5.290665 -4.603659
  N     5.601431  5.853843 -5.775660
  N     4.905304  5.795886 -1.969889
  N     7.928048  8.955717 -4.368412
  N     5.688762  9.404936 -5.505249
  N     5.117704  9.529130 -1.637841
  S     7.184864  5.502976 -6.201960
  S     4.175757  6.323520 -3.388785
  S     6.486684  5.373092 -2.098912
  S     7.356680  9.364605 -5.865971
  S     4.325029  9.659812 -3.100114
  S     6.664542  8.875710 -1.817024
