16  
    
  C     5.877022  5.460159 -4.079594
  C     7.160309  5.116570 -3.528940
  C     5.447546  9.338425 -4.331654
  C     6.563419  8.749126 -3.635639
  N     8.120877  5.140364 -4.479030
  N     5.881776  5.793997 -5.372570
  N     5.464578  5.210041 -1.562538
  N     7.592936  8.335973 -4.386331
  N     5.684524  9.397593 -5.620902
  N     4.713428  9.109771 -1.874775
  S     7.390647  5.446880 -5.905727
  S     4.610694  5.586273 -2.910058
  S     7.013462  4.915611 -1.847790
  S     7.157566  8.775906 -5.930480
  S     4.184709  9.887995 -3.240840
  S     6.285586  8.535431 -1.926218
