16  
    
  C     5.362320  5.631831 -4.447291
  C     6.502037  5.052753 -3.714872
  C     5.540521  9.151978 -4.261914
  C     6.757231  8.782380 -3.617226
  N     7.620717  4.863863 -4.428992
  N     5.652505  5.783296 -5.734701
  N     4.624537  5.565859 -1.907248
  N     7.740958  8.557793 -4.496710
  N     5.540204  9.103699 -5.607813
  N     4.935377  8.917337 -1.722494
  S     7.163076  5.239016 -6.029401
  S     3.919187  5.837187 -3.421827
  S     6.194400  4.977911 -1.920727
  S     7.082897  8.763741 -6.024900
  S     4.206316  9.364453 -3.155102
  S     6.577234  8.717539 -1.871808
