16  
    
  C     5.532799  6.044828 -4.456022
  C     6.738901  5.519816 -3.875980
  C     5.418902  9.808256 -4.465598
  C     6.629043  9.278895 -3.861042
  N     7.660656  5.330938 -4.783099
  N     5.522830  6.131461 -5.753597
  N     5.084128  5.856681 -1.931245
  N     7.702343  9.140788 -4.682756
  N     5.616420 10.177648 -5.758581
  N     4.784141  9.589708 -2.018041
  S     7.087436  5.698370 -6.263248
  S     4.313760  6.345816 -3.318051
  S     6.679786  5.348992 -2.211105
  S     7.175429  9.698805 -6.153395
  S     4.048284 10.024974 -3.447710
  S     6.360422  9.061208 -2.149161
