16  
    
  C     5.394954  5.870626 -4.518278
  C     6.512587  5.318248 -3.830393
  C     5.319844  9.383919 -4.389946
  C     6.449248  8.821123 -3.710819
  N     7.591174  5.057217 -4.532148
  N     5.593511  5.969581 -5.816052
  N     4.654802  5.694029 -2.124992
  N     7.473310  8.499138 -4.511564
  N     5.537837  9.689655 -5.670320
  N     4.737870  9.496739 -1.849552
  S     7.155302  5.368458 -6.124382
  S     3.984142  6.174604 -3.535000
  S     6.240737  5.281144 -2.099606
  S     7.042057  9.119674 -6.036993
  S     3.942165  9.742148 -3.276170
  S     6.274019  8.918991 -2.039695
