16  
    
  C     5.253515  6.367973 -4.379282
  C     6.352536  5.631201 -3.697142
  C     5.530568  9.560281 -4.368222
  C     6.777016  9.229908 -3.689671
  N     7.371209  5.412541 -4.519001
  N     5.459217  6.522924 -5.702727
  N     4.643031  6.160514 -1.877122
  N     7.832625  9.100195 -4.461429
  N     5.681608  9.642397 -5.664050
  N     5.018387  9.449554 -1.864104
  S     6.915825  5.861837 -6.018898
  S     4.046607  6.818711 -3.258611
  S     6.182683  5.524994 -2.010265
  S     7.253003  9.376672 -6.043256
  S     4.241882  9.826244 -3.298600
  S     6.580585  8.873007 -1.941441
