16  
    
  C     5.533478  5.654738 -4.352439
  C     6.593004  5.041393 -3.671432
  C     5.469077  9.740195 -4.586482
  C     6.654916  9.215250 -3.988909
  N     7.662808  4.933572 -4.419678
  N     5.721147  5.892502 -5.644292
  N     4.883828  5.575151 -1.872609
  N     7.683385  9.086271 -4.820544
  N     5.605593 10.098192 -5.861447
  N     4.823894  9.349116 -2.133178
  S     7.313299  5.406246 -5.993887
  S     4.156487  5.939753 -3.327813
  S     6.346955  4.766951 -2.001455
  S     7.172440  9.762659 -6.227356
  S     4.226140  9.985399 -3.518414
  S     6.416946  8.847136 -2.242669
