16  
    
  C     5.528328  6.278171 -4.400057
  C     6.701949  5.876349 -3.726273
  C     5.664496  9.708713 -4.386842
  C     6.906946  9.343380 -3.717515
  N     7.747660  5.680645 -4.578833
  N     5.624579  6.483287 -5.742392
  N     4.876690  6.310756 -1.955140
  N     7.947376  9.306301 -4.565329
  N     5.709183  9.962983 -5.699789
  N     4.978020  9.533510 -1.870155
  S     7.210767  6.038882 -6.039538
  S     4.148591  6.637360 -3.405811
  S     6.434680  5.816372 -2.012358
  S     7.277933  9.550834 -6.129575
  S     4.277910  9.829799 -3.388530
  S     6.626586  9.282193 -2.011219
