16  
    
  C     5.579481  5.432153 -4.100622
  C     6.807835  5.099311 -3.459099
  C     5.783884  9.263547 -3.988674
  C     7.015981  8.897649 -3.317940
  N     7.842226  5.034599 -4.309843
  N     5.616438  5.537665 -5.426027
  N     5.076542  5.284815 -1.529561
  N     8.021725  8.768577 -4.187126
  N     5.773565  9.275134 -5.295207
  N     5.248204  9.160065 -1.465047
  S     7.238531  5.119220 -5.851663
  S     4.300687  5.583582 -2.964584
  S     6.688266  5.084554 -1.707039
  S     7.378505  9.051967 -5.719245
  S     4.527012  9.606545 -2.912096
  S     6.935458  8.789950 -1.562515
