16  
    
  C     5.322840  6.013207 -4.434398
  C     6.540651  5.577677 -3.752848
  C     5.352666  9.682993 -4.231851
  C     6.649066  9.284230 -3.604176
  N     7.615541  5.471613 -4.520834
  N     5.554899  6.249370 -5.725079
  N     4.692293  5.742088 -1.969531
  N     7.643292  9.083436 -4.459758
  N     5.450370  9.781819 -5.524501
  N     4.799667  9.354869 -1.764655
  S     7.141074  5.830064 -6.054360
  S     3.940217  6.074151 -3.440606
  S     6.316317  5.419935 -2.070497
  S     7.026776  9.469378 -5.934168
  S     3.952007  9.746782 -3.175451
  S     6.444475  9.075748 -1.835763
