16  
    
  C     5.432451  5.536828 -4.308091
  C     6.660566  5.071223 -3.689224
  C     5.690837  9.319986 -4.240206
  C     6.827183  8.587282 -3.728757
  N     7.644668  4.788995 -4.533203
  N     5.532039  5.684328 -5.629201
  N     4.828564  5.272926 -1.894883
  N     7.789226  8.307388 -4.597272
  N     5.870464  9.669529 -5.510516
  N     4.934472  8.690793 -1.887422
  S     7.042532  5.308464 -6.024347
  S     3.967962  5.435831 -3.296714
  S     6.446373  4.708213 -2.013939
  S     7.258248  8.927846 -6.024304
  S     4.328418  9.552406 -3.220255
  S     6.515629  8.249700 -2.036341
