16  
    
  C     5.408380  5.511033 -4.330882
  C     6.633537  5.051826 -3.699062
  C     5.658730  9.281183 -4.317361
  C     6.767206  8.582894 -3.720663
  N     7.611235  4.760330 -4.564469
  N     5.531250  5.750977 -5.628646
  N     4.802753  5.195812 -1.868011
  N     7.752182  8.289572 -4.594734
  N     5.888665  9.650262 -5.566329
  N     4.873607  8.628165 -1.980973
  S     7.028838  5.309937 -6.028878
  S     3.994574  5.476181 -3.307960
  S     6.376530  4.692751 -2.024357
  S     7.277581  8.948911 -6.057129
  S     4.324821  9.570843 -3.185442
  S     6.477248  8.179893 -2.064477
