16  
    
  C     5.486262  6.037918 -4.458148
  C     6.662681  5.439995 -3.864219
  C     5.358319  9.826588 -4.538143
  C     6.542070  9.344881 -3.895984
  N     7.636973  5.232744 -4.741201
  N     5.549965  6.222346 -5.780499
  N     4.968537  5.776301 -1.987445
  N     7.595292  9.158610 -4.662143
  N     5.564485 10.094217 -5.819123
  N     4.886021  9.681795 -2.008838
  S     7.119934  5.669711 -6.254871
  S     4.166928  6.367854 -3.301911
  S     6.568902  5.377982 -2.107570
  S     7.202575  9.720655 -6.126594
  S     4.058129  9.911088 -3.365394
  S     6.476440  9.033262 -2.168449
