16  
    
  C     5.383514  6.048815 -4.434552
  C     6.580620  5.630375 -3.689985
  C     5.673817  9.620865 -4.264795
  C     6.796513  9.073513 -3.574510
  N     7.625026  5.410099 -4.476182
  N     5.538005  6.224917 -5.748331
  N     4.729110  5.915777 -1.995428
  N     7.783327  8.847740 -4.399632
  N     5.781781  9.818952 -5.553541
  N     4.912896  9.391032 -1.775680
  S     7.104678  5.825287 -6.060608
  S     4.046672  6.453129 -3.384538
  S     6.332308  5.414198 -1.987652
  S     7.382260  9.405989 -5.945888
  S     4.226280  9.791091 -3.265474
  S     6.542580  8.901933 -1.875072
