16  
    
  C     5.452267  5.858086 -4.392209
  C     6.727240  5.462064 -3.816750
  C     5.388932  9.708340 -4.571760
  C     6.588377  9.235928 -3.910671
  N     7.633482  5.164186 -4.719568
  N     5.495890  5.989653 -5.696553
  N     5.030700  5.697376 -1.838667
  N     7.583230  8.856264 -4.690025
  N     5.527844  9.779674 -5.914908
  N     4.833031  9.397115 -2.127826
  S     6.995865  5.476540 -6.205372
  S     4.172769  6.012822 -3.258619
  S     6.622298  5.302759 -2.118109
  S     7.063432  9.200136 -6.243234
  S     4.016048  9.772233 -3.552847
  S     6.501507  9.208826 -2.185126
