16  
    
  C     5.619483  5.972892 -4.538669
  C     6.788818  5.547721 -3.865631
  C     5.570763  9.869096 -4.379239
  C     6.737653  9.286765 -3.767400
  N     7.841608  5.345248 -4.699853
  N     5.781342  6.247384 -5.834301
  N     5.004028  5.781693 -2.018810
  N     7.781414  9.027128 -4.575561
  N     5.749943 10.037152 -5.701039
  N     5.012348  9.285259 -1.862966
  S     7.360837  5.775251 -6.162484
  S     4.173896  6.150094 -3.483919
  S     6.609969  5.241252 -2.144282
  S     7.361677  9.667586 -6.023726
  S     4.126591  9.893806 -3.245145
  S     6.542563  8.899725 -2.111204
