16  
    
  C     5.788787  5.737481 -4.395796
  C     6.998088  5.106632 -3.740533
  C     5.691550  9.406208 -4.346949
  C     6.897463  8.848826 -3.744064
  N     8.055874  4.995633 -4.540148
  N     6.030607  6.133056 -5.648014
  N     5.083045  5.260319 -1.918543
  N     7.930392  8.881778 -4.595049
  N     5.795699  9.968566 -5.545745
  N     5.191765  8.962188 -1.850879
  S     7.544783  5.574312 -6.008483
  S     4.389168  5.823158 -3.384052
  S     6.688268  4.900850 -1.989885
  S     7.364133  9.754260 -5.985882
  S     4.376388  9.390145 -3.217997
  S     6.753453  8.468559 -2.059957
