16  
    
  C     5.306561  6.224627 -4.427226
  C     6.322557  5.520341 -3.694512
  C     5.438235  9.626129 -4.267166
  C     6.586152  9.076562 -3.531284
  N     7.369591  5.024627 -4.396986
  N     5.461896  6.149675 -5.764910
  N     4.457740  6.145886 -1.955564
  N     7.629387  8.956407 -4.288008
  N     5.685820 10.017954 -5.510881
  N     4.869183  9.437010 -1.646002
  S     6.918541  5.421166 -5.974575
  S     3.998869  6.737175 -3.401083
  S     6.033810  5.565738 -1.927157
  S     7.243134  9.528140 -5.828434
  S     4.111668  9.695478 -3.138662
  S     6.396180  8.813899 -1.848584
