16  
    
  C     5.536636  5.849357 -4.363985
  C     6.614678  5.172221 -3.699541
  C     5.676830  9.150728 -4.259013
  C     6.912374  8.803972 -3.617698
  N     7.691388  4.884831 -4.446875
  N     5.803842  6.171445 -5.650355
  N     4.751450  5.667344 -1.953141
  N     8.006138  8.747084 -4.385065
  N     5.859256  9.488589 -5.516847
  N     5.207523  8.945678 -1.733099
  S     7.288855  5.457886 -5.946131
  S     4.033112  5.984834 -3.391555
  S     6.299496  4.999432 -1.992101
  S     7.387017  9.202679 -5.902007
  S     4.365487  9.228474 -3.159189
  S     6.892953  8.715446 -1.899386
