16  
    
  C     5.603438  5.716643 -4.404244
  C     6.948815  5.410380 -3.775909
  C     5.725407  9.716638 -4.252246
  C     7.031224  9.275263 -3.763511
  N     7.936734  5.324294 -4.692938
  N     5.613984  5.870982 -5.747993
  N     5.297485  5.618822 -1.833490
  N     8.018022  9.282468 -4.642788
  N     5.715059  9.936129 -5.573732
  N     5.274343  8.991559 -1.792352
  S     7.190310  5.587036 -6.157907
  S     4.381726  5.947325 -3.186658
  S     6.846997  5.162818 -2.021498
  S     7.211579  9.553591 -6.164509
  S     4.423661  9.530404 -3.152152
  S     6.911081  8.723946 -2.044642
