16  
    
  C     5.691183  5.876270 -4.458287
  C     6.942949  5.469216 -3.864476
  C     5.546375  9.464288 -4.266574
  C     6.838915  9.253641 -3.660425
  N     7.908354  5.210325 -4.724271
  N     5.732374  5.971120 -5.777694
  N     5.081591  5.454073 -2.002871
  N     7.878690  9.212225 -4.527952
  N     5.591948  9.680812 -5.586635
  N     5.169178  9.102559 -1.698102
  S     7.287313  5.582105 -6.230308
  S     4.334477  6.031075 -3.344484
  S     6.742020  5.268423 -2.172654
  S     7.277356  9.566683 -6.013573
  S     4.247319  9.331065 -3.113277
  S     6.756630  8.732252 -1.995755
