16  
    
  C     5.443822  5.741810 -4.141428
  C     6.573553  5.106133 -3.576859
  C     5.562964  9.474834 -4.170984
  C     6.758067  8.924869 -3.546972
  N     7.569967  4.838673 -4.383723
  N     5.572399  6.042476 -5.438045
  N     4.827822  5.281632 -1.709337
  N     7.781222  8.699241 -4.372854
  N     5.675830  9.748958 -5.460237
  N     4.979892  9.043315 -1.673885
  S     7.097241  5.490920 -5.887500
  S     4.123436  5.926461 -3.005368
  S     6.448617  4.878655 -1.864456
  S     7.253486  9.301283 -5.864153
  S     4.225589  9.487870 -3.076653
  S     6.648266  8.750148 -1.810851
