16  
    
  C     5.322253  5.778417 -4.448316
  C     6.575227  5.389070 -3.878014
  C     5.320614  9.605386 -4.555076
  C     6.472246  9.052441 -3.889444
  N     7.605968  5.231399 -4.727023
  N     5.339735  6.014321 -5.774062
  N     4.905368  5.731678 -1.889809
  N     7.525805  8.708446 -4.626141
  N     5.518805  9.566558 -5.843236
  N     4.798458  9.664077 -2.014515
  S     6.875903  5.573346 -6.216072
  S     4.021995  6.114759 -3.280169
  S     6.495298  5.260706 -2.181733
  S     7.037426  9.081265 -6.183843
  S     4.063881 10.065151 -3.474822
  S     6.382837  9.062672 -2.119197
