16  
    
  C     5.533822  5.962788 -4.477403
  C     6.790996  5.622538 -3.932480
  C     5.798393  9.429527 -4.235903
  C     7.064625  9.141168 -3.649125
  N     7.810967  5.598962 -4.798536
  N     5.604805  6.235283 -5.812875
  N     5.016263  5.601719 -1.991525
  N     8.127399  9.091680 -4.484887
  N     5.829018  9.547315 -5.543667
  N     5.352027  9.233840 -1.708057
  S     7.158999  6.035731 -6.298884
  S     4.194408  5.970630 -3.424055
  S     6.624674  5.309716 -2.143169
  S     7.405189  9.279028 -6.017275
  S     4.498371  9.549960 -3.129372
  S     6.917007  8.789779 -1.902164
