16  
    
  C     5.556719  5.919051 -4.264823
  C     6.669100  5.286459 -3.647347
  C     5.949055  9.158876 -3.984505
  C     7.214913  8.777143 -3.373840
  N     7.683330  4.869056 -4.446168
  N     5.715070  6.125327 -5.586237
  N     4.928603  5.747930 -1.780510
  N     8.177921  8.659865 -4.249912
  N     5.944104  9.476935 -5.269114
  N     5.448807  8.897163 -1.509620
  S     7.201545  5.488611 -5.920164
  S     4.166850  6.168465 -3.228818
  S     6.490493  5.197588 -1.907720
  S     7.517130  9.161539 -5.754019
  S     4.606659  9.038521 -2.912637
  S     7.078090  8.419381 -1.660902
