16  
    
  C     5.355813  5.968415 -4.313414
  C     6.624462  5.607001 -3.665190
  C     5.380430  9.374741 -4.379297
  C     6.644355  9.047919 -3.758980
  N     7.606069  5.384668 -4.516477
  N     5.496939  6.060407 -5.616734
  N     4.775633  5.578581 -1.831420
  N     7.630450  8.948184 -4.669481
  N     5.325382  9.474461 -5.700843
  N     4.962425  9.465299 -1.888750
  S     7.075217  5.694031 -6.056335
  S     4.067059  6.071548 -3.259840
  S     6.462156  5.291196 -1.977722
  S     6.926349  9.178618 -6.154107
  S     4.076606  9.694659 -3.285605
  S     6.565609  9.171789 -2.090934
