16  
    
  C     5.533734  5.321498 -4.151916
  C     6.823814  5.109427 -3.533667
  C     5.679443  9.180699 -4.085295
  C     6.909343  8.719052 -3.493953
  N     7.833158  4.965881 -4.379966
  N     5.590446  5.339557 -5.473850
  N     5.030184  5.247246 -1.700334
  N     7.956221  8.607622 -4.287923
  N     5.848052  9.399201 -5.396293
  N     5.264343  9.268199 -1.551954
  S     7.167408  5.238132 -5.886091
  S     4.165210  5.511651 -3.128297
  S     6.686708  5.018741 -1.800507
  S     7.384550  9.036864 -5.806476
  S     4.403305  9.550519 -2.909214
  S     6.816432  8.656076 -1.786159
