16  
    
  C     5.570250  6.098305 -4.376643
  C     6.754395  5.655143 -3.665404
  C     5.437969  9.624718 -4.227961
  C     6.667899  9.275552 -3.600628
  N     7.787242  5.327320 -4.450711
  N     5.811207  6.325538 -5.657616
  N     4.848055  5.826980 -1.953919
  N     7.693283  9.300769 -4.490499
  N     5.460593  9.856608 -5.556858
  N     4.943818  9.506372 -1.702705
  S     7.385941  5.777412 -5.978871
  S     4.151670  6.359472 -3.378331
  S     6.471825  5.574426 -1.936567
  S     7.031821  9.653717 -5.983127
  S     4.037838  9.634180 -3.142388
  S     6.472373  9.056632 -1.956108
