16  
    
  C     5.459494  5.995036 -4.404449
  C     6.703661  5.503577 -3.840270
  C     5.694238  9.777552 -4.569267
  C     6.830797  9.135310 -3.919777
  N     7.625310  5.246978 -4.729821
  N     5.453451  6.227031 -5.713067
  N     4.993877  5.681763 -1.863638
  N     7.753569  8.870412 -4.828607
  N     5.713126  9.938288 -5.883319
  N     5.226999  9.641135 -2.000908
  S     6.985083  5.731593 -6.186088
  S     4.171221  6.216388 -3.195449
  S     6.581683  5.347230 -2.090227
  S     7.216177  9.333530 -6.358766
  S     4.491238 10.236556 -3.425865
  S     6.639025  8.893807 -2.225923
