16  
    
  C     5.664578  5.650668 -4.244977
  C     6.911426  5.225479 -3.683562
  C     5.547410  9.396264 -4.427175
  C     6.626895  8.685199 -3.811105
  N     7.892582  5.127521 -4.562280
  N     5.695267  5.913593 -5.544895
  N     5.279861  5.199012 -1.703644
  N     7.711019  8.484540 -4.550751
  N     5.817272  9.833040 -5.659139
  N     4.717091  8.939322 -2.008073
  S     7.274911  5.524794 -6.020286
  S     4.367552  5.585129 -3.030009
  S     6.905525  4.921447 -1.959198
  S     7.287896  9.253112 -6.058037
  S     4.151004  9.584139 -3.448327
  S     6.297191  8.415676 -2.112366
