16  
    
  C     5.540882  5.775147 -4.347691
  C     6.786469  5.311871 -3.829020
  C     5.308189  9.953625 -4.654734
  C     6.442761  9.293907 -4.040584
  N     7.788698  5.130166 -4.658813
  N     5.611035  5.957968 -5.682469
  N     5.190981  5.540765 -1.861716
  N     7.410271  8.858832 -4.857070
  N     5.413934  9.948397 -5.985408
  N     4.873447  9.776839 -2.050385
  S     7.136917  5.572100 -6.210073
  S     4.374624  6.064820 -3.172417
  S     6.722257  4.960176 -2.156688
  S     6.911805  9.310874 -6.356733
  S     4.140735 10.373195 -3.503056
  S     6.367111  9.088812 -2.318839
