16  
    
  C     5.376471  6.165734 -4.469285
  C     6.535764  5.611381 -3.780076
  C     5.557639  9.532156 -4.158637
  C     6.719104  9.090531 -3.472209
  N     7.538644  5.364769 -4.613691
  N     5.534565  6.440899 -5.760462
  N     4.611358  5.869471 -1.990536
  N     7.789146  9.048127 -4.269946
  N     5.641786  9.844642 -5.466361
  N     4.934967  9.425229 -1.687371
  S     7.097069  5.888414 -6.056513
  S     3.977931  6.445762 -3.406345
  S     6.218167  5.500649 -2.069382
  S     7.233010  9.440829 -5.822292
  S     4.146372  9.602849 -3.175601
  S     6.488258  8.913694 -1.786522
