16  
    
  C     5.876418  5.460709 -4.074860
  C     7.156028  5.113606 -3.530905
  C     5.456012  9.341813 -4.330089
  C     6.568637  8.748738 -3.631212
  N     8.127345  5.139203 -4.471869
  N     5.882190  5.793141 -5.367935
  N     5.465670  5.209346 -1.557900
  N     7.595840  8.340019 -4.378630
  N     5.688677  9.394143 -5.622250
  N     4.712256  9.113138 -1.869876
  S     7.386809  5.443631 -5.902426
  S     4.609846  5.585332 -2.910553
  S     7.013780  4.913917 -1.838967
  S     7.154359  8.780367 -5.929465
  S     4.185573  9.884934 -3.236826
  S     6.278583  8.531457 -1.925107
