16  
    
  C     5.519796  5.955017 -4.537187
  C     6.799419  5.635775 -3.955808
  C     5.818793  9.464636 -4.207793
  C     7.108491  9.124741 -3.619371
  N     7.756259  5.599895 -4.890190
  N     5.567584  6.280330 -5.819301
  N     5.016827  5.639152 -2.014655
  N     8.117037  9.042962 -4.442525
  N     5.802682  9.518241 -5.538525
  N     5.358835  9.166492 -1.708900
  S     7.152515  6.077982 -6.283488
  S     4.172335  5.970763 -3.426949
  S     6.641148  5.335699 -2.172280
  S     7.383340  9.295109 -5.995099
  S     4.459135  9.556239 -3.110085
  S     6.933685  8.760743 -1.886623
