16  
    
  C     5.648854  5.731155 -4.342064
  C     6.892561  5.350675 -3.785227
  C     5.776060  9.665184 -4.288745
  C     7.007489  9.231353 -3.736051
  N     7.919924  5.325902 -4.615193
  N     5.724905  5.897621 -5.654431
  N     5.248401  5.580274 -1.832755
  N     7.915186  9.142037 -4.695635
  N     5.746852  9.982388 -5.595335
  N     5.268164  8.856455 -1.844665
  S     7.292206  5.554546 -6.161442
  S     4.391002  5.927414 -3.178248
  S     6.858516  5.082495 -2.076251
  S     7.314166  9.626239 -6.105173
  S     4.466400  9.461868 -3.141578
  S     6.932779  8.730176 -2.049606
