16  
    
  C     5.458951  6.111749 -4.372814
  C     6.618586  5.745763 -3.593580
  C     5.590156  9.570603 -4.192401
  C     6.812370  9.045163 -3.525484
  N     7.669769  5.490684 -4.370985
  N     5.677406  6.148590 -5.674104
  N     4.678724  6.089177 -1.896390
  N     7.883958  8.898583 -4.295987
  N     5.777110  9.732549 -5.475027
  N     4.802362  9.416811 -1.781119
  S     7.251354  5.750607 -5.970143
  S     4.075976  6.463875 -3.416353
  S     6.232789  5.602255 -1.915264
  S     7.296775  9.229040 -5.822521
  S     4.195462  9.969231 -3.292044
  S     6.433160  9.021327 -1.729769
