16  
    
  C     5.191526  6.262803 -4.585353
  C     6.431489  5.858243 -3.985094
  C     5.533355  9.555490 -4.056356
  C     6.793709  9.224469 -3.458079
  N     7.426456  5.773867 -4.856303
  N     5.242930  6.449178 -5.949212
  N     4.722481  5.806233 -2.050067
  N     7.840475  9.325370 -4.311608
  N     5.555397  9.856476 -5.377126
  N     5.027369  9.008568 -1.577129
  S     6.890416  6.179376 -6.315396
  S     3.918335  6.481388 -3.351768
  S     6.343935  5.548970 -2.272453
  S     7.175875  9.798424 -5.780289
  S     4.127925  9.377570 -2.868474
  S     6.697055  8.635189 -1.842340
