16  
    
  C     5.422189  5.451885 -4.207340
  C     6.614408  5.080472 -3.454986
  C     5.745358  8.933815 -3.943934
  C     7.008829  8.502265 -3.401651
  N     7.685188  4.908561 -4.199572
  N     5.663150  5.572744 -5.503788
  N     4.734008  5.556986 -1.726069
  N     8.058628  8.442805 -4.239538
  N     5.808933  9.030401 -5.279710
  N     5.359763  8.876221 -1.440895
  S     7.207300  5.118510 -5.788570
  S     4.026894  5.835093 -3.209992
  S     6.299756  5.184222 -1.781150
  S     7.347691  8.783227 -5.742632
  S     4.442387  9.127716 -2.805679
  S     6.865421  8.164477 -1.696433
