16  
    
  C     5.672079  5.852294 -3.920031
  C     6.859367  5.183530 -3.434704
  C     5.630833  9.610992 -3.931198
  C     6.860827  9.050422 -3.425910
  N     7.897211  5.249884 -4.283261
  N     5.776483  6.355907 -5.153985
  N     5.060079  4.972868 -1.526279
  N     7.843346  8.906312 -4.320036
  N     5.675279  9.819995 -5.236479
  N     5.021166  8.941604 -1.559024
  S     7.352812  5.875315 -5.651273
  S     4.356304  5.853867 -2.724639
  S     6.657041  4.584297 -1.886009
  S     7.213744  9.426605 -5.786659
  S     4.302439  9.712575 -2.823719
  S     6.641435  8.514505 -1.748936
