16  
    
  C     5.613771  5.901204 -4.102533
  C     6.612784  5.039554 -3.598801
  C     5.691292  9.501417 -4.581566
  C     6.787894  8.811964 -3.929689
  N     7.557662  4.602168 -4.434615
  N     5.749841  6.172855 -5.395422
  N     5.085048  5.714033 -1.543024
  N     7.803655  8.519297 -4.738406
  N     5.875335  9.812080 -5.868696
  N     5.224814  9.447338 -2.006462
  S     7.118810  5.368555 -5.874574
  S     4.477092  6.394253 -2.953327
  S     6.344726  4.695823 -1.874644
  S     7.456436  9.163071 -6.233550
  S     4.392442  9.810026 -3.404854
  S     6.672000  8.661685 -2.223188
