16  
    
  C     5.887879  6.016029 -4.444079
  C     7.050661  5.588062 -3.699059
  C     5.647536  9.511448 -4.403303
  C     6.871279  9.149024 -3.753050
  N     8.074882  5.241958 -4.459523
  N     6.100574  6.074885 -5.739597
  N     5.095907  5.589086 -2.019891
  N     7.895939  9.042193 -4.599865
  N     5.765270  9.724140 -5.745886
  N     5.108067  9.240693 -1.846843
  S     7.680930  5.631952 -6.050626
  S     4.467358  6.172173 -3.459775
  S     6.751413  5.431036 -1.963728
  S     7.301939  9.404931 -6.133343
  S     4.372942  9.759909 -3.272968
  S     6.724105  8.846798 -1.987592
