16  
    
  C     5.581907  6.086795 -4.370660
  C     6.733485  5.619402 -3.638941
  C     5.416766  9.647384 -4.245764
  C     6.658938  9.298773 -3.628836
  N     7.767505  5.358973 -4.438122
  N     5.819193  6.338456 -5.656647
  N     4.866027  5.822662 -1.932039
  N     7.686257  9.280549 -4.489528
  N     5.429850  9.832026 -5.563915
  N     4.942372  9.482721 -1.708129
  S     7.408900  5.784893 -5.995792
  S     4.184786  6.351573 -3.373689
  S     6.444065  5.558704 -1.955078
  S     7.049431  9.643615 -5.966704
  S     4.035066  9.653196 -3.105611
  S     6.479047  9.063215 -1.957817
