16  
    
  C     5.355372  5.877688 -4.299403
  C     6.553706  5.479290 -3.713210
  C     5.604746  9.651476 -4.213838
  C     6.708446  9.058593 -3.540246
  N     7.593855  5.235284 -4.517099
  N     5.443705  6.076442 -5.602335
  N     4.781015  5.813436 -1.779669
  N     7.842137  8.856154 -4.288410
  N     5.857251  9.841367 -5.530556
  N     4.847258  9.318074 -1.804817
  S     6.970066  5.642811 -6.011799
  S     4.054587  6.266393 -3.181900
  S     6.348296  5.237962 -1.952709
  S     7.443417  9.355680 -5.798340
  S     4.118203  9.928200 -3.160545
  S     6.379147  8.750323 -1.874542
