16  
    
  C     5.566679  5.349055 -4.185823
  C     6.820387  5.182883 -3.485026
  C     5.337021  9.191072 -4.353498
  C     6.577384  8.714108 -3.787118
  N     7.854975  4.948112 -4.310296
  N     5.666942  5.322737 -5.509774
  N     4.975699  5.236797 -1.637017
  N     7.560512  8.480088 -4.657620
  N     5.409064  9.359230 -5.667814
  N     4.906583  9.023542 -1.820523
  S     7.255417  5.152547 -5.852856
  S     4.195721  5.547049 -3.099945
  S     6.587314  4.874376 -1.779030
  S     6.920815  8.814993 -6.117447
  S     4.183980  9.737438 -3.140522
  S     6.452390  8.493182 -2.040259
