16  
    
  C     5.484897  5.569230 -4.221917
  C     6.632688  5.152252 -3.519673
  C     5.853916  9.039901 -3.936372
  C     7.139210  8.621645 -3.416595
  N     7.731268  4.924565 -4.279713
  N     5.621049  5.711513 -5.542967
  N     4.838747  5.825105 -1.770730
  N     8.114392  8.491515 -4.273683
  N     5.959172  9.360778 -5.212553
  N     5.404071  8.306059 -1.510516
  S     7.190896  5.213041 -5.834384
  S     4.116299  6.094589 -3.224766
  S     6.362449  5.125090 -1.840055
  S     7.547596  9.027151 -5.719377
  S     4.539302  9.067482 -2.769285
  S     7.045613  8.374428 -1.692825
