16  
    
  C     5.571512  5.730503 -4.352958
  C     6.782075  5.465219 -3.579572
  C     5.666344  9.342014 -4.292667
  C     6.933713  9.182455 -3.593966
  N     7.837981  5.210369 -4.355872
  N     5.723095  5.631199 -5.680188
  N     4.848381  5.691350 -1.875061
  N     8.021389  9.292743 -4.341257
  N     5.786813  9.455076 -5.612267
  N     5.188566  8.968028 -1.763713
  S     7.347291  5.401437 -5.906278
  S     4.181566  5.808690 -3.360700
  S     6.464498  5.409200 -1.887283
  S     7.458169  9.446187 -5.895361
  S     4.321816  9.307569 -3.138807
  S     6.869144  8.740448 -1.926301
