16  
    
  C     5.681609  5.797122 -4.110168
  C     6.770561  5.181636 -3.396606
  C     5.517382  9.410528 -3.995654
  C     6.649272  8.799944 -3.336107
  N     7.791471  4.855877 -4.173252
  N     5.913997  6.065216 -5.394780
  N     4.909680  5.375527 -1.603956
  N     7.709178  8.609442 -4.131904
  N     5.704608  9.748896 -5.268582
  N     4.871353  9.200467 -1.499778
  S     7.524191  5.530331 -5.651024
  S     4.213335  5.914295 -3.079646
  S     6.588632  5.083514 -1.655690
  S     7.217924  9.198652 -5.679881
  S     4.187832  9.615609 -2.973251
  S     6.403098  8.581393 -1.620706
