16  
    
  C     5.604879  5.771503 -4.341523
  C     6.911233  5.418754 -3.767249
  C     5.590763  9.603233 -4.275140
  C     6.917557  9.295282 -3.789999
  N     7.844431  5.307011 -4.710375
  N     5.588261  5.812578 -5.669751
  N     5.191927  5.638402 -1.837064
  N     7.869463  9.213428 -4.692713
  N     5.605005  9.792988 -5.592424
  N     5.276564  9.243452 -1.798515
  S     7.139625  5.637197 -6.207053
  S     4.337172  5.956999 -3.231196
  S     6.835989  5.320118 -2.094218
  S     7.184837  9.531069 -6.101510
  S     4.362669  9.633696 -3.106707
  S     6.858650  8.812722 -2.117059
