16  
    
  C     5.552896  6.617735 -4.548849
  C     6.722789  6.088182 -3.901770
  C     5.645199 10.150339 -4.528395
  C     6.787213  9.505324 -3.789975
  N     7.692261  5.815551 -4.761817
  N     5.637979  6.769971 -5.886720
  N     4.992181  6.515844 -2.043580
  N     7.780985  9.202433 -4.607539
  N     5.831094 10.345161 -5.808693
  N     4.936561  9.914939 -2.077282
  S     7.207038  6.190080 -6.214371
  S     4.283640  7.085309 -3.445402
  S     6.519102  5.915660 -2.187622
  S     7.275269  9.712073 -6.144714
  S     4.225032 10.527203 -3.504894
  S     6.498057  9.587534 -2.068436
