16  
    
  C     5.319722  6.218747 -4.369029
  C     6.462567  5.656475 -3.768227
  C     5.652978  9.563841 -4.289031
  C     6.934000  9.207299 -3.665278
  N     7.470280  5.572920 -4.620758
  N     5.354438  6.445880 -5.667356
  N     4.833396  6.143464 -1.812791
  N     7.938226  9.002913 -4.523719
  N     5.684838  9.678121 -5.584440
  N     5.066654  9.329559 -1.749512
  S     6.926942  5.972386 -6.146203
  S     4.045989  6.516494 -3.252880
  S     6.376824  5.576213 -2.063732
  S     7.257289  9.401130 -5.990085
  S     4.336184  9.714368 -3.244885
  S     6.661724  8.940333 -1.919499
