16  
    
  C     5.812487  5.748174 -4.502970
  C     7.002286  5.413114 -3.726683
  C     5.518215  9.584708 -4.312293
  C     6.788805  9.310196 -3.737418
  N     8.040214  5.291654 -4.504558
  N     6.030854  5.839375 -5.799151
  N     5.227817  5.936647 -1.981741
  N     7.827433  9.266805 -4.582924
  N     5.624835  9.851424 -5.643854
  N     5.087428  9.104107 -1.801080
  S     7.633384  5.470346 -6.125685
  S     4.511845  6.213942 -3.498800
  S     6.770537  5.300946 -2.008936
  S     7.174865  9.543619 -6.050807
  S     4.216072  9.486234 -3.165916
  S     6.739531  8.850052 -2.088906
