16  
    
  C     5.095265  5.877675 -4.293348
  C     6.344180  5.493508 -3.670164
  C     5.461114  9.400433 -4.034567
  C     6.673445  8.866164 -3.438149
  N     7.318914  5.220521 -4.521587
  N     5.231740  6.002682 -5.601325
  N     4.592813  5.879275 -1.788755
  N     7.613055  8.631834 -4.331516
  N     5.473882  9.487688 -5.378073
  N     5.104800  9.551188 -1.452783
  S     6.787334  5.664156 -6.020535
  S     3.767244  6.216500 -3.203705
  S     6.199837  5.487901 -1.909043
  S     6.954196  8.985019 -5.902500
  S     4.272513  9.929721 -2.838756
  S     6.574816  8.750372 -1.686030
