16  
    
  C     5.588223  5.285077 -3.886440
  C     6.862050  5.001484 -3.235468
  C     5.412193  9.347667 -4.207771
  C     6.500806  8.712586 -3.515692
  N     7.908141  4.965693 -4.090810
  N     5.771028  5.504256 -5.195133
  N     5.089918  5.075480 -1.379941
  N     7.520264  8.446793 -4.285097
  N     5.673947  9.637501 -5.488551
  N     4.731938  9.269998 -1.662575
  S     7.341093  5.194168 -5.596764
  S     4.258513  5.389111 -2.826504
  S     6.734765  4.894996 -1.489776
  S     7.233910  9.091853 -5.737415
  S     4.047012  9.704007 -3.121962
  S     6.245719  8.595539 -1.825251
