16  
    
  C     5.634341  5.704636 -4.284783
  C     6.729096  5.053835 -3.594931
  C     5.417108  9.297016 -4.199459
  C     6.609183  8.742944 -3.565494
  N     7.715190  4.660082 -4.391397
  N     5.893779  6.017242 -5.556420
  N     4.995191  5.502232 -1.766042
  N     7.548080  8.311105 -4.377380
  N     5.524508  9.438288 -5.517064
  N     4.828130  9.022893 -1.724930
  S     7.317482  5.256953 -5.948224
  S     4.349930  6.059932 -3.174556
  S     6.594662  4.965679 -1.910992
  S     7.035347  8.829600 -5.921491
  S     4.101193  9.515863 -3.131950
  S     6.410327  8.525868 -1.828058
