16  
    
  C     5.510753  5.970554 -4.744404
  C     6.700852  5.579166 -4.052027
  C     5.649817  9.854048 -4.318660
  C     6.771281  9.207256 -3.720128
  N     7.828082  5.605636 -4.744788
  N     5.709802  6.250332 -6.007124
  N     4.854408  5.708126 -2.261125
  N     7.762251  9.057903 -4.599482
  N     5.807264 10.214682 -5.607987
  N     4.840401  9.231324 -1.968043
  S     7.326105  5.888932 -6.292564
  S     4.192092  6.082833 -3.702170
  S     6.424888  5.356859 -2.312814
  S     7.288167  9.725103 -6.034293
  S     4.211415  9.766790 -3.408017
  S     6.506091  8.859363 -2.019370
