16  
    
  C     5.655492  6.514191 -4.532786
  C     6.817439  5.951370 -3.872356
  C     5.515914 10.008384 -4.616902
  C     6.780256  9.538580 -3.993175
  N     7.801038  5.733027 -4.732897
  N     5.755384  6.695525 -5.808378
  N     5.048667  6.262963 -2.053902
  N     7.754326  9.311488 -4.834541
  N     5.562882 10.094624 -5.927982
  N     5.022626 10.062180 -2.077795
  S     7.254601  6.200983 -6.267971
  S     4.374888  6.802430 -3.450882
  S     6.581040  5.666916 -2.182776
  S     7.102001  9.670984 -6.364194
  S     4.199353 10.361933 -3.588975
  S     6.535609  9.465096 -2.273602
