16  
    
  C     5.528865  5.723558 -4.279687
  C     6.776051  5.344667 -3.586239
  C     5.439802  9.315000 -4.384382
  C     6.708278  8.994739 -3.744409
  N     7.806027  5.308846 -4.420463
  N     5.597514  5.924969 -5.593052
  N     4.991865  5.565509 -1.741381
  N     7.767660  8.953971 -4.542646
  N     5.564442  9.455303 -5.662272
  N     5.038243  9.221199 -1.774343
  S     7.183646  5.497962 -5.970584
  S     4.233712  5.847565 -3.146749
  S     6.582926  5.180991 -1.876804
  S     7.216286  9.288596 -6.035828
  S     4.235019  9.595644 -3.174836
  S     6.585218  8.689181 -1.966910
