16  
    
  C     5.384400  5.968651 -4.418810
  C     6.640864  5.565979 -3.719795
  C     5.284866  9.431411 -4.452420
  C     6.533202  9.232803 -3.761448
  N     7.711988  5.393410 -4.501414
  N     5.505575  5.969539 -5.750264
  N     4.791048  5.667801 -1.912205
  N     7.536142  9.027115 -4.625131
  N     5.337482  9.364264 -5.796181
  N     4.879774  9.279884 -1.845245
  S     7.098545  5.586303 -6.044274
  S     4.024761  6.091150 -3.318244
  S     6.355843  5.218799 -1.982983
  S     6.897060  9.082375 -6.161546
  S     4.052352  9.732867 -3.222485
  S     6.529084  9.054817 -2.039291
