16  
    
  C     5.580983  5.754757 -4.382764
  C     6.897595  5.434675 -3.819670
  C     5.553525  9.591025 -4.330095
  C     6.833093  9.247278 -3.795221
  N     7.881177  5.311256 -4.703384
  N     5.575904  5.855062 -5.710502
  N     5.205203  5.629582 -1.850537
  N     7.834202  9.152332 -4.673173
  N     5.550666  9.747655 -5.638788
  N     5.275667  9.295028 -1.759792
  S     7.130230  5.633982 -6.193448
  S     4.299618  5.963313 -3.230583
  S     6.814703  5.364680 -2.086840
  S     7.178862  9.536226 -6.101937
  S     4.339831  9.668047 -3.098540
  S     6.843552  8.860585 -2.114053
