16  
    
  C     5.581178  6.000898 -4.255438
  C     6.704430  5.348309 -3.627559
  C     5.931869  9.142142 -4.002558
  C     7.212896  8.757647 -3.456306
  N     7.710518  5.117369 -4.459548
  N     5.786580  6.243292 -5.538719
  N     4.889795  5.611067 -1.833447
  N     8.221828  8.782559 -4.307167
  N     6.010223  9.340282 -5.309760
  N     5.460976  9.030541 -1.536947
  S     7.203916  5.507233 -5.987081
  S     4.240749  6.221968 -3.193199
  S     6.495895  5.194744 -1.964935
  S     7.547339  9.195684 -5.764542
  S     4.557780  9.174567 -2.920470
  S     7.019496  8.464503 -1.711578
