16  
    
  C     5.572806  5.976002 -4.445012
  C     6.762361  5.667220 -3.705159
  C     5.624454  9.459736 -4.414766
  C     6.850495  9.153716 -3.744210
  N     7.808754  5.460784 -4.507953
  N     5.736953  6.125130 -5.765295
  N     4.846334  5.755830 -1.943519
  N     7.890797  9.054900 -4.557468
  N     5.667600  9.535863 -5.748926
  N     4.949453  9.483360 -1.923411
  S     7.272164  5.718282 -6.123202
  S     4.172975  6.173799 -3.377229
  S     6.548150  5.684697 -1.956337
  S     7.273251  9.387807 -6.083276
  S     4.312892  9.509762 -3.397716
  S     6.610495  9.041703 -1.953880
