16  
    
  C     5.590726  6.212064 -4.368383
  C     6.720862  5.650124 -3.629660
  C     5.426694  9.591197 -4.272789
  C     6.672892  9.298086 -3.631187
  N     7.754379  5.360219 -4.422234
  N     5.740516  6.258604 -5.693906
  N     4.820950  5.849670 -1.945351
  N     7.711164  9.297394 -4.509919
  N     5.461538  9.935072 -5.569308
  N     4.855812  9.549757 -1.803746
  S     7.262819  5.759757 -5.990430
  S     4.137130  6.382077 -3.397713
  S     6.517935  5.622154 -1.943438
  S     7.050316  9.669546 -6.002181
  S     4.067054  9.582888 -3.227630
  S     6.530250  9.003221 -1.864534
