16  
    
  C     5.312679  6.327280 -4.521779
  C     6.572897  5.980419 -3.880036
  C     5.717132  9.542185 -4.405245
  C     6.970712  9.163819 -3.823025
  N     7.607812  5.698255 -4.695373
  N     5.432159  6.422962 -5.860351
  N     4.795326  6.434284 -1.990786
  N     7.962512  9.140525 -4.687110
  N     5.795637  9.731604 -5.709221
  N     5.295228  9.483927 -1.931313
  S     6.973349  6.027883 -6.310384
  S     4.033323  6.758441 -3.416826
  S     6.412174  5.888648 -2.123500
  S     7.273051  9.320672 -6.222525
  S     4.438402  9.816979 -3.336541
  S     6.905789  9.085011 -1.981659
