16  
    
  C     5.541888  5.457094 -4.307139
  C     6.777935  5.334447 -3.561714
  C     5.684275  9.373727 -4.230617
  C     6.947237  9.232492 -3.561558
  N     7.882379  5.237341 -4.335906
  N     5.680602  5.457774 -5.655658
  N     4.965368  5.761464 -1.781442
  N     7.977435  9.311011 -4.366189
  N     5.784714  9.492987 -5.551679
  N     5.175130  8.918439 -1.715554
  S     7.318831  5.380003 -5.924818
  S     4.248624  5.783936 -3.291542
  S     6.592477  5.444472 -1.824798
  S     7.388438  9.412687 -5.915546
  S     4.328111  9.195034 -3.154693
  S     6.804899  8.769886 -1.891981
