16  
    
  C     5.270299  6.274072 -4.522967
  C     6.365251  5.773641 -3.747212
  C     5.417633  9.984333 -4.135067
  C     6.655149  9.639752 -3.553909
  N     7.514472  5.580905 -4.434762
  N     5.527900  6.533575 -5.799206
  N     4.496656  6.085890 -2.053262
  N     7.638428  9.693645 -4.427515
  N     5.462242 10.314511 -5.451975
  N     5.064678  9.433094 -1.629295
  S     7.084560  6.059252 -6.055078
  S     3.818710  6.552051 -3.491037
  S     6.070630  5.478492 -2.118563
  S     7.045640 10.086104 -5.874860
  S     4.122309  9.719548 -3.018829
  S     6.660275  9.326804 -1.899561
