16  
    
  C     5.712974  5.661646 -4.202071
  C     6.826366  5.044963 -3.546497
  C     5.394654  9.305893 -4.231920
  C     6.512812  8.604338 -3.640789
  N     7.819350  4.745910 -4.376894
  N     5.776430  5.767994 -5.519922
  N     4.966291  5.457215 -1.755623
  N     7.520252  8.311283 -4.463846
  N     5.551643  9.489906 -5.524535
  N     4.870726  9.133421 -1.694444
  S     7.315525  5.254936 -5.940711
  S     4.329069  5.963301 -3.176929
  S     6.574446  4.894306 -1.817878
  S     6.983001  8.787819 -6.009745
  S     4.110688  9.575694 -3.099046
  S     6.421577  8.484328 -1.924529
