16  
    
  C     5.537208  6.082203 -4.303770
  C     6.593269  5.492229 -3.625995
  C     5.687863  9.651945 -4.229546
  C     6.830702  9.023848 -3.588302
  N     7.621467  5.221590 -4.395757
  N     5.687558  6.266299 -5.610185
  N     4.685364  5.665076 -1.953432
  N     7.832055  8.719841 -4.361644
  N     5.897978  9.905137 -5.507052
  N     5.220539  9.579219 -1.720042
  S     7.250459  5.684308 -5.958866
  S     4.052839  6.293712 -3.374482
  S     6.279801  5.180560 -1.917355
  S     7.367461  9.256739 -5.899923
  S     4.391458  9.925434 -3.148786
  S     6.680898  8.815388 -1.848017
