16  
    
  C     5.451496  6.037017 -4.226875
  C     6.691769  5.448249 -3.659803
  C     5.369778  9.546026 -4.387844
  C     6.538556  9.096918 -3.742933
  N     7.668532  5.225521 -4.535532
  N     5.598632  6.444665 -5.486617
  N     4.953954  5.574509 -1.719082
  N     7.597646  9.025036 -4.529852
  N     5.467920  9.800636 -5.720393
  N     4.920266  9.160812 -1.886526
  S     7.094453  5.943295 -5.969089
  S     4.184053  6.151316 -3.107990
  S     6.550366  5.125508 -1.921390
  S     7.091178  9.447853 -6.072674
  S     4.114466  9.615721 -3.211059
  S     6.530594  8.872832 -2.071536
