16  
    
  C     5.632942  5.835891 -4.338363
  C     6.834088  5.476751 -3.664724
  C     5.805356  9.471538 -4.453327
  C     6.987388  9.070538 -3.743789
  N     7.827445  5.324404 -4.549111
  N     5.704813  6.069682 -5.620882
  N     5.009977  5.752347 -1.777450
  N     8.053225  9.006988 -4.502693
  N     5.917586  9.733598 -5.793690
  N     5.086947  9.302998 -1.953605
  S     7.281110  5.724927 -6.015801
  S     4.258136  6.119165 -3.245029
  S     6.574358  5.318210 -1.929147
  S     7.512635  9.289088 -6.110393
  S     4.399912  9.512307 -3.424623
  S     6.724833  9.089563 -2.019254
