16  
    
  C     5.599488  6.335511 -4.586465
  C     6.532801  5.581056 -3.829505
  C     5.775718  9.469372 -4.401721
  C     7.012454  9.050903 -3.742193
  N     7.624306  5.229183 -4.536765
  N     5.942971  6.577160 -5.880760
  N     4.611704  5.862452 -2.184456
  N     8.054437  9.011107 -4.540678
  N     5.875874  9.667590 -5.706139
  N     5.108579  9.248401 -1.943013
  S     7.471967  5.963163 -5.990317
  S     4.116519  6.558391 -3.641159
  S     6.025774  5.027627 -2.288332
  S     7.490701  9.390642 -6.087474
  S     4.405139  9.629037 -3.395193
  S     6.719792  8.739141 -2.008491
