16  
    
  C     5.271355  5.816070 -4.468186
  C     6.507825  5.339415 -3.901962
  C     5.350652  9.581127 -4.533974
  C     6.501601  9.102680 -3.796219
  N     7.520847  5.209987 -4.736953
  N     5.361160  5.920473 -5.780497
  N     4.882828  5.734502 -1.935522
  N     7.482893  8.767121 -4.605344
  N     5.454053  9.572081 -5.888851
  N     4.836660  9.651896 -2.015202
  S     6.907301  5.621783 -6.220196
  S     4.055631  6.128526 -3.285852
  S     6.443752  5.259440 -2.155109
  S     7.040527  9.023451 -6.128343
  S     4.052417 10.108806 -3.493507
  S     6.371241  8.976305 -2.104631
