16  
    
  C     5.249724  6.285853 -4.358265
  C     6.310762  5.577589 -3.707955
  C     5.621467  9.570340 -4.221511
  C     6.777393  9.048662 -3.557787
  N     7.380640  5.329364 -4.455632
  N     5.503179  6.504277 -5.634728
  N     4.577864  6.266865 -1.880564
  N     7.742846  8.717635 -4.414316
  N     5.745133  9.779994 -5.544750
  N     5.184389  9.487247 -1.685079
  S     6.978302  5.881479 -5.974854
  S     3.860054  6.625330 -3.317238
  S     6.133834  5.575185 -1.906364
  S     7.248446  9.241786 -5.954609
  S     4.322730  9.837729 -3.046175
  S     6.747635  8.952254 -1.852448
