16  
    
  C     5.242501  6.278704 -4.478416
  C     6.424811  5.790845 -3.762442
  C     5.350669 10.001349 -4.176031
  C     6.663141  9.665480 -3.608818
  N     7.503392  5.626241 -4.457676
  N     5.533892  6.469955 -5.757006
  N     4.476802  6.055148 -2.081198
  N     7.712720  9.747347 -4.426725
  N     5.455376 10.359515 -5.429287
  N     4.985652  9.531698 -1.694854
  S     7.087477  6.064867 -6.033219
  S     3.878240  6.641568 -3.518302
  S     6.079729  5.499845 -2.063940
  S     7.080912 10.110089 -5.913839
  S     4.084187  9.777801 -3.026944
  S     6.699302  9.367527 -1.885567
