16  
    
  C     5.603579  6.155033 -4.411732
  C     6.764559  5.811548 -3.714019
  C     5.655768  9.663611 -4.376254
  C     6.903825  9.213735 -3.745240
  N     7.785642  5.565997 -4.520426
  N     5.709005  6.221203 -5.706438
  N     4.914737  6.034757 -1.983343
  N     7.907024  8.892004 -4.587315
  N     5.682281  9.657670 -5.697747
  N     4.935534  9.638680 -1.949636
  S     7.267891  5.814043 -6.057875
  S     4.218740  6.513889 -3.435058
  S     6.563889  5.702651 -1.996336
  S     7.282717  9.330019 -6.102313
  S     4.278685  9.864841 -3.376957
  S     6.524744  9.045194 -1.992629
