16  
    
  C     5.491368  5.662808 -4.351166
  C     6.590109  5.026522 -3.662896
  C     5.486681  9.723284 -4.601991
  C     6.657104  9.190473 -3.954700
  N     7.661586  4.934243 -4.412557
  N     5.718726  5.884795 -5.627222
  N     4.860112  5.547455 -1.850528
  N     7.685513  9.106680 -4.815313
  N     5.582061 10.099788 -5.863030
  N     4.821739  9.346896 -2.146173
  S     7.298754  5.411686 -5.993517
  S     4.162547  5.968181 -3.336965
  S     6.347031  4.760857 -2.000607
  S     7.197218  9.775627 -6.224849
  S     4.236654  9.985069 -3.539581
  S     6.397283  8.823961 -2.245078
