16  
    
  C     5.774193  5.386850 -4.251394
  C     6.977315  4.986286 -3.529439
  C     5.691850  9.523944 -4.402643
  C     6.846825  8.959040 -3.750687
  N     8.042725  4.776824 -4.275892
  N     5.996474  5.557005 -5.565034
  N     5.112186  5.322566 -1.746221
  N     7.904201  8.762107 -4.543733
  N     5.885754  9.882328 -5.663829
  N     4.914596  9.121716 -2.015257
  S     7.556274  5.093372 -5.864470
  S     4.381785  5.631611 -3.189748
  S     6.743481  4.824884 -1.880269
  S     7.429859  9.466975 -6.040698
  S     4.269029  9.669214 -3.414666
  S     6.519746  8.660427 -2.046332
