16  
    
  C     5.625197  5.978857 -4.534997
  C     6.782789  5.560244 -3.857826
  C     5.555632  9.883651 -4.376627
  C     6.741694  9.285129 -3.787040
  N     7.819002  5.337274 -4.698309
  N     5.799474  6.256236 -5.828592
  N     4.987447  5.793214 -2.016817
  N     7.798310  9.014434 -4.572864
  N     5.744236 10.037286 -5.692985
  N     4.982199  9.298730 -1.865494
  S     7.371674  5.785806 -6.182394
  S     4.178142  6.145080 -3.478430
  S     6.612486  5.257593 -2.139681
  S     7.367125  9.654593 -6.020032
  S     4.132238  9.886870 -3.257962
  S     6.541902  8.907258 -2.117143
