16  
    
  C     5.495136  6.617038 -4.502862
  C     6.610841  5.973890 -3.883057
  C     5.550006 10.208805 -4.420950
  C     6.730690  9.765429 -3.768871
  N     7.569959  5.595494 -4.714556
  N     5.640193  6.822546 -5.791610
  N     4.866175  6.579058 -2.000250
  N     7.842375  9.491456 -4.474241
  N     5.719135 10.297808 -5.738570
  N     4.918676  9.872817 -1.882594
  S     7.139898  6.117478 -6.156117
  S     4.148578  6.894865 -3.480887
  S     6.371083  5.912767 -2.100777
  S     7.319645  9.922809 -6.022794
  S     4.165718 10.293314 -3.332144
  S     6.466829  9.528901 -2.019791
