16  
    
  C     5.529050  6.179816 -4.669528
  C     6.652480  5.612899 -4.000498
  C     5.668308  9.776195 -4.425678
  C     6.836505  9.228395 -3.774407
  N     7.756416  5.341385 -4.740357
  N     5.839807  6.374856 -5.972221
  N     4.737125  5.727868 -2.293955
  N     7.849849  9.048596 -4.620413
  N     5.875793 10.113084 -5.670629
  N     4.967326  9.251689 -2.012068
  S     7.413834  5.981408 -6.200059
  S     4.040118  6.377881 -3.727782
  S     6.320573  5.276811 -2.270641
  S     7.417434  9.560785 -6.068860
  S     4.216903  9.747365 -3.383915
  S     6.556071  8.832536 -2.139376
