16  
    
  C     5.382409  6.044493 -4.433131
  C     6.580823  5.636952 -3.692097
  C     5.669993  9.631082 -4.272596
  C     6.794750  9.074090 -3.580377
  N     7.631995  5.411063 -4.487202
  N     5.532994  6.220167 -5.750916
  N     4.731936  5.917929 -1.990344
  N     7.780890  8.842524 -4.398578
  N     5.782980  9.818034 -5.563560
  N     4.921578  9.387906 -1.772687
  S     7.107735  5.822543 -6.056374
  S     4.049284  6.451842 -3.379443
  S     6.332157  5.411679 -1.987196
  S     7.387186  9.404063 -5.949004
  S     4.232977  9.796682 -3.270736
  S     6.544060  8.900837 -1.878984
