16  
    
  C     5.627331  5.740763 -4.348041
  C     6.866886  5.240050 -3.791363
  C     5.232423  9.820176 -4.660942
  C     6.377147  9.226970 -3.996809
  N     7.834635  5.035632 -4.682881
  N     5.699913  5.919447 -5.676103
  N     5.190902  5.485859 -1.828141
  N     7.411841  8.906806 -4.820103
  N     5.395823  9.929106 -5.990782
  N     4.654301  9.745937 -2.167318
  S     7.267117  5.459745 -6.103428
  S     4.336794  6.010697 -3.178750
  S     6.778831  5.015362 -2.048739
  S     6.900991  9.325378 -6.332188
  S     3.990561 10.373349 -3.486917
  S     6.234796  9.129438 -2.262462
