16  
    
  C     5.558126  5.316861 -4.154725
  C     6.821608  5.114157 -3.478782
  C     5.711634  9.166703 -4.030668
  C     6.966437  8.832596 -3.399321
  N     7.847527  5.018645 -4.311509
  N     5.603478  5.467287 -5.477304
  N     5.032829  5.242370 -1.633273
  N     7.965792  8.677947 -4.260573
  N     5.777894  9.323639 -5.358360
  N     5.316260  9.200807 -1.525423
  S     7.164380  5.165094 -5.847648
  S     4.284775  5.545605 -3.057515
  S     6.690646  5.065336 -1.745958
  S     7.386113  9.060188 -5.737287
  S     4.457121  9.600090 -2.932543
  S     6.884959  8.727661 -1.647806
