16  
    
  C     5.591230  5.304203 -4.165413
  C     6.801113  5.015548 -3.496326
  C     5.379993  9.334724 -4.377248
  C     6.566903  8.769117 -3.783108
  N     7.821418  5.009901 -4.339920
  N     5.577844  5.387232 -5.483437
  N     4.966882  5.198718 -1.670921
  N     7.530512  8.475170 -4.628984
  N     5.418179  9.343031 -5.724562
  N     4.908046  9.049472 -1.840860
  S     7.190153  5.117756 -5.879818
  S     4.242938  5.340991 -3.110612
  S     6.618937  4.977510 -1.721139
  S     6.931455  8.792979 -6.178482
  S     4.146597  9.676220 -3.192332
  S     6.479446  8.518020 -2.072506
