16  
    
  C     5.483077  5.962424 -4.421030
  C     6.689530  5.721652 -3.624459
  C     5.556509  9.654161 -4.338093
  C     6.706326  9.204052 -3.597199
  N     7.772057  5.553183 -4.375527
  N     5.741020  6.048247 -5.718704
  N     4.804019  6.095616 -1.931726
  N     7.824452  8.895180 -4.291345
  N     5.805513  9.627327 -5.663853
  N     4.902744  9.430184 -1.768755
  S     7.379814  5.734914 -5.935626
  S     4.113139  6.358719 -3.494916
  S     6.392258  5.603629 -1.969962
  S     7.433513  9.236372 -5.830028
  S     4.205171  9.747723 -3.295769
  S     6.496989  9.064798 -1.868435
