16  
    
  C     5.527227  6.022019 -4.572441
  C     6.534750  5.311871 -3.832610
  C     5.769598  9.595699 -4.390556
  C     6.968855  9.116491 -3.715675
  N     7.703880  5.267913 -4.422881
  N     5.888161  6.472614 -5.750048
  N     4.639031  5.832462 -2.188923
  N     8.066252  8.895428 -4.441259
  N     5.957946  9.784494 -5.706335
  N     5.184827  9.206069 -1.843335
  S     7.473795  5.902126 -5.985988
  S     4.069473  6.461037 -3.618275
  S     6.092292  5.053494 -2.170866
  S     7.535716  9.300821 -6.037742
  S     4.383437  9.455260 -3.280857
  S     6.804322  8.800632 -2.051759
