16  
    
  C     5.499927  6.169961 -4.452095
  C     6.743240  5.592747 -3.967288
  C     5.414375  9.998727 -4.420196
  C     6.605966  9.441350 -3.778063
  N     7.696839  5.470336 -4.870588
  N     5.434813  6.316933 -5.783886
  N     5.271449  5.851805 -1.901117
  N     7.610723  9.083147 -4.552298
  N     5.664084 10.113933 -5.689803
  N     4.767252  9.427921 -2.014370
  S     6.953963  5.807913 -6.285270
  S     4.339786  6.352012 -3.213036
  S     6.758835  5.293580 -2.285010
  S     7.192246  9.523889 -6.091352
  S     4.111879 10.253881 -3.286901
  S     6.382219  9.005554 -2.102223
