16  
    
  C     5.688470  5.665098 -4.145142
  C     6.862731  5.231534 -3.398735
  C     5.495844  9.486977 -4.080523
  C     6.673041  8.961267 -3.437242
  N     7.919707  5.050379 -4.185844
  N     5.855692  5.883944 -5.455367
  N     4.885971  5.542241 -1.697556
  N     7.682833  8.584501 -4.189569
  N     5.705238  9.668168 -5.384013
  N     4.813328  8.962920 -1.627597
  S     7.396331  5.291474 -5.734483
  S     4.277548  6.012348 -3.179339
  S     6.459637  5.062139 -1.733387
  S     7.239585  9.095445 -5.757802
  S     4.094651  9.598354 -3.048269
  S     6.437848  8.570274 -1.761152
