16  
    
  C     5.582024  5.365891 -4.189594
  C     6.816221  5.189000 -3.480935
  C     5.329381  9.187553 -4.335609
  C     6.574540  8.695460 -3.787320
  N     7.854028  4.948110 -4.278426
  N     5.681647  5.318388 -5.513421
  N     4.989050  5.248139 -1.634059
  N     7.572909  8.466945 -4.637613
  N     5.401366  9.355649 -5.659575
  N     4.910215  9.019776 -1.808167
  S     7.266158  5.156861 -5.859065
  S     4.177820  5.583380 -3.096530
  S     6.588157  4.858899 -1.795635
  S     6.917155  8.825634 -6.112582
  S     4.192625  9.741730 -3.142788
  S     6.447734  8.491077 -2.037058
