16  
    
  C     5.478844  5.835250 -4.487849
  C     6.718902  5.525452 -3.799245
  C     5.628694  9.192643 -4.098374
  C     6.883317  8.864220 -3.457865
  N     7.796920  5.509059 -4.587460
  N     5.629133  6.125201 -5.794295
  N     4.930254  5.716043 -1.966062
  N     7.843946  8.714056 -4.349465
  N     5.646049  9.438395 -5.411327
  N     5.113763  8.756407 -1.616868
  S     7.225167  5.793841 -6.129512
  S     4.162081  5.851641 -3.392125
  S     6.577645  5.487284 -2.057251
  S     7.245580  9.058468 -5.816867
  S     4.276173  9.146655 -3.085834
  S     6.778862  8.621207 -1.749885
