16  
    
  C     5.604560  6.092661 -4.540970
  C     6.780409  5.531828 -3.851846
  C     5.578409  9.793910 -4.379810
  C     6.728311  9.234943 -3.748113
  N     7.828450  5.297052 -4.628213
  N     5.825212  6.281609 -5.831071
  N     4.953756  5.825078 -2.020150
  N     7.785089  9.040232 -4.523349
  N     5.756672 10.096089 -5.660106
  N     4.846389  9.360850 -1.939130
  S     7.377053  5.833160 -6.234053
  S     4.250723  6.121016 -3.452604
  S     6.571570  5.356184 -2.128513
  S     7.341447  9.591700 -6.044942
  S     4.202003  9.862014 -3.326887
  S     6.536618  8.935722 -2.107620
