16  
    
  C     5.251596  5.499517 -4.139648
  C     6.349486  4.870687 -3.567200
  C     5.486229  9.480675 -4.376599
  C     6.667985  8.948111 -3.761088
  N     7.280686  4.514963 -4.434894
  N     5.289610  5.618211 -5.459797
  N     4.660472  5.239295 -1.649815
  N     7.706755  8.726686 -4.568931
  N     5.659873  9.630662 -5.661114
  N     4.936471  9.308805 -1.870437
  S     6.779573  5.013665 -5.883939
  S     3.935179  5.842972 -3.015870
  S     6.211369  4.683704 -1.917128
  S     7.163192  9.118805 -6.050315
  S     4.150707  9.647738 -3.273596
  S     6.555350  8.996337 -2.040390
