16  
    
  C     5.167814  5.910981 -4.273935
  C     6.344479  5.482998 -3.689570
  C     5.469954  9.495520 -4.071212
  C     6.605124  8.871120 -3.470610
  N     7.310442  5.146473 -4.549303
  N     5.284461  6.103376 -5.582052
  N     4.662062  5.760858 -1.771064
  N     7.509604  8.470628 -4.369270
  N     5.452519  9.623359 -5.390815
  N     4.975074  9.259057 -1.527442
  S     6.778277  5.524461 -6.035004
  S     3.851148  6.077547 -3.194304
  S     6.272476  5.357968 -1.971571
  S     6.893805  8.934051 -5.835253
  S     4.175916  9.774604 -2.927754
  S     6.595926  8.902463 -1.802409
