16  
    
  C     5.497559  5.971303 -4.505161
  C     6.594498  5.319338 -3.773716
  C     5.789829  9.543094 -4.335542
  C     7.000482  9.076599 -3.707420
  N     7.754954  5.184748 -4.503007
  N     5.900349  6.295744 -5.749633
  N     4.600516  5.750707 -2.167829
  N     8.024120  8.915293 -4.506361
  N     5.953048  9.772199 -5.636039
  N     5.172156  9.142242 -1.863740
  S     7.453636  5.868142 -5.956662
  S     4.023486  6.391168 -3.609551
  S     6.162574  5.099809 -2.079983
  S     7.533981  9.314991 -5.989598
  S     4.396883  9.427800 -3.265248
  S     6.836805  8.829574 -2.014479
