16  
    
  C     5.689616  5.598418 -4.287699
  C     6.910851  5.224339 -3.689251
  C     5.757666  9.782141 -4.400365
  C     6.914253  9.194010 -3.785522
  N     7.977784  5.288290 -4.480322
  N     5.745896  6.026249 -5.557285
  N     5.198352  5.310270 -1.703226
  N     7.903143  8.925593 -4.626824
  N     5.892126 10.034944 -5.673654
  N     5.142025  9.020903 -1.938099
  S     7.343608  5.725007 -5.982666
  S     4.379281  5.669339 -3.084715
  S     6.867498  5.017696 -1.922156
  S     7.379764  9.474761 -6.153368
  S     4.417658  9.626827 -3.287537
  S     6.769188  8.810685 -2.090789
