16  
    
  C     5.637480  5.693356 -4.243673
  C     6.791420  5.276025 -3.465822
  C     5.528683  9.347673 -4.166641
  C     6.694943  8.805680 -3.541419
  N     7.813819  5.036492 -4.268958
  N     5.752284  5.638886 -5.563141
  N     4.937544  5.671242 -1.743589
  N     7.742879  8.700977 -4.376238
  N     5.646095  9.581648 -5.472545
  N     4.837906  8.966586 -1.744826
  S     7.394732  5.310904 -5.857853
  S     4.252660  6.072222 -3.193069
  S     6.462164  4.973943 -1.776560
  S     7.195541  9.108217 -5.856839
  S     4.211778  9.584705 -3.137682
  S     6.426077  8.566827 -1.784841
