16  
    
  C     5.691753  5.413466 -4.175085
  C     6.875518  4.947360 -3.529093
  C     5.451778  9.373045 -4.666862
  C     6.624610  8.822986 -4.019072
  N     7.899677  4.670705 -4.344817
  N     5.784228  5.689726 -5.504950
  N     5.118198  5.074084 -1.650007
  N     7.657171  8.538362 -4.805143
  N     5.586960  9.502968 -5.987402
  N     4.825841  9.235066 -2.177577
  S     7.382108  5.286254 -5.794903
  S     4.281116  5.352005 -3.087236
  S     6.743085  4.824742 -1.745121
  S     7.081630  9.003689 -6.352321
  S     4.135008  9.701692 -3.646302
  S     6.488620  8.873875 -2.277607
