16  
    
  C     5.421417  6.067372 -4.356472
  C     6.614614  5.510982 -3.784319
  C     5.713916  9.781856 -4.509055
  C     6.873446  9.203430 -3.933490
  N     7.655623  5.305986 -4.627473
  N     5.480142  6.163113 -5.678577
  N     4.937499  5.772226 -1.854009
  N     7.797574  8.838488 -4.804185
  N     5.754733  9.884337 -5.829689
  N     5.166382  9.633804 -2.039987
  S     6.977265  5.751791 -6.183647
  S     4.178791  6.242798 -3.247407
  S     6.570879  5.345284 -2.089840
  S     7.258825  9.334090 -6.295300
  S     4.514401 10.170709 -3.424065
  S     6.616419  8.851637 -2.138316
