16  
    
  C     5.498976  6.123344 -4.421857
  C     6.711065  5.742695 -3.698061
  C     5.407475  9.696522 -4.288775
  C     6.625814  9.327292 -3.695705
  N     7.730189  5.476298 -4.525995
  N     5.618401  6.290245 -5.752998
  N     4.817535  5.954140 -1.895212
  N     7.727454  9.196824 -4.471679
  N     5.584034  9.838921 -5.614105
  N     4.911064  9.396022 -1.777187
  S     7.145485  5.749664 -6.049553
  S     4.174171  6.440834 -3.271949
  S     6.441348  5.621602 -1.966848
  S     7.174207  9.642121 -5.980873
  S     4.089621  9.558473 -3.202157
  S     6.516433  9.021195 -1.986684
