16  
    
  C     5.636370  5.415887 -4.241090
  C     6.898468  5.346853 -3.546665
  C     5.220585  9.913900 -4.618769
  C     6.299242  9.267424 -3.937663
  N     7.989963  5.231206 -4.286708
  N     5.771719  5.393200 -5.589440
  N     5.065802  5.571523 -1.771297
  N     7.263510  8.927774 -4.768071
  N     5.306628 10.024075 -5.900330
  N     4.511052  9.866199 -2.157115
  S     7.353214  5.283674 -5.941174
  S     4.283531  5.702990 -3.205323
  S     6.702142  5.334685 -1.823443
  S     6.872610  9.476300 -6.297216
  S     3.923780 10.354194 -3.612978
  S     6.091687  9.101085 -2.202535
