16  
    
  C     5.531225  6.285715 -4.402029
  C     6.704049  5.866093 -3.723824
  C     5.669572  9.703149 -4.394574
  C     6.906600  9.341787 -3.718125
  N     7.752723  5.671082 -4.578955
  N     5.627155  6.481081 -5.744311
  N     4.876953  6.310088 -1.960045
  N     7.940360  9.310022 -4.561937
  N     5.715526  9.966516 -5.698643
  N     4.984457  9.537907 -1.866343
  S     7.210582  6.036570 -6.038992
  S     4.148333  6.641362 -3.408880
  S     6.440751  5.817168 -2.011439
  S     7.279363  9.548507 -6.132156
  S     4.278572  9.833162 -3.394807
  S     6.626573  9.285817 -2.005109
