16  
    
  C     5.592531  6.012271 -4.440120
  C     6.774098  5.650729 -3.702368
  C     5.546742  9.451657 -4.354755
  C     6.797000  9.165482 -3.699399
  N     7.870883  5.477568 -4.458014
  N     5.699232  6.045917 -5.771658
  N     4.858005  5.887394 -1.963636
  N     7.896864  9.042387 -4.421504
  N     5.810323  9.672858 -5.639740
  N     5.027470  9.500410 -1.866017
  S     7.354294  5.728392 -6.019837
  S     4.154175  6.243996 -3.457007
  S     6.463461  5.667323 -1.940728
  S     7.386374  9.276701 -6.018296
  S     4.149698  9.611837 -3.339503
  S     6.587112  9.085550 -1.921022
