16  
    
  C     5.505474  5.806614 -4.341565
  C     6.582806  5.269715 -3.630661
  C     5.709555  9.257981 -4.191532
  C     6.982314  8.902007 -3.606722
  N     7.620332  5.037492 -4.408761
  N     5.714176  6.077186 -5.614009
  N     4.683619  5.600584 -1.925537
  N     8.004762  8.794146 -4.424594
  N     5.791043  9.394156 -5.499588
  N     5.235937  8.794676 -1.668058
  S     7.297833  5.596498 -5.956377
  S     4.102703  5.974094 -3.409195
  S     6.289554  5.076871 -1.927431
  S     7.426981  9.159201 -5.979415
  S     4.390837  8.998373 -3.079377
  S     6.857835  8.578873 -1.865131
