16  
    
  C     5.682669  5.707723 -4.423824
  C     6.910555  5.367959 -3.845198
  C     5.162672  9.629276 -4.422977
  C     6.371741  9.159566 -3.811705
  N     7.912430  5.306514 -4.702809
  N     5.647795  5.731167 -5.757215
  N     5.244120  5.656606 -1.850234
  N     7.389034  8.895502 -4.632102
  N     5.300761  9.756664 -5.759204
  N     4.862123  9.593754 -1.844614
  S     7.218094  5.440174 -6.201850
  S     4.370913  5.888531 -3.292304
  S     6.835197  5.150447 -2.075396
  S     6.824102  9.370506 -6.124958
  S     4.023178 10.156503 -3.188464
  S     6.426268  9.103738 -2.075921
