16  
    
  C     5.746991  5.870251 -4.388333
  C     7.009557  5.399416 -3.864362
  C     5.705644  9.322141 -4.038030
  C     6.945267  8.730448 -3.597762
  N     7.924509  5.436806 -4.827962
  N     5.720314  6.233293 -5.648731
  N     5.259470  5.163790 -2.022965
  N     7.899459  8.621170 -4.546616
  N     5.699902  9.694419 -5.313117
  N     5.491739  8.838317 -1.449687
  S     7.276846  5.921430 -6.255581
  S     4.448917  5.792163 -3.305854
  S     6.875128  4.823524 -2.211734
  S     7.267617  9.302333 -5.922247
  S     4.580659  9.413410 -2.743737
  S     7.016519  8.378557 -1.862429
