16  
    
  C     5.041794  6.258473 -4.513939
  C     6.294588  5.961477 -3.905318
  C     5.371778  9.616227 -4.129875
  C     6.682655  9.285108 -3.611608
  N     7.357352  5.954635 -4.699033
  N     5.192345  6.532792 -5.829330
  N     4.599170  6.030094 -2.070368
  N     7.706102  9.273277 -4.469829
  N     5.456790  9.851198 -5.418642
  N     5.029423  9.149782 -1.547381
  S     6.762142  6.321869 -6.251568
  S     3.778302  6.419733 -3.415590
  S     6.198267  5.645982 -2.235545
  S     6.998664  9.657460 -5.910517
  S     4.049517  9.488689 -2.955093
  S     6.627492  8.988217 -1.902796
