16  
    
  C     5.451434  5.657320 -4.324104
  C     6.707698  5.411401 -3.676971
  C     5.301919 10.190723 -4.587867
  C     6.347429  9.447387 -4.019630
  N     7.773586  5.282872 -4.511638
  N     5.525737  5.661693 -5.638862
  N     4.953099  5.536678 -1.743145
  N     7.324542  8.972985 -4.817431
  N     5.529565 10.398763 -5.925598
  N     4.645680  9.595600 -2.116967
  S     7.167643  5.399856 -5.985514
  S     4.101165  5.555500 -3.177750
  S     6.607198  5.363550 -1.915107
  S     6.932913  9.626288 -6.281566
  S     4.026095 10.495402 -3.468180
  S     6.216746  9.124873 -2.263288
