16  
    
  C     5.422842  5.587818 -4.389842
  C     6.572229  5.144887 -3.664581
  C     5.473753  9.086705 -4.236588
  C     6.770230  8.860026 -3.616183
  N     7.611129  4.858115 -4.464765
  N     5.581458  5.719436 -5.708212
  N     4.630897  5.677624 -1.957063
  N     7.802800  8.643752 -4.419789
  N     5.547214  9.043851 -5.544998
  N     5.005111  9.011622 -1.685128
  S     7.205972  5.273470 -6.025302
  S     3.929275  5.834654 -3.436402
  S     6.185539  5.015674 -1.946089
  S     7.089613  8.724306 -5.992763
  S     4.192654  9.372070 -3.122119
  S     6.639200  8.794796 -1.898591
