16  
    
  C     5.643328  5.795470 -4.341803
  C     6.850262  5.394163 -3.747527
  C     5.514452  9.371869 -4.683555
  C     6.741953  9.099141 -3.985061
  N     7.814126  5.196758 -4.635555
  N     5.720541  5.965256 -5.652633
  N     5.176241  5.723411 -1.801818
  N     7.853221  9.275995 -4.704899
  N     5.679329  9.696148 -6.002285
  N     4.871731  9.211039 -2.161677
  S     7.200382  5.432996 -6.133725
  S     4.325091  6.024501 -3.218875
  S     6.746181  5.030211 -2.030232
  S     7.378450  9.759579 -6.174983
  S     4.145723  9.569637 -3.610614
  S     6.493331  8.972608 -2.254818
