16  
    
  C     5.728345  5.656705 -4.218818
  C     6.970652  5.240082 -3.686851
  C     5.768468  9.751129 -4.377306
  C     7.008185  9.196295 -3.859475
  N     7.940119  5.257393 -4.587769
  N     5.770694  5.922895 -5.514728
  N     5.292860  5.190544 -1.773521
  N     8.038258  9.027479 -4.708048
  N     5.920596 10.087414 -5.622866
  N     5.204366  9.218609 -1.941345
  S     7.330206  5.821224 -6.013953
  S     4.371042  5.663794 -3.092668
  S     6.895549  4.886278 -2.003877
  S     7.451009  9.600971 -6.127902
  S     4.396944  9.740091 -3.304924
  S     6.818113  8.768902 -2.146832
