16  
    
  C     5.816251  5.737704 -4.351918
  C     6.964987  5.108244 -3.661685
  C     5.662010  9.522478 -4.258966
  C     6.874778  8.970974 -3.707016
  N     7.975006  4.924645 -4.459821
  N     6.116400  6.038717 -5.595554
  N     5.077661  5.293305 -1.978634
  N     7.915645  8.994464 -4.559652
  N     5.786053  9.863392 -5.525968
  N     5.081405  8.953166 -1.827290
  S     7.670449  5.590795 -5.969489
  S     4.397342  5.794369 -3.385768
  S     6.633961  4.785210 -2.058359
  S     7.353157  9.600138 -5.970632
  S     4.281314  9.422039 -3.255049
  S     6.612117  8.277247 -2.084403
