16  
    
  C     5.534260  5.662434 -4.391788
  C     6.655187  5.086897 -3.693551
  C     5.478637  9.787256 -4.574731
  C     6.652773  9.221736 -3.987673
  N     7.728007  4.898510 -4.462916
  N     5.740119  5.910113 -5.686813
  N     4.923453  5.622870 -1.909718
  N     7.681769  9.061748 -4.813858
  N     5.640605 10.105793 -5.860542
  N     4.849219  9.336682 -2.102687
  S     7.319799  5.401417 -5.974932
  S     4.148623  5.886900 -3.308727
  S     6.348452  4.784458 -1.994131
  S     7.136589  9.728082 -6.251398
  S     4.168111  9.999934 -3.458616
  S     6.456606  8.896618 -2.254402
