16  
    
  C     5.200775  6.251036 -4.378511
  C     6.335643  5.598517 -3.625931
  C     5.621862  9.635572 -4.193393
  C     6.789493  9.021657 -3.566405
  N     7.414912  5.356149 -4.398666
  N     5.467273  6.529363 -5.678747
  N     4.558170  6.205619 -1.850976
  N     7.697956  8.663960 -4.418891
  N     5.734229  9.792515 -5.492897
  N     5.180786  9.491491 -1.649395
  S     6.951654  5.849770 -5.952284
  S     3.865397  6.574924 -3.332148
  S     6.111523  5.590927 -1.901348
  S     7.226216  9.199292 -5.901421
  S     4.344696  9.845049 -3.052730
  S     6.818318  8.950234 -1.804501
