16  
    
  C     5.358835  5.942739 -4.425641
  C     6.555926  5.416585 -3.756322
  C     5.424310  9.351353 -4.199610
  C     6.705992  9.039783 -3.556078
  N     7.620130  5.305078 -4.532636
  N     5.571973  6.076097 -5.740306
  N     4.714665  5.622692 -1.924878
  N     7.676924  8.771365 -4.431655
  N     5.431321  9.318858 -5.549133
  N     5.051131  9.140050 -1.643839
  S     7.131668  5.718649 -6.132397
  S     4.049454  6.232943 -3.319535
  S     6.266392  5.113257 -2.087974
  S     7.034999  9.077494 -5.951423
  S     4.076658  9.499211 -3.032859
  S     6.590915  8.738230 -1.869582
