16  
    
  C     5.655593  5.634477 -4.031364
  C     6.896796  5.127134 -3.474027
  C     5.854409  9.215556 -3.889578
  C     7.109062  8.824085 -3.299639
  N     7.836132  4.944518 -4.418600
  N     5.660326  5.749054 -5.359110
  N     5.191758  5.402552 -1.505236
  N     8.157488  8.757801 -4.161389
  N     5.940934  9.479554 -5.175260
  N     5.291053  9.138594 -1.378103
  S     7.249157  5.458730 -5.874508
  S     4.351785  5.963928 -2.852275
  S     6.772949  4.910713 -1.765108
  S     7.471541  9.199227 -5.665072
  S     4.506457  9.335152 -2.801900
  S     6.909163  8.772626 -1.543390
