16  
    
  C     5.501724  6.204447 -4.618071
  C     6.500533  5.478301 -3.859209
  C     5.789304  9.524848 -4.404615
  C     6.968062  9.125449 -3.718629
  N     7.644227  5.267640 -4.479244
  N     5.922713  6.554992 -5.832442
  N     4.607533  5.886476 -2.171891
  N     8.008190  8.968738 -4.565363
  N     5.967588  9.723357 -5.707181
  N     5.166942  9.248966 -1.919147
  S     7.465137  5.934805 -5.952162
  S     4.173950  6.481019 -3.621907
  S     6.030732  5.032102 -2.260614
  S     7.525012  9.331653 -6.054077
  S     4.392406  9.535671 -3.324829
  S     6.753759  8.759374 -2.013736
