16  
    
  C     5.289091  6.252110 -4.333651
  C     6.395666  5.663185 -3.659158
  C     5.480478  9.706032 -4.169255
  C     6.632270  9.111604 -3.599273
  N     7.421824  5.271078 -4.409173
  N     5.437996  6.428604 -5.656297
  N     4.484887  5.877525 -1.798235
  N     7.687100  8.866427 -4.385950
  N     5.697083  9.961829 -5.451198
  N     5.015819  9.853458 -1.711159
  S     6.972556  5.789816 -5.946128
  S     3.926339  6.560521 -3.184615
  S     6.122981  5.521555 -1.919567
  S     7.156062  9.318237 -5.928907
  S     4.171084 10.011415 -3.092936
  S     6.497123  8.939006 -1.870087
