16  
    
  C     5.539812  5.844378 -4.374149
  C     6.614620  5.168005 -3.705304
  C     5.679535  9.150583 -4.270354
  C     6.916143  8.813711 -3.614289
  N     7.702023  4.891838 -4.441526
  N     5.806327  6.187104 -5.660205
  N     4.751870  5.668067 -1.947232
  N     7.996227  8.748641 -4.387385
  N     5.856323  9.489918 -5.529716
  N     5.211935  8.934399 -1.738274
  S     7.283880  5.462366 -5.944869
  S     4.028735  5.978121 -3.389192
  S     6.292956  5.003241 -1.980442
  S     7.387766  9.199603 -5.897545
  S     4.366981  9.209695 -3.152391
  S     6.900224  8.706879 -1.894226
