16  
    
  C     5.675077  5.832333 -4.412722
  C     6.866031  5.220294 -3.777605
  C     5.628688  9.482532 -4.332460
  C     6.718989  8.826917 -3.638611
  N     7.900117  4.971426 -4.621202
  N     5.808450  6.096515 -5.718582
  N     5.129506  5.675650 -1.840366
  N     7.737150  8.514506 -4.436930
  N     5.819248  9.679633 -5.646031
  N     4.931116  9.305313 -1.845923
  S     7.278242  5.390710 -6.111392
  S     4.341489  6.125075 -3.227763
  S     6.706497  5.057187 -2.030470
  S     7.297532  9.085783 -5.982305
  S     4.304051  9.859590 -3.272759
  S     6.442936  8.672582 -1.855534
