16  
    
  C     5.523116  5.740592 -4.440312
  C     6.823866  5.472748 -3.855257
  C     5.480339  9.538698 -4.391817
  C     6.739379  9.104190 -3.793974
  N     7.858351  5.362556 -4.715899
  N     5.578458  5.944699 -5.771772
  N     5.165346  5.638716 -1.906659
  N     7.755754  9.056597 -4.614196
  N     5.534974  9.704830 -5.744870
  N     5.223427  9.370795 -1.733261
  S     7.158569  5.613884 -6.179049
  S     4.260894  5.959631 -3.230830
  S     6.784559  5.431195 -2.078148
  S     7.129412  9.527921 -6.144187
  S     4.288097  9.730066 -3.081341
  S     6.806211  8.967108 -2.071459
