16  
    
  C     5.546839  5.903103 -4.647882
  C     6.863937  5.696630 -4.026438
  C     5.459650  9.730193 -4.333408
  C     6.650921  9.196058 -3.723951
  N     7.907871  5.628093 -4.859316
  N     5.644011  5.918852 -5.984708
  N     4.955340  5.496253 -2.231324
  N     7.765506  9.205741 -4.442520
  N     5.694033 10.072489 -5.576380
  N     4.835762  9.177386 -1.864501
  S     7.257704  5.870953 -6.419803
  S     4.128589  5.819076 -3.686410
  S     6.650427  5.393284 -2.311244
  S     7.273284  9.844272 -5.919840
  S     4.092408  9.854093 -3.164505
  S     6.481610  8.841321 -2.066279
