16  
    
  C     5.708543  5.802745 -4.295291
  C     6.932160  5.198219 -3.813647
  C     5.717960  9.675049 -4.458549
  C     6.951061  9.251495 -3.867258
  N     7.930456  5.118747 -4.689276
  N     5.704372  6.149315 -5.582550
  N     5.321850  5.267960 -1.783831
  N     8.101613  9.288306 -4.605994
  N     5.954264 10.019426 -5.716609
  N     5.117924  9.053204 -2.087908
  S     7.257976  5.772811 -6.119227
  S     4.363432  5.697808 -3.063835
  S     6.866582  4.712567 -2.155544
  S     7.536175  9.895922 -6.109338
  S     4.441965  9.903020 -3.325569
  S     6.731375  8.775690 -2.202526
