16  
    
  C     5.505575  5.102693 -4.240888
  C     6.828765  5.063922 -3.604941
  C     5.370365  9.183353 -4.513473
  C     6.564187  8.708201 -3.872181
  N     7.769895  5.075387 -4.531474
  N     5.473701  5.250827 -5.566119
  N     5.138864  5.255964 -1.642816
  N     7.577596  8.413347 -4.694784
  N     5.554962  9.362591 -5.836681
  N     4.790690  9.088427 -1.974404
  S     7.075623  5.119295 -6.011486
  S     4.255947  5.170333 -3.002021
  S     6.822602  5.074693 -1.879177
  S     7.128262  8.898685 -6.172403
  S     4.079553  9.545687 -3.403371
  S     6.434887  8.741623 -2.094150
