16  
    
  C     5.501095  5.984133 -4.455345
  C     6.629371  5.413601 -3.758025
  C     5.702078  9.527688 -4.243097
  C     6.927075  9.147511 -3.546659
  N     7.687943  5.074192 -4.525913
  N     5.657556  6.110973 -5.785209
  N     4.871352  5.878762 -1.944971
  N     7.957247  9.112482 -4.357103
  N     5.774425  9.633189 -5.552003
  N     5.157937  9.455742 -1.728388
  S     7.155541  5.448735 -6.058069
  S     4.200035  6.415839 -3.391483
  S     6.487226  5.431954 -2.025091
  S     7.430360  9.264673 -5.916005
  S     4.364016  9.803312 -3.142699
  S     6.745109  8.983411 -1.810165
