16  
    
  C     5.498009  5.672737 -4.718166
  C     6.787730  5.592404 -4.073632
  C     5.410834  9.677463 -4.279072
  C     6.647163  9.302608 -3.606535
  N     7.878035  5.723261 -4.839565
  N     5.582370  5.948925 -6.030710
  N     5.049167  5.325707 -2.171153
  N     7.728443  9.334179 -4.353086
  N     5.503045  9.994830 -5.561248
  N     4.848964  9.203776 -1.797884
  S     7.235369  5.809822 -6.387348
  S     4.270277  5.630936 -3.568685
  S     6.707933  5.422695 -2.351232
  S     7.158474  9.845682 -5.892719
  S     4.128129  9.825761 -3.140702
  S     6.445339  8.765950 -1.947416
