16  
    
  C     5.591996  6.159490 -4.407373
  C     6.753393  5.824917 -3.710478
  C     5.656212  9.667675 -4.373358
  C     6.902098  9.206163 -3.741486
  N     7.782511  5.551657 -4.505255
  N     5.709298  6.232989 -5.708318
  N     4.913779  6.035934 -1.969125
  N     7.900431  8.890525 -4.585207
  N     5.685503  9.656456 -5.697700
  N     4.949558  9.635039 -1.942766
  S     7.260192  5.818054 -6.065708
  S     4.228603  6.513831 -3.435353
  S     6.556620  5.713177 -2.001578
  S     7.280142  9.325668 -6.106912
  S     4.287849  9.862688 -3.377764
  S     6.527652  9.054883 -1.995727
