16  
    
  C     5.272755  6.336474 -4.334457
  C     6.483991  5.749339 -3.725425
  C     5.518146  9.650609 -4.481612
  C     6.688078  9.266857 -3.747559
  N     7.440101  5.499460 -4.596262
  N     5.355274  6.372962 -5.627958
  N     4.742145  6.011922 -1.859907
  N     7.781619  9.093391 -4.529446
  N     5.712649  9.881050 -5.799678
  N     4.888950  9.658098 -1.984094
  S     6.896354  5.865042 -6.096731
  S     4.028967  6.602208 -3.245787
  S     6.294821  5.604549 -2.029110
  S     7.331081  9.462770 -6.084596
  S     4.069137  9.743278 -3.369514
  S     6.416976  9.018513 -2.052050
