16  
    
  C     5.548533  5.479701 -4.295054
  C     6.779376  5.414847 -3.566377
  C     5.291434 10.011874 -4.567178
  C     6.339693  9.248726 -3.976557
  N     7.835897  5.290907 -4.355784
  N     5.622992  5.501735 -5.592374
  N     4.984068  5.489091 -1.764154
  N     7.346163  8.983771 -4.807855
  N     5.460851 10.318561 -5.876861
  N     4.573622  9.709114 -2.175080
  S     7.202499  5.334615 -5.989710
  S     4.204890  5.621349 -3.205074
  S     6.626723  5.376192 -1.857000
  S     6.906709  9.534094 -6.311209
  S     4.010450 10.498944 -3.455101
  S     6.140132  9.152484 -2.290726
