16  
    
  C     5.542053  6.028100 -4.341038
  C     6.786889  5.686740 -3.657052
  C     5.674980  9.471996 -4.368612
  C     6.899464  9.087435 -3.705603
  N     7.778371  5.483193 -4.490017
  N     5.601443  6.158281 -5.659228
  N     4.912579  5.900008 -1.874612
  N     7.898612  8.980341 -4.570926
  N     5.771608  9.533755 -5.729808
  N     5.090369  9.351188 -1.885435
  S     7.144226  5.757242 -6.069989
  S     4.193400  6.347902 -3.290622
  S     6.582382  5.541568 -1.928833
  S     7.367860  9.368243 -6.100177
  S     4.281220  9.664165 -3.300798
  S     6.672225  8.846968 -2.015496
