16  
    
  C     5.506433  5.991721 -4.384313
  C     6.711490  5.707335 -3.768556
  C     5.519953  9.377990 -4.501580
  C     6.794192  9.139865 -3.875222
  N     7.683564  5.465150 -4.597454
  N     5.581456  6.121603 -5.692990
  N     4.957402  5.788433 -1.917609
  N     7.908427  9.187961 -4.620077
  N     5.687645  9.546777 -5.791018
  N     4.991387  9.287615 -1.979010
  S     7.141606  5.772201 -6.099649
  S     4.153817  6.182456 -3.300183
  S     6.648124  5.573127 -2.075586
  S     7.345991  9.318389 -6.151732
  S     4.120473  9.414636 -3.346559
  S     6.695469  8.911317 -2.127830
