16  
    
  C     5.653612  5.577177 -4.280265
  C     6.956617  5.228528 -3.696959
  C     5.819527  9.803173 -4.374445
  C     6.973457  9.174028 -3.788436
  N     8.024088  5.270266 -4.511556
  N     5.740579  6.011383 -5.541862
  N     5.224659  5.260662 -1.713737
  N     7.917585  8.970902 -4.655681
  N     5.904077 10.065446 -5.696133
  N     5.153513  9.080342 -1.897696
  S     7.346322  5.765071 -6.004915
  S     4.355472  5.674734 -3.085558
  S     6.898632  4.969630 -1.938057
  S     7.408719  9.513971 -6.144148
  S     4.408347  9.658066 -3.290944
  S     6.784273  8.805267 -2.137209
