16  
    
  C     5.527788  5.671536 -4.407000
  C     6.728131  5.324553 -3.765905
  C     5.420267  9.619443 -4.624505
  C     6.690327  9.344727 -3.969718
  N     7.693431  5.075935 -4.645601
  N     5.571501  5.830564 -5.735793
  N     5.089326  5.695132 -1.814797
  N     7.784170  9.281718 -4.724075
  N     5.572378  9.641303 -5.938969
  N     4.806408  9.336778 -2.104611
  S     7.176035  5.535717 -6.142644
  S     4.290160  6.074558 -3.257880
  S     6.704923  5.264807 -2.029397
  S     7.176009  9.337253 -6.315454
  S     4.060702  9.676765 -3.580347
  S     6.448472  9.018904 -2.196222
