16  
    
  C     5.503957  5.792025 -4.539486
  C     6.682835  5.597550 -3.856777
  C     5.239506  9.630811 -4.450892
  C     6.402712  9.225482 -3.752470
  N     7.767727  5.485129 -4.594147
  N     5.660459  5.854309 -5.859249
  N     4.919062  5.676799 -2.053704
  N     7.441301  8.855148 -4.513042
  N     5.348903  9.473702 -5.754452
  N     4.642743  9.845817 -1.974529
  S     7.312871  5.752548 -6.187420
  S     4.112936  5.971266 -3.487163
  S     6.500352  5.407375 -2.164677
  S     6.866811  8.894031 -6.019794
  S     3.889114 10.098986 -3.429309
  S     6.198189  9.297842 -2.071494
