16  
    
  C     5.354420  5.176620 -3.888656
  C     6.608615  4.921620 -3.194402
  C     5.386078  9.393870 -4.131833
  C     6.585335  8.923755 -3.485769
  N     7.675403  4.899768 -3.996135
  N     5.539727  5.417098 -5.196982
  N     4.758382  5.162038 -1.396619
  N     7.598868  8.668584 -4.295205
  N     5.557157  9.583162 -5.426018
  N     4.650274  9.070855 -1.733407
  S     7.138003  5.145601 -5.516244
  S     3.985889  5.235977 -2.854404
  S     6.354945  4.823469 -1.532480
  S     7.005018  9.109249 -5.791506
  S     4.013681  9.662167 -3.161409
  S     6.287103  8.779738 -1.760646
