16  
    
  C     5.533116  6.451577 -4.542631
  C     6.691945  5.854251 -3.842715
  C     5.679326  9.758502 -4.432435
  C     6.856071  9.446931 -3.736894
  N     7.686007  5.563481 -4.618385
  N     5.655526  6.459871 -5.855196
  N     4.882338  6.226032 -2.028212
  N     7.936042  9.285806 -4.502822
  N     5.866857  9.885706 -5.754015
  N     5.064686  9.795873 -1.922617
  S     7.122725  5.869931 -6.252343
  S     4.201926  6.743822 -3.441652
  S     6.493940  5.869372 -2.143280
  S     7.423718  9.461487 -6.050380
  S     4.303063  9.934954 -3.332109
  S     6.684490  9.319468 -2.064211
