16  
    
  C     5.668267  5.776103 -3.946728
  C     6.874902  5.201076 -3.372101
  C     5.519736  9.418783 -3.965667
  C     6.681618  8.878348 -3.338314
  N     7.918755  5.171763 -4.224807
  N     5.788260  6.164588 -5.195706
  N     4.986687  5.311550 -1.565603
  N     7.739842  8.752614 -4.115194
  N     5.659899  9.705252 -5.262410
  N     5.006511  9.173607 -1.470584
  S     7.383391  5.814033 -5.617484
  S     4.304440  5.899597 -2.984482
  S     6.610476  4.743845 -1.702328
  S     7.250445  9.304135 -5.625280
  S     4.254770  9.710119 -2.846800
  S     6.545811  8.550447 -1.684635
