16  
    
  C     5.688189  6.241594 -4.200152
  C     6.849369  5.620726 -3.617872
  C     5.947719  9.616233 -4.180545
  C     7.187815  9.141405 -3.639151
  N     7.842556  5.425557 -4.477193
  N     5.814132  6.542281 -5.479613
  N     5.077505  5.626436 -1.763881
  N     8.099859  8.821954 -4.545113
  N     5.943642  9.669914 -5.521366
  N     5.521420  9.586233 -1.643132
  S     7.291653  5.924097 -5.947943
  S     4.370414  6.396245 -3.063760
  S     6.740769  5.327130 -1.892068
  S     7.352488  9.180277 -6.043814
  S     4.635320  9.804340 -3.010853
  S     6.958685  8.781747 -1.940275
