16  
    
  C     5.704937  5.837895 -4.434843
  C     6.976927  5.327732 -3.973412
  C     5.669904  9.113240 -4.095640
  C     6.928064  8.593339 -3.634418
  N     7.974889  5.340238 -4.864170
  N     5.765240  6.211782 -5.704068
  N     5.308592  5.155110 -1.909420
  N     7.918260  8.611134 -4.540722
  N     5.751353  9.543840 -5.353764
  N     5.488603  8.829331 -1.532882
  S     7.307104  6.072039 -6.199226
  S     4.478282  5.818544 -3.172351
  S     6.864574  4.806083 -2.292753
  S     7.257339  9.285685 -5.903470
  S     4.512206  9.400637 -2.733559
  S     7.033443  8.377875 -1.956496
