16  
    
  C     5.261392  6.242768 -4.515119
  C     6.426712  5.652878 -3.880956
  C     5.437517  9.606531 -4.123996
  C     6.763414  9.362762 -3.473025
  N     7.438058  5.610648 -4.786759
  N     5.363735  6.575156 -5.781769
  N     4.595124  5.984371 -2.074354
  N     7.757284  9.541834 -4.310950
  N     5.412741  9.995913 -5.394371
  N     4.992791  9.061897 -1.612002
  S     6.918861  6.150757 -6.184117
  S     3.851486  6.417168 -3.511399
  S     6.188896  5.510435 -2.177271
  S     7.051243  9.929744 -5.779462
  S     4.190007  9.565829 -2.920220
  S     6.697661  8.913311 -1.832851
