16  
    
  C     5.896589  5.990303 -4.413583
  C     7.046361  5.577099 -3.711017
  C     5.658159  9.527557 -4.408389
  C     6.890716  9.193700 -3.740198
  N     8.073159  5.242715 -4.450947
  N     6.099223  6.024135 -5.719220
  N     5.109744  5.601494 -2.013183
  N     7.873765  9.078383 -4.619660
  N     5.741936  9.720233 -5.720790
  N     5.099496  9.237524 -1.850783
  S     7.683998  5.619819 -6.053544
  S     4.474037  6.184603 -3.465633
  S     6.749226  5.428819 -1.994620
  S     7.287052  9.421946 -6.130369
  S     4.351592  9.736540 -3.269104
  S     6.723263  8.834622 -1.989017
