16  
    
  C     5.563063  5.602565 -4.535441
  C     6.833978  5.394065 -3.900940
  C     5.359337  9.684481 -4.235476
  C     6.586667  9.195269 -3.641648
  N     7.844900  5.624153 -4.756668
  N     5.602699  5.962738 -5.841235
  N     5.098145  5.433181 -2.009929
  N     7.591678  9.114856 -4.466153
  N     5.490816  9.954791 -5.528845
  N     4.983095  9.226829 -1.677478
  S     7.186815  5.854398 -6.221640
  S     4.267261  5.459110 -3.418687
  S     6.756863  5.145223 -2.163042
  S     7.123187  9.584165 -5.905885
  S     4.090327  9.654891 -3.077243
  S     6.598570  9.009780 -1.902943
