16  
    
  C     5.485088  5.818263 -4.138174
  C     6.484911  4.946786 -3.608351
  C     5.688409  9.419195 -4.516498
  C     6.829549  8.864089 -3.865935
  N     7.411109  4.587713 -4.472366
  N     5.713616  6.104596 -5.403953
  N     5.063877  5.665756 -1.627913
  N     7.839845  8.668308 -4.714022
  N     5.846441  9.650087 -5.835428
  N     5.060167  9.295475 -2.045984
  S     7.025990  5.221317 -5.907912
  S     4.348809  6.445783 -2.911848
  S     6.350957  4.601272 -1.859461
  S     7.387232  9.183288 -6.177412
  S     4.417143  9.904468 -3.439527
  S     6.596572  8.614523 -2.188256
