16  
    
  C     5.504768  5.918049 -4.431546
  C     6.562215  5.296952 -3.759131
  C     5.414504  9.355606 -4.197597
  C     6.668476  8.907420 -3.624330
  N     7.638825  5.137208 -4.486536
  N     5.668485  6.098571 -5.703953
  N     4.812483  5.708131 -2.024506
  N     7.660575  8.784382 -4.481180
  N     5.450594  9.664663 -5.492089
  N     5.101342  9.128575 -1.599275
  S     7.189707  5.624596 -6.045676
  S     4.132435  6.175894 -3.459160
  S     6.328537  5.094973 -2.088103
  S     6.984876  9.219156 -5.971904
  S     4.221669  9.623035 -2.970316
  S     6.636015  8.795515 -1.837872
