16  
    
  C     5.546762  6.083335 -4.445921
  C     6.787161  5.558604 -3.932372
  C     5.502723  9.819499 -4.475951
  C     6.660338  9.285906 -3.807637
  N     7.750681  5.354097 -4.846708
  N     5.498306  6.125173 -5.789559
  N     5.164048  5.872978 -1.935350
  N     7.657267  9.169100 -4.646024
  N     5.627970 10.181085 -5.711120
  N     4.734359  9.514121 -2.068313
  S     7.057379  5.723334 -6.318300
  S     4.293701  6.355737 -3.272150
  S     6.683208  5.325412 -2.162717
  S     7.145126  9.663065 -6.153934
  S     4.088901 10.085383 -3.438995
  S     6.336734  9.060565 -2.146314
