16  
    
  C     5.498057  5.190838 -4.281201
  C     6.862422  5.202300 -3.742176
  C     5.535421  9.256995 -4.514731
  C     6.696863  8.917246 -3.740819
  N     7.823806  5.082498 -4.663886
  N     5.451132  5.113561 -5.598684
  N     5.270203  5.214207 -1.656491
  N     7.758602  8.747017 -4.530316
  N     5.713881  9.388717 -5.831943
  N     4.751575  9.146000 -2.063657
  S     7.087077  5.062289 -6.094130
  S     4.351434  5.363642 -3.058000
  S     6.873052  4.979177 -1.975258
  S     7.282498  8.934610 -6.122309
  S     4.108596  9.619665 -3.553674
  S     6.339662  8.654099 -2.051987
