16  
    
  C     5.309657  5.610737 -4.385613
  C     6.455159  5.089719 -3.678507
  C     5.487106  9.119044 -4.343009
  C     6.656795  8.606328 -3.665307
  N     7.482675  4.734878 -4.437788
  N     5.525005  5.798952 -5.665212
  N     4.600423  5.267829 -1.979075
  N     7.660428  8.343191 -4.509193
  N     5.621539  9.401454 -5.631821
  N     4.893146  8.803570 -1.859036
  S     7.115168  5.216500 -5.927343
  S     4.003562  5.900823 -3.380897
  S     6.231726  4.880599 -2.015941
  S     7.124175  8.870755 -6.054413
  S     4.145307  9.368643 -3.251692
  S     6.522495  8.459486 -1.932090
