16  
    
  C     5.461978  5.664911 -4.354173
  C     6.593865  5.025503 -3.664593
  C     5.506141  9.712600 -4.609915
  C     6.662158  9.167406 -3.932847
  N     7.673954  4.926699 -4.414317
  N     5.716283  5.882926 -5.622884
  N     4.842354  5.525869 -1.839454
  N     7.688084  9.123027 -4.802233
  N     5.573528 10.100861 -5.868754
  N     4.822536  9.341836 -2.154872
  S     7.282877  5.416706 -5.986761
  S     4.165283  5.990683 -3.339521
  S     6.346243  4.757551 -1.996518
  S     7.214704  9.784128 -6.225894
  S     4.234993  9.987924 -3.550102
  S     6.383672  8.807165 -2.249493
