16  
    
  C     5.248084  6.300436 -4.537847
  C     6.382066  5.732147 -3.812954
  C     5.468280  9.822272 -4.062051
  C     6.783164  9.505691 -3.487053
  N     7.398186  5.496093 -4.555322
  N     5.492847  6.590786 -5.813453
  N     4.528453  6.114761 -2.052856
  N     7.724597  9.598539 -4.448487
  N     5.443813 10.108143 -5.351525
  N     5.021007  9.214205 -1.601324
  S     7.021220  6.120215 -6.135165
  S     3.826475  6.383695 -3.504434
  S     6.087787  5.469379 -2.133975
  S     7.027124 10.051240 -5.903917
  S     4.097717  9.641835 -2.957669
  S     6.667968  9.131735 -1.811458
