16  
    
  C     5.270186  6.160036 -4.356769
  C     6.470747  5.706179 -3.765192
  C     5.510944  9.664162 -4.433061
  C     6.659637  9.201163 -3.733151
  N     7.499284  5.552128 -4.596436
  N     5.396828  6.320344 -5.680167
  N     4.830281  5.997313 -1.849896
  N     7.700871  8.979238 -4.490698
  N     5.666859  9.924216 -5.726301
  N     4.808934  9.561399 -1.959079
  S     6.953556  5.908401 -6.100391
  S     3.943577  6.406893 -3.259399
  S     6.437170  5.670257 -2.010738
  S     7.234321  9.510271 -6.032644
  S     4.121111  9.827586 -3.453377
  S     6.438567  9.117597 -2.040992
