16  
    
  C     5.644078  5.736418 -4.337162
  C     6.894270  5.346068 -3.779935
  C     5.774556  9.658850 -4.290468
  C     7.008150  9.224927 -3.735238
  N     7.920132  5.321936 -4.616411
  N     5.733821  5.896938 -5.649615
  N     5.244720  5.575762 -1.830942
  N     7.909997  9.128967 -4.691286
  N     5.752563  9.983674 -5.598586
  N     5.271775  8.850488 -1.849424
  S     7.298860  5.554282 -6.159350
  S     4.391755  5.925567 -3.180046
  S     6.857679  5.078785 -2.080879
  S     7.317890  9.632750 -6.101178
  S     4.466204  9.458600 -3.140522
  S     6.933242  8.731613 -2.052763
