16  
    
  C     5.662034  5.730325 -4.325368
  C     6.835141  5.150859 -3.820078
  C     5.749409  9.879346 -4.466990
  C     6.941027  9.395583 -3.822198
  N     7.757908  5.028269 -4.747123
  N     5.717356  6.120192 -5.579778
  N     5.284352  5.358077 -1.812466
  N     8.047081  9.354234 -4.630578
  N     5.890229 10.186655 -5.750278
  N     5.026977  8.897454 -2.184728
  S     7.238134  5.740589 -6.106373
  S     4.455742  5.805319 -3.128287
  S     6.832043  4.834868 -2.123549
  S     7.488316  9.785500 -6.119948
  S     4.333102  9.753289 -3.476751
  S     6.713709  8.797095 -2.194302
