16  
    
  C     5.580727  5.998735 -4.257486
  C     6.705682  5.339092 -3.624237
  C     5.931033  9.144568 -3.997791
  C     7.213351  8.759515 -3.451578
  N     7.706874  5.105989 -4.458023
  N     5.787474  6.237586 -5.536922
  N     4.889937  5.620011 -1.828852
  N     8.228420  8.773499 -4.305236
  N     6.011063  9.346304 -5.307242
  N     5.459417  9.026431 -1.539084
  S     7.201737  5.504816 -5.983035
  S     4.236529  6.217534 -3.194416
  S     6.494864  5.196606 -1.967538
  S     7.541506  9.195809 -5.763325
  S     4.559341  9.165343 -2.919458
  S     7.024033  8.460337 -1.706708
