16  
    
  C     5.494178  6.034934 -4.188835
  C     6.574779  5.236199 -3.608322
  C     5.650904  9.917633 -4.453398
  C     6.781855  9.200410 -3.848500
  N     7.504500  4.930289 -4.487179
  N     5.647033  6.271012 -5.491848
  N     4.991646  5.819382 -1.741031
  N     7.849624  8.982221 -4.625826
  N     5.959369 10.357639 -5.650910
  N     4.675173  9.098839 -2.292235
  S     7.064674  5.549871 -5.986193
  S     4.139397  6.196472 -3.124405
  S     6.413168  4.978398 -1.964881
  S     7.460286  9.678438 -6.088967
  S     4.170932 10.013392 -3.635580
  S     6.293404  8.667911 -2.215813
