16  
    
  C     5.496148  5.665983 -4.243754
  C     6.632078  5.304002 -3.467985
  C     5.833715  8.948861 -3.996485
  C     7.081519  8.497022 -3.390863
  N     7.690232  4.951280 -4.228847
  N     5.604632  5.468549 -5.563801
  N     4.832004  5.778023 -1.765807
  N     8.107458  8.511568 -4.209726
  N     5.867899  9.181968 -5.302500
  N     5.321134  8.466262 -1.483803
  S     7.180005  5.096188 -5.815919
  S     4.059886  5.969937 -3.278117
  S     6.332003  5.061770 -1.736448
  S     7.440787  8.978101 -5.726277
  S     4.607363  9.121623 -2.813638
  S     6.989838  8.233489 -1.622760
