16  
    
  C     5.603652  5.579873 -4.213629
  C     6.883192  5.409616 -3.542167
  C     5.565944  9.183827 -4.236887
  C     6.850029  9.027677 -3.558267
  N     7.863396  5.103700 -4.368743
  N     5.588492  5.479665 -5.540132
  N     5.196187  5.766740 -1.613718
  N     7.929728  9.001856 -4.342194
  N     5.638054  9.454525 -5.519404
  N     5.106767  8.795290 -1.720310
  S     7.219720  5.231241 -5.906063
  S     4.386527  5.686574 -3.043404
  S     6.794061  5.372309 -1.817930
  S     7.296420  9.348450 -5.907606
  S     4.263641  8.977168 -3.120912
  S     6.804520  8.975862 -1.815872
