16  
    
  C     5.387230  5.536782 -4.449441
  C     6.611935  5.299095 -3.688364
  C     5.622370  8.972712 -4.104714
  C     6.935604  8.901246 -3.536641
  N     7.699690  5.092263 -4.409245
  N     5.630165  5.571767 -5.763223
  N     4.705626  5.586118 -1.931503
  N     7.899759  8.677832 -4.447582
  N     5.590161  8.906171 -5.447454
  N     5.160271  9.358181 -1.636552
  S     7.239004  5.226087 -6.034581
  S     4.004009  6.020513 -3.407772
  S     6.318944  5.254665 -1.962303
  S     7.185619  8.728515 -5.916809
  S     4.307915  9.307230 -3.034787
  S     6.774762  9.081827 -1.770334
