16  
    
  C     5.324759  6.347866 -4.477771
  C     6.457818  5.871614 -3.737189
  C     5.454122 10.064632 -4.189331
  C     6.746341  9.761179 -3.632647
  N     7.596832  5.623392 -4.456837
  N     5.570653  6.504859 -5.763316
  N     4.516952  6.129580 -2.064870
  N     7.759878  9.802136 -4.502537
  N     5.514201 10.232548 -5.515311
  N     4.933184  9.763354 -1.726668
  S     7.097973  6.070275 -6.082880
  S     4.012052  6.787031 -3.465791
  S     6.121207  5.655044 -2.045050
  S     7.121367 10.211162 -5.967679
  S     4.169675  9.984078 -3.134681
  S     6.553492  9.419948 -1.910662
