16  
    
  C     5.637811  6.039647 -4.457216
  C     6.819308  5.632990 -3.802413
  C     5.641414  9.717622 -4.386803
  C     6.808058  9.170264 -3.702033
  N     7.848291  5.413724 -4.565234
  N     5.827081  6.298771 -5.738765
  N     4.954460  5.896209 -2.045974
  N     7.819277  8.991939 -4.556696
  N     5.728677  9.913576 -5.694633
  N     4.786742  9.372588 -1.991024
  S     7.337716  5.834251 -6.152592
  S     4.217768  6.241449 -3.512451
  S     6.631191  5.484886 -2.075679
  S     7.336299  9.528152 -6.087140
  S     4.179414  9.898605 -3.411457
  S     6.490889  8.961684 -1.982204
