16  
    
  C     5.632376  5.722795 -4.205816
  C     6.805894  5.255044 -3.465274
  C     5.550710  9.414902 -4.152932
  C     6.692163  8.823455 -3.516028
  N     7.874152  5.067416 -4.234591
  N     5.814874  5.667258 -5.539263
  N     4.900097  5.651612 -1.701381
  N     7.715289  8.688993 -4.333337
  N     5.663643  9.601804 -5.470325
  N     4.812789  8.951632 -1.730524
  S     7.389694  5.298377 -5.854834
  S     4.258849  6.062930 -3.197159
  S     6.457386  4.984880 -1.734427
  S     7.199596  9.099843 -5.819840
  S     4.180788  9.585619 -3.101195
  S     6.422324  8.569204 -1.769594
