16  
    
  C     5.429780  5.607731 -4.260581
  C     6.639462  5.134641 -3.583423
  C     5.518478  9.252148 -4.176970
  C     6.741065  8.918245 -3.485250
  N     7.710089  4.962405 -4.368946
  N     5.631748  5.849792 -5.536564
  N     4.873834  5.477259 -1.768985
  N     7.801520  8.804413 -4.278260
  N     5.632147  9.509370 -5.480574
  N     4.922597  9.150972 -1.690956
  S     7.163799  5.365447 -5.940747
  S     4.250846  6.082573 -3.137736
  S     6.435260  4.817038 -1.892173
  S     7.242189  9.182088 -5.855248
  S     4.142646  9.426171 -3.101090
  S     6.519599  8.612986 -1.790518
