16  
    
  C     5.857423  6.071836 -4.336134
  C     7.006732  5.562324 -3.673903
  C     5.722567  9.499974 -4.396526
  C     6.926607  8.972521 -3.766091
  N     8.046105  5.353404 -4.445563
  N     6.080385  6.356442 -5.614425
  N     5.072527  5.727584 -1.954905
  N     7.935156  8.626289 -4.547413
  N     5.961072  9.672501 -5.667932
  N     5.184729  9.288287 -1.884548
  S     7.590058  5.795950 -5.999393
  S     4.397867  6.093691 -3.436952
  S     6.700327  5.356966 -2.039951
  S     7.461368  9.214372 -6.039555
  S     4.410818  9.880704 -3.281136
  S     6.787977  8.912200 -2.045627
