16  
    
  C     5.518023  6.208650 -4.447976
  C     6.729745  5.521128 -3.996961
  C     5.522022  9.816249 -4.312522
  C     6.638133  9.230331 -3.623748
  N     7.678110  5.396808 -4.923589
  N     5.505397  6.484908 -5.754085
  N     5.157963  5.647674 -1.861250
  N     7.534286  8.911057 -4.538641
  N     5.628111 10.078738 -5.595546
  N     4.956250  9.769980 -1.801215
  S     6.980225  5.975150 -6.338228
  S     4.302634  6.376104 -3.146168
  S     6.736500  5.294310 -2.192732
  S     7.120519  9.552777 -6.063535
  S     4.188306 10.192935 -3.263118
  S     6.414839  9.014820 -1.876814
