16  
    
  C     5.642291  5.660018 -4.067895
  C     6.894628  5.300886 -3.541419
  C     5.541333  9.011360 -4.196418
  C     6.849095  8.966038 -3.527826
  N     7.860706  4.992536 -4.434068
  N     5.606720  5.819676 -5.404647
  N     5.217461  5.490529 -1.574851
  N     7.900780  8.988550 -4.346518
  N     5.557264  9.113842 -5.497168
  N     5.066931  8.968239 -1.651696
  S     7.088608  5.271341 -5.927280
  S     4.349317  5.784163 -2.951075
  S     6.863185  5.316925 -1.825209
  S     7.192641  9.114277 -5.935654
  S     4.193152  8.957958 -3.060120
  S     6.751226  8.874374 -1.805837
