16  
    
  C     5.430546  5.708205 -4.306562
  C     6.693812  5.411264 -3.668097
  C     5.353776 10.215794 -4.627863
  C     6.448769  9.442564 -3.937771
  N     7.678808  5.269196 -4.501152
  N     5.512976  5.736889 -5.654250
  N     4.954409  5.566274 -1.758185
  N     7.312871  9.016184 -4.826605
  N     5.504949 10.435719 -5.913804
  N     4.672362  9.617300 -2.169985
  S     7.126388  5.464501 -6.032498
  S     4.054196  5.547308 -3.199512
  S     6.617562  5.344654 -1.951887
  S     6.941075  9.684645 -6.284938
  S     4.015759 10.449533 -3.464134
  S     6.231840  9.118540 -2.261816
