16  
    
  C     5.613857  5.851141 -4.458852
  C     6.860442  5.444780 -3.867351
  C     5.671106  9.498200 -4.225183
  C     6.932505  9.170674 -3.642376
  N     7.857651  5.429745 -4.710048
  N     5.669397  6.057926 -5.765182
  N     5.137334  5.426897 -1.994875
  N     7.999223  9.224049 -4.490206
  N     5.747382  9.632970 -5.553178
  N     5.194090  9.206307 -1.767037
  S     7.223822  5.692022 -6.221679
  S     4.328600  6.071149 -3.323954
  S     6.760483  5.178655 -2.121824
  S     7.265986  9.468688 -5.977713
  S     4.314951  9.347045 -3.121531
  S     6.755291  8.666008 -2.029190
