16  
    
  C     5.591447  6.116003 -4.250743
  C     6.676805  5.443746 -3.618773
  C     5.849131  9.778335 -4.241076
  C     7.041983  9.247623 -3.595621
  N     7.626280  5.024664 -4.422688
  N     5.755372  6.202161 -5.569182
  N     5.037139  6.173307 -1.780790
  N     8.006852  8.962789 -4.450085
  N     5.929650  9.924958 -5.530231
  N     5.232696  9.311526 -1.778186
  S     7.207968  5.521173 -5.974226
  S     4.243913  6.486157 -3.246131
  S     6.455779  5.346344 -1.946973
  S     7.463933  9.248514 -5.971676
  S     4.517021  9.933715 -3.151197
  S     6.883351  9.118246 -1.836365
