16  
    
  C     5.227359  6.480842 -4.645059
  C     6.471455  6.020870 -4.039380
  C     5.750941  9.646598 -4.401385
  C     7.052817  9.259826 -3.798347
  N     7.449274  5.816969 -4.904456
  N     5.308208  6.476470 -5.967319
  N     4.735171  6.340920 -2.127530
  N     8.028169  9.194098 -4.673758
  N     5.782011  9.930864 -5.703040
  N     5.366441  9.432339 -1.845759
  S     6.874974  6.046668 -6.434211
  S     3.887305  6.721571 -3.546938
  S     6.340305  5.995538 -2.269672
  S     7.337465  9.440181 -6.194377
  S     4.450407  9.824638 -3.287466
  S     6.962627  9.073081 -2.016182
