16  
    
  C     5.346339  6.071841 -4.368063
  C     6.548915  5.473342 -3.830961
  C     5.428788  9.187605 -4.362528
  C     6.661129  8.904368 -3.644737
  N     7.545153  5.271335 -4.694485
  N     5.423898  6.363194 -5.689376
  N     4.753336  5.547305 -1.915398
  N     7.672137  8.711165 -4.475331
  N     5.567656  9.272919 -5.682782
  N     4.944308  9.296339 -1.849600
  S     6.988213  5.841127 -6.129485
  S     4.016795  6.183350 -3.201151
  S     6.382997  5.352355 -2.075491
  S     7.197810  9.117249 -5.985302
  S     4.037067  9.203927 -3.196708
  S     6.582627  8.764040 -1.987315
