16  
    
  C     5.539425  6.234616 -4.453026
  C     6.756761  5.826793 -3.717104
  C     5.674067  9.627659 -4.404406
  C     6.812146  9.175707 -3.717515
  N     7.784284  5.487430 -4.469686
  N     5.684324  6.310043 -5.763190
  N     4.884681  6.059263 -1.914592
  N     7.818755  8.933402 -4.548478
  N     5.756461  9.698499 -5.721423
  N     5.067542  9.590891 -1.877988
  S     7.224672  5.841396 -6.089561
  S     4.252039  6.515159 -3.390005
  S     6.508904  5.778314 -2.018351
  S     7.269927  9.277602 -6.126466
  S     4.305802  9.861017 -3.387613
  S     6.591482  9.100480 -2.012435
