16  
    
  C     5.562006  6.142226 -4.369849
  C     6.753525  5.532260 -3.750145
  C     5.543815  9.638696 -4.288785
  C     6.802555  9.106795 -3.688411
  N     7.677887  5.288329 -4.681299
  N     5.726058  6.487858 -5.649599
  N     5.043731  5.736861 -1.881533
  N     7.764179  8.947336 -4.579209
  N     5.619511  9.834951 -5.574324
  N     5.116333  9.327784 -1.715849
  S     7.225358  5.835660 -6.165436
  S     4.282767  6.335576 -3.227481
  S     6.664810  5.217469 -2.066357
  S     7.150713  9.418279 -6.073032
  S     4.278478  9.647504 -3.131161
  S     6.724370  8.919313 -1.890592
