16  
    
  C     5.091122  5.983432 -4.327290
  C     6.311436  5.609377 -3.599653
  C     5.484057  9.504292 -4.053062
  C     6.706640  9.036395 -3.449952
  N     7.400757  5.520197 -4.384041
  N     5.230185  6.026147 -5.661718
  N     4.499368  5.833150 -1.807992
  N     7.684239  8.724655 -4.270352
  N     5.540688  9.492186 -5.365011
  N     5.254247  9.584200 -1.532709
  S     6.802892  5.670459 -5.925121
  S     3.846591  6.374570 -3.226208
  S     6.106538  5.576706 -1.900622
  S     7.046749  9.012460 -5.802244
  S     4.375517  9.994195 -2.847909
  S     6.661062  8.719197 -1.741010
