16  
    
  C     5.812370  5.763004 -4.471010
  C     6.987944  5.357507 -3.807047
  C     5.516122  9.512492 -4.265637
  C     6.815076  9.147906 -3.751865
  N     8.035147  5.102409 -4.613369
  N     5.941436  5.867693 -5.774188
  N     5.231236  5.918800 -2.020663
  N     7.807763  9.142514 -4.621553
  N     5.581621  9.796742 -5.555484
  N     5.057899  8.946644 -1.778445
  S     7.485697  5.425137 -6.168761
  S     4.432318  6.130330 -3.473492
  S     6.742131  5.304531 -2.130320
  S     7.100513  9.706969 -6.035069
  S     4.193172  9.385496 -3.127569
  S     6.729020  8.932254 -2.000823
