16  
    
  C     5.174065  6.307846 -4.491726
  C     6.385494  5.840909 -3.881215
  C     5.432821  9.496604 -4.113383
  C     6.687032  9.236554 -3.460783
  N     7.401687  5.760767 -4.694341
  N     5.267097  6.496778 -5.782940
  N     4.549304  5.923651 -2.048513
  N     7.693679  9.318042 -4.329529
  N     5.439949  9.747284 -5.430053
  N     4.933382  9.118433 -1.566330
  S     6.824366  6.198319 -6.234351
  S     3.833766  6.503960 -3.403464
  S     6.132497  5.511543 -2.206102
  S     6.998884  9.584283 -5.806961
  S     4.099514  9.501252 -3.022499
  S     6.547259  8.957219 -1.725937
