16  
    
  C     5.598594  5.859724 -4.531234
  C     6.792453  5.474036 -3.853967
  C     5.586749  9.709109 -4.217223
  C     6.814122  9.165715 -3.704640
  N     7.861510  5.302209 -4.666462
  N     5.703074  6.012442 -5.866534
  N     4.920596  5.625554 -1.971500
  N     7.820830  9.166468 -4.613052
  N     5.637838 10.020044 -5.506535
  N     5.028114  9.202997 -1.818425
  S     7.324112  5.677855 -6.188383
  S     4.239145  6.219800 -3.437016
  S     6.485003  5.095040 -2.090857
  S     7.131422  9.702916 -6.027535
  S     4.298099  9.925293 -3.170341
  S     6.583599  8.793207 -2.008866
