16  
    
  C     5.579680  5.751091 -4.389950
  C     6.890549  5.438842 -3.831399
  C     5.551057  9.589008 -4.338515
  C     6.822213  9.237087 -3.792135
  N     7.886388  5.312863 -4.703156
  N     5.574074  5.862465 -5.715442
  N     5.206472  5.628720 -1.854135
  N     7.829333  9.143640 -4.666660
  N     5.544982  9.742382 -5.648992
  N     5.274856  9.301450 -1.754550
  S     7.130052  5.632777 -6.190697
  S     4.294666  5.963942 -3.230025
  S     6.811730  5.370593 -2.084339
  S     7.175979  9.537023 -6.104414
  S     4.335635  9.672976 -3.097010
  S     6.841286  8.868157 -2.112770
