16  
    
  C     5.580844  5.450774 -4.093564
  C     6.809990  5.106355 -3.460740
  C     5.799426  9.274079 -3.979679
  C     7.025658  8.907220 -3.306078
  N     7.847239  5.024992 -4.310512
  N     5.629706  5.538552 -5.419121
  N     5.080332  5.295470 -1.520959
  N     8.031427  8.782944 -4.179649
  N     5.788364  9.273343 -5.290903
  N     5.241309  9.155853 -1.456440
  S     7.244369  5.119388 -5.850162
  S     4.291897  5.590105 -2.950176
  S     6.694017  5.083332 -1.702285
  S     7.376343  9.047417 -5.717114
  S     4.531621  9.605539 -2.900608
  S     6.935971  8.799051 -1.558747
