16  
    
  C     5.861010  6.070782 -4.338344
  C     7.007389  5.565308 -3.677288
  C     5.725711  9.502403 -4.395127
  C     6.927290  8.972903 -3.762323
  N     8.047870  5.350689 -4.446222
  N     6.073647  6.356248 -5.615786
  N     5.070385  5.735415 -1.953743
  N     7.934743  8.618995 -4.540090
  N     5.964371  9.675140 -5.674021
  N     5.186065  9.290292 -1.882758
  S     7.586769  5.803690 -5.994755
  S     4.393982  6.093305 -3.432905
  S     6.698930  5.352018 -2.041760
  S     7.463304  9.208267 -6.040193
  S     4.413603  9.878883 -3.283407
  S     6.791203  8.909843 -2.039757
