16  
    
  C     5.632059  6.082048 -4.168994
  C     6.806595  5.531052 -3.560017
  C     5.792261  9.539445 -4.244984
  C     7.026438  9.095460 -3.665220
  N     7.791476  5.299122 -4.407471
  N     5.719941  6.140982 -5.478061
  N     4.984007  5.896648 -1.697046
  N     8.053672  8.921150 -4.471173
  N     5.922041  9.676147 -5.575956
  N     5.527070  9.677119 -1.666120
  S     7.292455  5.780541 -5.923938
  S     4.389288  6.606445 -3.058994
  S     6.560703  5.321841 -1.879642
  S     7.476009  9.377802 -5.968333
  S     4.622738  9.991328 -3.042108
  S     6.986291  8.934948 -1.938977
