16  
    
  C     5.283289  6.159688 -4.349068
  C     6.468937  5.705291 -3.763626
  C     5.504618  9.662016 -4.433981
  C     6.665531  9.201279 -3.739293
  N     7.498970  5.552374 -4.597659
  N     5.391623  6.312807 -5.676994
  N     4.833126  5.996722 -1.849446
  N     7.706711  8.979162 -4.493262
  N     5.665634  9.925630 -5.717717
  N     4.806167  9.553579 -1.960579
  S     6.958363  5.910538 -6.102118
  S     3.943774  6.400441 -3.259478
  S     6.436966  5.672529 -2.015121
  S     7.231993  9.508058 -6.029959
  S     4.122519  9.832657 -3.448575
  S     6.435728  9.120296 -2.041556
