16  
    
  C     5.681291  5.422792 -4.178872
  C     6.877275  4.903633 -3.499234
  C     5.415973  9.274081 -4.661815
  C     6.623246  8.833267 -4.017408
  N     7.895987  4.712673 -4.328063
  N     5.872536  5.677452 -5.464057
  N     5.079719  5.117376 -1.688535
  N     7.648020  8.629067 -4.853330
  N     5.554593  9.478466 -5.957835
  N     4.849682  9.150398 -2.166389
  S     7.444490  5.300467 -5.824965
  S     4.325760  5.419552 -3.100296
  S     6.707657  4.799231 -1.787011
  S     7.125220  9.004467 -6.319443
  S     4.113706  9.737870 -3.592066
  S     6.447763  8.843258 -2.294260
