16  
    
  C     5.667020  5.894940 -4.332839
  C     6.859495  5.353046 -3.801999
  C     5.631612  9.602379 -4.623832
  C     6.800153  9.223359 -3.881568
  N     7.822493  5.045749 -4.642106
  N     5.669957  5.980702 -5.649054
  N     5.238060  5.602019 -1.808656
  N     7.907187  9.248115 -4.649656
  N     5.813297  9.998869 -5.904087
  N     4.903565  9.062968 -2.187558
  S     7.218222  5.523729 -6.130870
  S     4.400369  5.959764 -3.156582
  S     6.737466  4.991507 -2.085937
  S     7.410724  9.789473 -6.203195
  S     4.155803  9.511992 -3.639015
  S     6.576300  8.934529 -2.222331
