16  
    
  C     5.453550  6.003949 -4.396096
  C     6.618122  5.543022 -3.727939
  C     5.340530  9.530812 -4.318213
  C     6.592954  9.200546 -3.732005
  N     7.675630  5.535748 -4.511090
  N     5.572720  6.235434 -5.714034
  N     4.753520  5.461664 -1.941895
  N     7.631053  9.091544 -4.558592
  N     5.408931  9.788064 -5.625188
  N     4.875303  9.463537 -1.721154
  S     7.184575  6.026198 -6.030743
  S     4.001268  5.992731 -3.353775
  S     6.416782  5.276311 -1.994388
  S     6.988556  9.440603 -6.051239
  S     4.030205  9.690125 -3.165658
  S     6.481302  9.079651 -1.964086
