16  
    
  C     5.404534  6.019789 -4.187971
  C     6.619685  5.344931 -3.634053
  C     5.648877  9.685786 -4.568079
  C     6.705476  9.054957 -3.771227
  N     7.629419  5.199742 -4.506399
  N     5.536489  6.269031 -5.500777
  N     4.974008  5.751351 -1.651031
  N     7.810613  8.867286 -4.488107
  N     5.979895 10.094432 -5.783913
  N     4.796258  9.271809 -2.099842
  S     7.023169  5.752110 -5.962627
  S     4.194891  6.333702 -2.986554
  S     6.560873  5.203716 -1.890789
  S     7.615583  9.574818 -5.958736
  S     4.204916  9.914301 -3.526159
  S     6.404151  8.836442 -2.127089
