16  
    
  C     5.542153  6.032824 -4.337928
  C     6.778609  5.679090 -3.639796
  C     5.660158  9.461235 -4.381147
  C     6.909189  9.082170 -3.709626
  N     7.773383  5.469227 -4.528497
  N     5.608035  6.160717 -5.659240
  N     4.916412  5.901075 -1.856174
  N     7.918781  8.996665 -4.558234
  N     5.768181  9.528066 -5.744737
  N     5.056045  9.339098 -1.898687
  S     7.161837  5.745347 -6.056349
  S     4.190023  6.336866 -3.271068
  S     6.580345  5.541031 -1.930265
  S     7.388170  9.367771 -6.108644
  S     4.276661  9.667091 -3.305434
  S     6.669819  8.840005 -2.018785
