16  
    
  C     5.452905  6.097826 -4.165666
  C     6.627116  5.385958 -3.654350
  C     5.490250  9.517047 -4.284750
  C     6.685951  9.060248 -3.688095
  N     7.548993  5.208583 -4.577942
  N     5.542537  6.356396 -5.454185
  N     4.924357  5.541885 -1.737326
  N     7.728812  8.939569 -4.563678
  N     5.634538  9.884183 -5.602006
  N     4.803528  9.272857 -1.804594
  S     7.077382  5.819237 -6.021733
  S     4.150461  6.227602 -3.052481
  S     6.542261  5.192218 -1.931841
  S     7.174787  9.463950 -6.032125
  S     4.008445  9.636950 -3.251587
  S     6.470398  8.823934 -1.988183
