16  
    
  C     5.113156  6.325516 -4.505369
  C     6.355614  5.882588 -3.935348
  C     5.374226  9.567753 -4.114662
  C     6.687901  9.306878 -3.496053
  N     7.410960  5.872783 -4.801896
  N     5.184645  6.490961 -5.866823
  N     4.537294  5.967689 -1.998032
  N     7.674521  9.243481 -4.371952
  N     5.369674  9.727342 -5.406489
  N     4.915697  9.109813 -1.658173
  S     6.810332  6.258816 -6.233440
  S     3.767289  6.491668 -3.402691
  S     6.163705  5.527347 -2.176821
  S     6.996016  9.647799 -5.868439
  S     4.117331  9.493148 -2.999772
  S     6.603556  8.964593 -1.722284
