16  
    
  C     5.515740  5.882476 -4.287648
  C     6.667029  5.251730 -3.612510
  C     5.936146  9.172041 -3.968445
  C     7.183065  8.760803 -3.374339
  N     7.632192  4.825443 -4.442726
  N     5.685294  6.068956 -5.589032
  N     4.927913  5.789461 -1.790133
  N     8.129608  8.644626 -4.264473
  N     5.948494  9.508323 -5.256320
  N     5.457445  8.816338 -1.474366
  S     7.219572  5.478003 -5.915212
  S     4.160968  6.154337 -3.233550
  S     6.490678  5.191490 -1.870957
  S     7.528270  9.135206 -5.743631
  S     4.621575  9.005804 -2.907998
  S     7.085430  8.416932 -1.655528
