16  
    
  C     5.200396  6.216453 -4.336653
  C     6.214081  5.561809 -3.599949
  C     5.711054  9.631387 -4.227037
  C     6.905206  9.044429 -3.599796
  N     7.230205  5.086224 -4.342094
  N     5.464665  6.448828 -5.634532
  N     4.435655  6.263508 -1.862352
  N     7.908352  8.976394 -4.434565
  N     5.764679  9.866917 -5.512317
  N     5.161061  9.395094 -1.714307
  S     6.937227  5.731782 -5.884736
  S     3.854550  6.748370 -3.291064
  S     5.872712  5.432423 -1.898799
  S     7.319964  9.381580 -5.983085
  S     4.424041  9.935684 -3.081433
  S     6.726489  8.825623 -1.814648
