16  
    
  C     5.251587  6.354457 -4.378117
  C     6.348505  5.645091 -3.714876
  C     5.555377  9.547167 -4.355354
  C     6.801784  9.180115 -3.678452
  N     7.395472  5.355847 -4.508676
  N     5.456446  6.525781 -5.711997
  N     4.631338  6.191889 -1.869019
  N     7.831619  9.081958 -4.461000
  N     5.690981  9.651232 -5.653646
  N     5.014407  9.452952 -1.816296
  S     6.921949  5.878481 -6.006422
  S     4.037004  6.804518 -3.257755
  S     6.170900  5.530729 -2.013455
  S     7.253899  9.363544 -6.040110
  S     4.248573  9.831558 -3.264534
  S     6.589299  8.882402 -1.948497
