16  
    
  C     5.382710  5.983967 -4.314890
  C     6.496582  5.447279 -3.667392
  C     5.751316  9.644544 -4.171347
  C     6.833872  8.982349 -3.510834
  N     7.514903  5.129875 -4.436202
  N     5.554418  6.167592 -5.604071
  N     4.701313  5.752895 -1.871942
  N     7.868872  8.718716 -4.322502
  N     5.952427  9.927027 -5.436018
  N     4.942630  9.383761 -1.784928
  S     7.159810  5.649168 -5.979095
  S     3.971193  6.212409 -3.327711
  S     6.268597  5.318736 -1.950953
  S     7.417667  9.264489 -5.825246
  S     4.304395 10.052429 -3.163871
  S     6.500038  8.804200 -1.793251
