16  
    
  C     5.533915  6.038376 -4.480609
  C     6.842472  5.639092 -3.929794
  C     5.440379  9.975299 -4.446867
  C     6.595754  9.353174 -3.816144
  N     7.746866  5.409037 -4.863919
  N     5.548115  6.188027 -5.807047
  N     5.183577  5.901583 -1.909550
  N     7.670668  9.137833 -4.603860
  N     5.636862 10.128141 -5.756536
  N     4.760681  9.399054 -2.039992
  S     6.993162  5.752573 -6.382527
  S     4.286199  6.366453 -3.223619
  S     6.718287  5.290950 -2.155663
  S     7.144191  9.622125 -6.138626
  S     4.116763 10.170573 -3.438086
  S     6.347679  9.028951 -2.083975
