16  
    
  C     5.552453  6.045469 -4.290663
  C     6.700860  5.465178 -3.596016
  C     5.851196  9.641068 -4.242474
  C     7.062809  9.125075 -3.638385
  N     7.744887  5.226459 -4.383938
  N     5.708467  6.253143 -5.628786
  N     5.066091  6.130916 -1.762890
  N     8.062722  8.891847 -4.484896
  N     5.958494  9.814040 -5.521117
  N     5.311541  9.482107 -1.701739
  S     7.209627  5.594688 -5.891125
  S     4.316103  6.560894 -3.175677
  S     6.515741  5.275212 -1.836496
  S     7.455912  9.369550 -6.003642
  S     4.577117  9.987662 -3.121400
  S     6.941803  9.071919 -1.856860
