16  
    
  C     5.780073  5.583718 -4.294557
  C     6.951906  5.065571 -3.674081
  C     5.583524  9.530793 -4.332795
  C     6.688674  8.906700 -3.678335
  N     8.032923  5.056073 -4.416200
  N     6.039118  5.952082 -5.524147
  N     5.148271  5.264492 -1.901705
  N     7.747552  8.805825 -4.459215
  N     5.740014  9.802455 -5.622022
  N     4.794227  8.580027 -2.024664
  S     7.598048  5.585109 -5.953899
  S     4.420464  5.808664 -3.300282
  S     6.629615  4.654434 -2.024734
  S     7.312291  9.386544 -5.943201
  S     4.193357  9.594815 -3.261240
  S     6.425139  8.293711 -2.116034
