16  
    
  C     5.493276  6.010221 -4.458128
  C     6.680491  5.687112 -3.645327
  C     5.586059  9.605749 -4.312461
  C     6.731643  9.195640 -3.517966
  N     7.788383  5.573263 -4.357546
  N     5.699365  6.070917 -5.777796
  N     4.778298  6.126530 -1.924780
  N     7.768043  8.888423 -4.247617
  N     5.810634  9.651051 -5.609117
  N     4.887755  9.402835 -1.783100
  S     7.371034  5.731920 -5.947837
  S     4.072396  6.397914 -3.464962
  S     6.350604  5.592417 -1.904390
  S     7.403481  9.234567 -5.848679
  S     4.229506  9.804422 -3.304891
  S     6.461361  9.054762 -1.813684
