16  
    
  C     5.928701  5.542160 -4.088005
  C     7.042557  4.973691 -3.400252
  C     5.663158  9.670542 -4.259336
  C     6.872466  9.083071 -3.739296
  N     8.141930  4.968973 -4.155039
  N     6.077688  5.780084 -5.388672
  N     5.076076  5.147544 -1.707377
  N     7.921043  9.139318 -4.581696
  N     5.758131  9.985126 -5.545775
  N     5.072395  8.889492 -1.885324
  S     7.679380  5.397422 -5.685276
  S     4.496786  5.847774 -3.116518
  S     6.602333  4.637406 -1.752032
  S     7.348550  9.758146 -5.999499
  S     4.342108  9.734561 -3.111897
  S     6.659187  8.467165 -2.126016
