16  
    
  C     5.289268  6.146139 -4.373905
  C     6.600403  5.734278 -3.753091
  C     5.485210  9.654501 -4.379486
  C     6.677458  9.191118 -3.734331
  N     7.588160  5.523537 -4.600139
  N     5.357415  6.233939 -5.684569
  N     4.808972  5.999243 -1.849552
  N     7.762752  9.034442 -4.540385
  N     5.667757  9.928446 -5.696743
  N     4.828869  9.419841 -1.958557
  S     6.975438  5.936969 -6.101528
  S     4.003802  6.304904 -3.246003
  S     6.429981  5.692354 -2.053140
  S     7.226116  9.457278 -6.034143
  S     4.084005  9.914643 -3.345779
  S     6.409279  9.131302 -2.027008
