16  
    
  C     5.553570  5.762025 -4.471860
  C     6.840771  5.407610 -3.824506
  C     5.183846  9.798919 -4.388125
  C     6.339353  9.249592 -3.689621
  N     7.818829  5.196563 -4.685462
  N     5.679727  5.952409 -5.782873
  N     5.161970  5.742310 -1.980547
  N     7.250954  8.766343 -4.517735
  N     5.240778  9.752326 -5.710002
  N     4.598945  9.699625 -1.883915
  S     7.250673  5.547920 -6.221790
  S     4.283491  5.820633 -3.321443
  S     6.771992  5.332150 -2.125463
  S     6.766919  9.027378 -6.046178
  S     3.804088 10.040047 -3.344512
  S     6.176900  9.149838 -1.971292
