16  
    
  C     5.588664  5.655940 -4.097849
  C     6.797304  5.191952 -3.522862
  C     5.532870  8.980331 -4.150836
  C     6.820426  8.952123 -3.527063
  N     7.727007  4.929800 -4.460710
  N     5.537341  5.743222 -5.455285
  N     5.202742  5.373354 -1.574205
  N     7.792823  8.985900 -4.444372
  N     5.559000  8.948319 -5.456074
  N     5.077988  9.111050 -1.648660
  S     7.105506  5.451212 -5.892148
  S     4.393013  5.925425 -2.922112
  S     6.817955  5.248461 -1.780808
  S     7.119826  8.935822 -5.904880
  S     4.230351  8.975529 -3.061068
  S     6.704034  8.754182 -1.749789
