16  
    
  C     5.429235  5.535580 -4.225054
  C     6.611406  5.223902 -3.468806
  C     5.814736  8.846034 -3.946456
  C     7.091749  8.518131 -3.365651
  N     7.719160  4.975200 -4.217967
  N     5.610570  5.536928 -5.549968
  N     4.715078  5.693276 -1.735843
  N     8.030328  8.506390 -4.276111
  N     5.831256  9.080178 -5.251564
  N     5.357074  8.713392 -1.437172
  S     7.195730  5.040549 -5.795466
  S     4.087912  5.865775 -3.230238
  S     6.285541  5.121436 -1.764800
  S     7.406136  8.881376 -5.738399
  S     4.513275  9.148038 -2.831806
  S     6.909947  8.143819 -1.654680
