16  
    
  C     5.623421  5.697536 -4.307736
  C     6.846488  5.309039 -3.640710
  C     5.522660  9.452643 -4.393771
  C     6.786928  9.165541 -3.753210
  N     7.863875  5.373722 -4.475787
  N     5.680818  6.072335 -5.582663
  N     5.059781  5.306908 -1.840018
  N     7.814329  9.039150 -4.567165
  N     5.625832  9.543193 -5.726818
  N     5.187872  9.415259 -1.802320
  S     7.271710  5.738245 -6.027742
  S     4.253112  5.838994 -3.224010
  S     6.695446  4.967494 -1.930632
  S     7.176595  9.276936 -6.116623
  S     4.318096  9.778651 -3.190289
  S     6.765238  8.961310 -2.001121
