16  
    
  C     5.400696  5.874371 -4.489442
  C     6.590802  5.448800 -3.765337
  C     5.353991  9.369635 -4.176960
  C     6.609454  8.952837 -3.631078
  N     7.661058  5.226036 -4.533234
  N     5.559429  6.080005 -5.780983
  N     4.717177  5.680653 -1.950192
  N     7.641206  8.824169 -4.426560
  N     5.482493  9.439449 -5.493657
  N     4.968998  9.143140 -1.629820
  S     7.175106  5.682847 -6.080660
  S     4.025789  6.249046 -3.366754
  S     6.328076  5.053435 -2.054815
  S     7.057583  9.089884 -5.943602
  S     4.114420  9.552067 -2.950647
  S     6.664536  8.755009 -1.924851
