16  
    
  C     5.352883  5.869792 -4.253667
  C     6.569742  5.465525 -3.702116
  C     5.448978  9.496002 -4.456429
  C     6.653309  9.075581 -3.765028
  N     7.599350  5.341996 -4.545703
  N     5.479962  6.228121 -5.526355
  N     4.901014  5.609209 -1.748084
  N     7.611697  8.850212 -4.619602
  N     5.476427  9.658176 -5.782571
  N     5.052625  9.738429 -1.882899
  S     7.043024  5.886760 -6.014109
  S     4.079434  6.056160 -3.101960
  S     6.563854  5.382303 -1.947250
  S     7.152673  9.236619 -6.148455
  S     4.144071  9.650361 -3.255638
  S     6.608544  9.237401 -2.032716
