16  
    
  C     5.542470  6.331084 -4.456384
  C     6.676958  5.850558 -3.739546
  C     5.660509  9.792632 -4.469643
  C     6.879338  9.432234 -3.742626
  N     7.677287  5.501221 -4.559254
  N     5.702833  6.475438 -5.759009
  N     4.880220  6.240964 -1.978239
  N     7.892127  9.210801 -4.548152
  N     5.762257  9.865043 -5.778878
  N     5.024849  9.691523 -1.989371
  S     7.238676  5.957687 -6.147806
  S     4.184082  6.717169 -3.450756
  S     6.523229  5.851482 -2.037569
  S     7.395683  9.547382 -6.089450
  S     4.256823  9.889212 -3.371998
  S     6.691530  9.343024 -1.966590
