16  
    
  C     5.317951  6.014475 -4.491010
  C     6.453276  5.521676 -3.732875
  C     5.353435  9.632921 -4.235691
  C     6.590947  9.238961 -3.497879
  N     7.547700  5.286288 -4.456419
  N     5.465188  6.019838 -5.841905
  N     4.598353  6.047250 -1.964098
  N     7.636552  9.180275 -4.247482
  N     5.500288  9.833720 -5.509348
  N     4.699687  9.353081 -1.722727
  S     7.029989  5.600368 -6.050978
  S     3.962342  6.476539 -3.444359
  S     6.165293  5.525999 -2.040969
  S     7.134736  9.521329 -5.832280
  S     4.006420  9.779478 -3.152696
  S     6.344327  8.837937 -1.807079
