16  
    
  C     5.479547  5.918972 -4.494070
  C     6.705299  5.556296 -3.817226
  C     5.640397  9.289310 -4.160987
  C     6.885041  9.021393 -3.511753
  N     7.733474  5.337470 -4.607299
  N     5.585930  5.857363 -5.818794
  N     4.890960  5.789637 -1.959681
  N     7.923144  8.933275 -4.371083
  N     5.667236  9.394397 -5.494464
  N     5.124641  9.501569 -1.644169
  S     7.177389  5.507832 -6.203122
  S     4.182393  6.301829 -3.388546
  S     6.501969  5.364899 -2.088425
  S     7.351066  9.355759 -5.849208
  S     4.311046  9.636235 -3.096470
  S     6.670391  8.864318 -1.814472
