16  
    
  C     5.644217  5.762529 -4.336556
  C     6.886200  5.429480 -3.808388
  C     5.680630  9.626629 -4.271039
  C     6.972095  9.302551 -3.734339
  N     7.840683  5.307552 -4.714694
  N     5.593589  5.799172 -5.644598
  N     5.198384  5.643346 -1.837471
  N     7.926479  9.264179 -4.668453
  N     5.662761  9.843804 -5.579014
  N     5.282836  9.175745 -1.817703
  S     7.153618  5.630310 -6.198812
  S     4.367191  5.951867 -3.223045
  S     6.850287  5.270506 -2.070352
  S     7.170622  9.531537 -6.127580
  S     4.372266  9.601493 -3.114177
  S     6.873871  8.775359 -2.108851
