16  
    
  C     5.549338  5.966532 -4.499068
  C     6.619210  5.392898 -3.750090
  C     5.805302  9.455503 -4.316903
  C     7.007293  9.050756 -3.648486
  N     7.704108  5.118666 -4.445887
  N     5.829505  6.204538 -5.764803
  N     4.577756  5.686943 -2.132454
  N     8.023676  8.929727 -4.519320
  N     5.956045  9.729627 -5.613322
  N     5.214103  9.080574 -1.866875
  S     7.438506  5.821675 -5.937460
  S     4.071389  6.288085 -3.592337
  S     6.195040  5.157916 -2.050508
  S     7.498932  9.362608 -5.991010
  S     4.406710  9.429002 -3.279354
  S     6.838648  8.837320 -1.946173
