16  
    
  C     5.516336  5.704047 -4.631918
  C     6.846967  5.564485 -4.042188
  C     5.476806  9.705257 -4.116765
  C     6.732694  9.284602 -3.570502
  N     7.874066  5.584875 -4.915488
  N     5.629554  5.802873 -5.958082
  N     5.117032  5.341396 -2.130329
  N     7.722617  9.367825 -4.467728
  N     5.494764  9.955721 -5.428061
  N     4.857073  9.198721 -1.721206
  S     7.211172  5.883071 -6.384239
  S     4.185870  5.497367 -3.514832
  S     6.784779  5.337881 -2.247608
  S     7.072401  9.758009 -5.904667
  S     4.059116  9.761400 -3.129748
  S     6.428559  8.814423 -1.895798
