16  
    
  C     5.422189  6.070235 -4.365056
  C     6.609826  5.525360 -3.776022
  C     5.747134  9.774121 -4.511535
  C     6.914898  9.187169 -3.901583
  N     7.637514  5.346778 -4.612629
  N     5.485381  6.148222 -5.666001
  N     4.937601  5.804760 -1.850047
  N     7.823166  8.836922 -4.782521
  N     5.784130  9.871401 -5.826035
  N     5.120005  9.634865 -2.036821
  S     6.988505  5.752228 -6.166127
  S     4.162017  6.262842 -3.265276
  S     6.560476  5.341321 -2.077100
  S     7.269524  9.330055 -6.259964
  S     4.491475 10.150067 -3.408033
  S     6.620555  8.835242 -2.121588
