16  
    
  C     5.598345  5.847032 -4.297221
  C     6.853004  5.447782 -3.665866
  C     5.772437  9.490825 -4.464369
  C     6.990929  9.097094 -3.743989
  N     7.840160  5.286850 -4.500581
  N     5.706818  6.083788 -5.601868
  N     4.996394  5.812749 -1.788720
  N     8.042374  9.006579 -4.536173
  N     5.941118  9.707192 -5.762802
  N     5.037153  9.292239 -1.982108
  S     7.259468  5.732707 -6.022034
  S     4.270599  6.119729 -3.246146
  S     6.579485  5.332428 -1.918107
  S     7.518796  9.285833 -6.117861
  S     4.385736  9.518215 -3.430814
  S     6.714218  9.071499 -2.014780
