16  
    
  C     5.524772  6.327259 -4.495577
  C     6.716686  5.859602 -3.770052
  C     5.680812  9.822862 -4.463799
  C     6.880772  9.455106 -3.740494
  N     7.658163  5.501375 -4.609876
  N     5.694599  6.498060 -5.786392
  N     4.881937  6.230753 -1.975685
  N     7.908127  9.180880 -4.521751
  N     5.747208  9.837414 -5.795650
  N     5.052885  9.713926 -1.951308
  S     7.242359  5.928962 -6.145165
  S     4.198098  6.721855 -3.437692
  S     6.506784  5.861544 -2.048324
  S     7.415465  9.547401 -6.072254
  S     4.246610  9.897153 -3.367454
  S     6.688568  9.349914 -2.008804
