16  
    
  C     5.591750  5.880005 -4.295272
  C     6.718811  5.196659 -3.733299
  C     5.687699  9.351487 -4.362156
  C     6.910957  8.851970 -3.753733
  N     7.653354  4.898153 -4.625433
  N     5.618660  6.101009 -5.588178
  N     5.028152  5.347356 -1.866086
  N     7.916098  8.588263 -4.599861
  N     5.771398  9.450373 -5.670483
  N     5.087764  9.080738 -1.928352
  S     7.053925  5.329332 -6.076697
  S     4.291057  6.088287 -3.178913
  S     6.607171  4.982633 -2.066035
  S     7.296486  8.961999 -6.142199
  S     4.289291  9.406089 -3.343624
  S     6.682997  8.685857 -2.000834
