16  
    
  C     5.450075  6.007564 -4.177493
  C     6.662752  5.522656 -3.618063
  C     5.623667  9.638813 -4.495900
  C     6.728631  9.046237 -3.803219
  N     7.647240  5.309401 -4.487327
  N     5.467246  6.237561 -5.497287
  N     4.988764  5.679386 -1.626533
  N     7.904904  8.932647 -4.429869
  N     6.025070  9.904692 -5.745436
  N     4.831721  9.314194 -2.107366
  S     7.013625  5.771042 -5.937242
  S     4.189128  6.351459 -2.971633
  S     6.585395  5.227505 -1.920848
  S     7.567336  9.511367 -5.964024
  S     4.185778  9.938030 -3.470101
  S     6.456804  8.890505 -2.092547
