16  
    
  C     5.205754  5.289247 -3.998262
  C     6.425609  4.929333 -3.274480
  C     5.326690  9.479837 -4.222977
  C     6.533533  9.123889 -3.538685
  N     7.457433  4.782175 -4.086373
  N     5.387492  5.339934 -5.299993
  N     4.631705  5.174367 -1.461648
  N     7.581671  8.947600 -4.374879
  N     5.430203  9.438611 -5.558621
  N     4.752026  9.181222 -1.694897
  S     6.997660  5.126072 -5.599370
  S     3.815797  5.258736 -2.966537
  S     6.260011  4.715153 -1.541330
  S     7.039108  9.025639 -5.895206
  S     3.986873  9.649076 -3.113747
  S     6.367271  8.823570 -1.806077
