16  
    
  C     5.228938  5.993897 -4.411836
  C     6.376254  5.553423 -3.688813
  C     5.473630  9.619784 -4.161173
  C     6.695780  9.098445 -3.482155
  N     7.392810  5.201852 -4.464781
  N     5.452452  6.054885 -5.722869
  N     4.593943  6.097991 -2.011526
  N     7.688706  9.044346 -4.336158
  N     5.572068  9.829042 -5.433822
  N     4.781490  9.405406 -1.731311
  S     7.014818  5.456118 -6.021293
  S     3.966731  6.696095 -3.467278
  S     6.130182  5.535737 -1.986192
  S     7.148583  9.582708 -5.794177
  S     3.998388  9.758183 -3.180968
  S     6.305728  8.792459 -1.821522
