16  
    
  C     5.245060  6.271893 -4.485366
  C     6.410092  5.792555 -3.757130
  C     5.361734 10.002054 -4.172506
  C     6.654840  9.658402 -3.610058
  N     7.508328  5.616237 -4.443472
  N     5.540362  6.480057 -5.763141
  N     4.477498  6.060863 -2.079926
  N     7.691354  9.743503 -4.423016
  N     5.456130 10.354065 -5.422687
  N     5.000109  9.515627 -1.686894
  S     7.084014  6.064858 -6.040032
  S     3.866436  6.627577 -3.513204
  S     6.080647  5.494014 -2.074260
  S     7.077502 10.103453 -5.907000
  S     4.090289  9.767073 -3.026450
  S     6.696307  9.362039 -1.887131
