16  
    
  C     5.596341  6.094617 -4.330949
  C     6.773390  5.493101 -3.681138
  C     5.593961  9.547746 -4.262328
  C     6.892209  9.097469 -3.681576
  N     7.750391  5.249010 -4.546211
  N     5.735277  6.332437 -5.626538
  N     4.911165  5.750336 -1.887338
  N     7.873700  9.042369 -4.533208
  N     5.675478  9.680305 -5.577953
  N     5.216473  9.327097 -1.717629
  S     7.314265  5.862114 -6.047447
  S     4.285986  6.436477 -3.307544
  S     6.432725  5.076227 -2.035568
  S     7.238323  9.296040 -5.994802
  S     4.298847  9.797588 -3.097610
  S     6.825970  8.836774 -1.980552
