16  
    
  C     5.327745  5.910122 -4.474538
  C     6.577532  5.521579 -3.871075
  C     5.221750  9.875986 -4.681503
  C     6.497819  9.567868 -4.053057
  N     7.646360  5.575510 -4.677759
  N     5.447221  6.085905 -5.803565
  N     4.940093  5.662702 -1.924920
  N     7.640720  9.580520 -4.786820
  N     5.428758 10.092048 -5.999300
  N     4.656621  9.596329 -2.172799
  S     7.083478  5.911942 -6.155768
  S     4.078045  5.918824 -3.306992
  S     6.511688  5.145253 -2.187552
  S     7.050408  9.958978 -6.287552
  S     3.933802 10.058727 -3.578285
  S     6.353524  9.254397 -2.375519
