16  
    
  C     5.508519  5.329719 -4.060805
  C     6.860463  5.255640 -3.494127
  C     5.495669  9.426662 -4.672079
  C     6.662264  8.922159 -3.988242
  N     7.759256  5.197453 -4.461261
  N     5.487753  5.251986 -5.387559
  N     5.261729  5.013335 -1.525711
  N     7.667012  8.572609 -4.760396
  N     5.683151  9.465915 -5.987165
  N     4.875894  9.280921 -2.190857
  S     7.056281  5.259861 -5.963599
  S     4.331356  5.262376 -2.863455
  S     6.945283  4.972198 -1.803863
  S     7.231393  8.848354 -6.273449
  S     4.169703  9.853306 -3.643260
  S     6.427311  8.827809 -2.279698
