16  
    
  C     5.538928  6.696302 -4.553061
  C     6.709981  6.131138 -3.924948
  C     5.584469 10.184911 -4.545393
  C     6.729958  9.619241 -3.884295
  N     7.793052  5.872405 -4.654746
  N     5.688722  6.676931 -5.915932
  N     5.023881  6.483958 -2.042112
  N     7.708085  9.168169 -4.682642
  N     5.781613 10.239584 -5.825711
  N     4.873720 10.037144 -2.054783
  S     7.226487  6.214431 -6.263108
  S     4.342012  7.086706 -3.419800
  S     6.551050  5.841882 -2.243092
  S     7.312992  9.632117 -6.204115
  S     4.294626 10.540542 -3.473991
  S     6.514666  9.526447 -2.178785
