16  
    
  C     5.749770  5.416668 -3.946581
  C     6.990288  5.061539 -3.297921
  C     5.431365  9.395052 -4.196312
  C     6.543765  8.727728 -3.529521
  N     8.045330  4.972664 -4.105471
  N     5.793106  5.579218 -5.280213
  N     5.222928  5.120600 -1.400036
  N     7.627293  8.473992 -4.222136
  N     5.678163  9.580547 -5.484100
  N     4.812597  9.345455 -1.743080
  S     7.380837  5.246882 -5.653726
  S     4.414885  5.445807 -2.776866
  S     6.842591  4.897287 -1.638728
  S     7.200766  8.999073 -5.791264
  S     4.076075  9.741476 -3.193114
  S     6.229795  8.451728 -1.822143
