16  
    
  C     5.264211  5.217996 -3.982104
  C     6.466902  4.906646 -3.227268
  C     5.342901  9.487603 -4.176127
  C     6.579997  9.087144 -3.518079
  N     7.553739  4.864925 -3.992766
  N     5.423507  5.420852 -5.316683
  N     4.672547  5.192595 -1.460940
  N     7.593916  8.856846 -4.307345
  N     5.389324  9.489496 -5.497812
  N     4.698405  9.126342 -1.715809
  S     7.063979  5.115188 -5.594964
  S     3.813082  5.234040 -2.903451
  S     6.313928  4.739977 -1.497191
  S     7.041006  9.043071 -5.884660
  S     4.006076  9.644082 -3.122702
  S     6.320123  8.801973 -1.783769
