16  
    
  C     5.677272  6.112924 -4.532490
  C     6.787865  5.522304 -3.884917
  C     5.594285  9.709282 -4.419379
  C     6.732779  9.187050 -3.725900
  N     7.877063  5.303195 -4.633835
  N     5.785686  6.322590 -5.860077
  N     4.987961  5.831153 -2.002954
  N     7.773573  9.084422 -4.527046
  N     5.809028 10.116811 -5.663357
  N     4.906681  9.347184 -1.958490
  S     7.354094  5.841038 -6.183924
  S     4.278498  6.127519 -3.460104
  S     6.531903  5.424723 -2.120146
  S     7.288023  9.558397 -6.057272
  S     4.226440  9.868803 -3.404407
  S     6.492828  8.948803 -2.027220
