16  
    
  C     5.483274  5.820429 -4.567873
  C     6.741913  5.557453 -3.830010
  C     5.156510  9.534637 -4.413004
  C     6.396656  9.185009 -3.735153
  N     7.816430  5.479987 -4.594239
  N     5.657738  5.823425 -5.878520
  N     4.875339  5.639281 -2.033939
  N     7.426125  8.801357 -4.497681
  N     5.277524  9.422647 -5.722683
  N     4.656616  9.911538 -2.019690
  S     7.300069  5.733135 -6.172436
  S     4.101910  5.971826 -3.485424
  S     6.530115  5.386073 -2.179905
  S     6.864894  8.944151 -6.028303
  S     3.886460 10.152890 -3.492899
  S     6.145525  9.294783 -2.047466
