16  
    
  C     5.540719  5.764136 -4.352616
  C     6.788891  5.326666 -3.825929
  C     5.344045  9.948672 -4.656845
  C     6.481994  9.267534 -4.034853
  N     7.774399  5.146440 -4.693959
  N     5.595750  5.974763 -5.687288
  N     5.191352  5.547364 -1.870064
  N     7.425981  8.865625 -4.868646
  N     5.427919  9.964115 -5.986744
  N     4.876357  9.794606 -2.057557
  S     7.130077  5.580081 -6.216607
  S     4.369949  6.072330 -3.169058
  S     6.715272  4.957245 -2.153653
  S     6.899202  9.308735 -6.359632
  S     4.147218 10.374064 -3.494450
  S     6.386298  9.084704 -2.327634
