16  
    
  C     5.816989  5.948147 -4.163165
  C     7.011269  5.268792 -3.721387
  C     5.741126  9.274952 -4.005571
  C     7.025937  8.890993 -3.486457
  N     7.884233  5.028503 -4.688880
  N     5.773160  6.247303 -5.452573
  N     5.251437  5.218680 -1.735226
  N     8.053349  8.841009 -4.343009
  N     5.776822  9.460508 -5.329586
  N     5.320221  8.793874 -1.495343
  S     7.212372  5.769575 -6.133880
  S     4.436812  5.943686 -2.999159
  S     6.826668  4.801066 -2.023786
  S     7.391895  9.135643 -5.829150
  S     4.441975  9.224743 -2.837729
  S     6.927761  8.416972 -1.836348
