16  
    
  C     5.378836  6.241081 -4.353630
  C     6.561153  5.693474 -3.602604
  C     5.527247  9.662923 -4.217873
  C     6.699233  9.148078 -3.493396
  N     7.632021  5.386298 -4.351901
  N     5.560440  6.298876 -5.663145
  N     4.600616  5.994309 -1.941903
  N     7.701756  8.826057 -4.253077
  N     5.733695  9.739282 -5.509912
  N     4.846640  9.567958 -1.733967
  S     7.092106  5.748933 -5.886500
  S     3.991655  6.525092 -3.384364
  S     6.253610  5.584208 -1.917728
  S     7.290982  9.270607 -5.828689
  S     4.245927 10.008522 -3.172232
  S     6.433312  8.971854 -1.801962
