16  
    
  C     5.378981  5.909450 -4.436148
  C     6.556021  5.439050 -3.762890
  C     5.412303  9.364795 -4.193119
  C     6.667308  9.022850 -3.564170
  N     7.640367  5.277517 -4.516340
  N     5.572935  6.074947 -5.765471
  N     4.704322  5.642143 -1.924286
  N     7.668348  8.778242 -4.421793
  N     5.444308  9.340427 -5.533015
  N     5.039338  9.135666 -1.635224
  S     7.143828  5.711426 -6.129390
  S     4.036925  6.241669 -3.327056
  S     6.286294  5.091742 -2.078353
  S     7.045300  9.081738 -5.952190
  S     4.073628  9.517798 -3.008251
  S     6.616010  8.742032 -1.891756
