16  
    
  C     5.099448  5.437409 -4.174446
  C     6.328660  4.895947 -3.562682
  C     5.447926  9.317531 -4.332061
  C     6.671055  8.915183 -3.672861
  N     7.325624  4.505487 -4.342150
  N     5.234939  5.502536 -5.476768
  N     4.621045  5.137403 -1.661723
  N     7.654268  8.690512 -4.543949
  N     5.499650  9.609236 -5.646353
  N     4.921214  9.398358 -1.802777
  S     6.794569  5.028127 -5.856989
  S     3.882355  5.699163 -3.020480
  S     6.184084  4.697508 -1.827447
  S     7.116752  9.169526 -6.079907
  S     4.119990  9.619000 -3.277840
  S     6.531037  9.046572 -1.918354
