16  
    
  C     5.303708  5.923065 -4.389576
  C     6.514652  5.441979 -3.636906
  C     5.683314  9.666246 -4.170034
  C     6.795505  8.965148 -3.502192
  N     7.528867  5.135780 -4.455645
  N     5.548075  6.132753 -5.698480
  N     4.698446  5.791163 -1.854010
  N     7.853214  8.771350 -4.294860
  N     5.908434  9.916252 -5.465764
  N     4.880233  9.321186 -1.833571
  S     7.101819  5.650737 -5.967307
  S     3.947653  6.233022 -3.297895
  S     6.325191  5.305102 -1.926409
  S     7.396896  9.287929 -5.786924
  S     4.349301 10.038657 -3.208640
  S     6.460542  8.785989 -1.756567
