16  
    
  C     5.402404  6.021688 -4.166998
  C     6.685055  5.595789 -3.576876
  C     5.573963  9.674805 -4.365817
  C     6.838910  9.259795 -3.734910
  N     7.622379  5.480315 -4.499269
  N     5.458946  6.258405 -5.464577
  N     5.009397  5.735687 -1.683028
  N     7.881179  9.016565 -4.516572
  N     5.718488  9.731758 -5.676607
  N     4.978025  9.519936 -1.928222
  S     6.986100  5.853809 -5.996110
  S     4.128361  6.130316 -3.008426
  S     6.595135  5.293799 -1.941299
  S     7.318862  9.230577 -6.062647
  S     4.189680  9.859105 -3.384503
  S     6.573307  9.103528 -1.973983
