16  
    
  C     5.245903  6.335551 -4.337894
  C     6.408609  5.751911 -3.715340
  C     5.572301  9.624911 -4.427713
  C     6.791438  9.269052 -3.690007
  N     7.418021  5.461984 -4.538834
  N     5.392703  6.509407 -5.657108
  N     4.681144  6.053985 -1.905415
  N     7.795260  9.182187 -4.514708
  N     5.635832  9.667622 -5.749339
  N     4.955012  9.503299 -1.939854
  S     6.905857  5.828377 -6.086069
  S     4.028576  6.838307 -3.256003
  S     6.232413  5.508863 -1.979210
  S     7.278188  9.406623 -6.028571
  S     4.186802  9.785626 -3.353599
  S     6.509895  8.892002 -2.013491
