16  
    
  C     5.597861  6.346052 -4.579862
  C     6.537989  5.582361 -3.826376
  C     5.778704  9.465527 -4.405969
  C     7.012406  9.044390 -3.740372
  N     7.627567  5.226469 -4.538086
  N     5.943021  6.579546 -5.878485
  N     4.610801  5.860858 -2.190640
  N     8.060405  9.012905 -4.534578
  N     5.869631  9.663720 -5.707174
  N     5.105738  9.246408 -1.941928
  S     7.474450  5.964242 -5.998201
  S     4.109869  6.565021 -3.642823
  S     6.027776  5.028016 -2.288953
  S     7.486233  9.396024 -6.090419
  S     4.405116  9.636360 -3.400056
  S     6.716839  8.738826 -2.010663
