16  
    
  C     5.571844  6.104382 -4.255030
  C     6.666436  5.452562 -3.607475
  C     5.861870  9.723645 -4.236883
  C     7.045576  9.217042 -3.579393
  N     7.628307  5.090221 -4.407020
  N     5.755473  6.210883 -5.544335
  N     5.050429  6.183157 -1.783637
  N     8.005661  8.955994 -4.454263
  N     5.958962  9.925266 -5.555281
  N     5.246597  9.335284 -1.742964
  S     7.210410  5.529991 -5.956790
  S     4.269744  6.497215 -3.236332
  S     6.470380  5.322949 -1.927289
  S     7.451917  9.275669 -5.990785
  S     4.532798  9.952090 -3.157000
  S     6.904549  9.111356 -1.830112
