16  
    
  C     5.384208  6.569568 -4.498692
  C     6.480877  5.922707 -3.841765
  C     5.463920 10.057436 -4.343077
  C     6.707991  9.785846 -3.684709
  N     7.569376  5.586132 -4.512780
  N     5.632745  6.699177 -5.829002
  N     4.731328  6.394690 -2.014497
  N     7.781008  9.832779 -4.451936
  N     5.647311 10.304606 -5.596372
  N     4.976305  9.885243 -1.812948
  S     7.149432  6.059776 -6.098807
  S     4.003779  6.838697 -3.446901
  S     6.303718  5.779614 -2.093369
  S     7.226836 10.060669 -5.978168
  S     4.095450 10.182742 -3.271482
  S     6.569495  9.420483 -1.945879
