16  
    
  C     5.732404  5.528994 -4.351019
  C     7.016460  5.212936 -3.710572
  C     5.416765  9.364004 -4.494063
  C     6.581819  8.881896 -3.772901
  N     8.010393  5.052558 -4.594408
  N     5.848992  5.579591 -5.660543
  N     5.169927  5.317060 -1.851111
  N     7.599325  8.631895 -4.565037
  N     5.564299  9.436394 -5.820032
  N     4.956298  9.510580 -1.975967
  S     7.432275  5.330148 -6.094900
  S     4.381038  5.520026 -3.276495
  S     6.839369  4.959563 -1.925407
  S     7.119987  8.872713 -6.110196
  S     4.107874  9.758082 -3.380760
  S     6.436128  8.730460 -2.075439
