16  
    
  C     5.374730  6.005319 -4.307658
  C     6.503700  5.435803 -3.661363
  C     5.755426  9.646933 -4.173456
  C     6.844183  8.990106 -3.519117
  N     7.527674  5.131933 -4.437091
  N     5.564254  6.175211 -5.600383
  N     4.694710  5.748942 -1.875290
  N     7.859909  8.707545 -4.312589
  N     5.958901  9.924662 -5.434828
  N     4.954006  9.392301 -1.761480
  S     7.162366  5.648409 -5.977648
  S     3.980649  6.208144 -3.330343
  S     6.259892  5.319512 -1.954728
  S     7.421584  9.263477 -5.834910
  S     4.303153 10.050700 -3.159906
  S     6.505889  8.807754 -1.803051
