16  
    
  C     5.660286  5.895243 -4.086897
  C     6.684122  5.054194 -3.537740
  C     5.709953  9.492298 -4.563330
  C     6.831088  8.832045 -3.936577
  N     7.554619  4.620577 -4.474084
  N     5.768449  6.155068 -5.404194
  N     5.081861  5.707617 -1.577924
  N     7.797613  8.522868 -4.785071
  N     5.896931  9.825964 -5.812402
  N     5.218087  9.462286 -2.010643
  S     7.143197  5.404677 -5.854665
  S     4.471620  6.380143 -2.948550
  S     6.353571  4.725790 -1.890616
  S     7.444814  9.145701 -6.239716
  S     4.397574  9.795583 -3.395137
  S     6.679069  8.691291 -2.237944
