16  
    
  C     5.097753  6.312887 -4.539971
  C     6.342017  5.928150 -3.943874
  C     5.354431  9.583175 -4.163217
  C     6.663287  9.267317 -3.630325
  N     7.381249  5.993205 -4.775231
  N     5.144273  6.533064 -5.820146
  N     4.592751  6.021053 -2.027449
  N     7.716926  9.308442 -4.464289
  N     5.415443  9.972741 -5.470880
  N     5.024442  9.202255 -1.612245
  S     6.776833  6.329131 -6.185582
  S     3.772064  6.385791 -3.425326
  S     6.208213  5.728879 -2.244705
  S     7.009233  9.646286 -5.933626
  S     4.093099  9.496703 -2.941289
  S     6.655550  8.982760 -1.964405
