16  
    
  C     5.711054  5.885896 -4.393695
  C     6.958971  5.405111 -3.841597
  C     5.836104  9.560816 -3.887049
  C     7.073119  8.924079 -3.493607
  N     7.975953  5.336986 -4.712416
  N     5.757509  6.126500 -5.713125
  N     5.203762  5.241804 -1.935988
  N     7.971437  8.744246 -4.468990
  N     5.769174  9.819423 -5.172096
  N     5.423448  8.847282 -1.514380
  S     7.296520  5.737043 -6.224788
  S     4.350517  5.784218 -3.271035
  S     6.836693  4.989147 -2.215201
  S     7.202819  9.280204 -5.853347
  S     4.544511  9.487435 -2.795436
  S     7.012053  8.362937 -1.838557
