16  
    
  C     5.246593  6.295399 -4.361647
  C     6.293957  5.508899 -3.606279
  C     5.604033  9.729138 -4.153587
  C     6.753578  9.117377 -3.535004
  N     7.270233  4.966388 -4.337051
  N     5.560570  6.402222 -5.637509
  N     4.430569  6.194633 -1.937408
  N     7.772558  8.816493 -4.380903
  N     5.742272  9.988131 -5.480541
  N     5.012316  9.428231 -1.753462
  S     6.862791  5.479260 -5.913824
  S     3.879817  6.759138 -3.393377
  S     6.005919  5.503442 -1.879132
  S     7.292063  9.465883 -5.881002
  S     4.153853  9.749517 -3.101066
  S     6.562513  8.856884 -1.906269
