16  
    
  C     5.288449  5.772497 -4.511793
  C     6.462264  5.356659 -3.865434
  C     5.330167  9.596935 -4.501024
  C     6.523906  9.140033 -3.819972
  N     7.451783  5.152901 -4.715420
  N     5.319883  5.902171 -5.850694
  N     4.843264  5.727639 -1.931348
  N     7.574772  8.796999 -4.541267
  N     5.489810  9.562993 -5.799106
  N     4.773197  9.632960 -2.027304
  S     6.966008  5.640171 -6.235380
  S     4.043951  6.162981 -3.339799
  S     6.403275  5.231508 -2.106729
  S     7.004799  8.958188 -6.127038
  S     4.100134 10.105059 -3.449658
  S     6.281640  8.901291 -2.077372
