16  
    
  C     5.437925  5.774931 -4.148227
  C     6.586846  5.092332 -3.608918
  C     5.595023  9.449129 -4.157090
  C     6.770160  8.882303 -3.548799
  N     7.608459  4.841631 -4.433870
  N     5.573407  5.939792 -5.465162
  N     4.834942  5.282955 -1.711831
  N     7.792069  8.758736 -4.379958
  N     5.679530  9.721809 -5.466395
  N     4.969284  9.064100 -1.643924
  S     7.140785  5.470583 -5.878106
  S     4.103347  5.973968 -3.025910
  S     6.457236  4.872019 -1.874667
  S     7.245099  9.267844 -5.849962
  S     4.214961  9.456454 -3.080788
  S     6.602530  8.738716 -1.818006
