16  
    
  C     5.594655  5.653818 -4.255039
  C     6.759209  5.284617 -3.527070
  C     5.522806  9.274542 -4.203406
  C     6.719794  8.800509 -3.538728
  N     7.804994  4.995867 -4.297112
  N     5.714274  5.650468 -5.580702
  N     4.979614  5.673656 -1.768396
  N     7.762016  8.685820 -4.379534
  N     5.635380  9.555516 -5.484843
  N     4.862536  8.990150 -1.739959
  S     7.379705  5.320856 -5.839991
  S     4.255259  6.073523 -3.198394
  S     6.467906  4.973783 -1.829266
  S     7.193087  9.126243 -5.904971
  S     4.218657  9.588979 -3.169697
  S     6.447018  8.563613 -1.817724
