16  
    
  C     5.402901  5.910033 -4.346472
  C     6.663229  5.567117 -3.701919
  C     5.321868  9.584320 -4.317032
  C     6.595188  9.201507 -3.714558
  N     7.705517  5.583610 -4.520281
  N     5.572311  6.263852 -5.596186
  N     4.769713  5.419940 -1.940263
  N     7.609113  9.091051 -4.605872
  N     5.432809  9.692617 -5.666396
  N     4.951173  9.451103 -1.807591
  S     7.215493  6.042831 -6.011696
  S     4.047347  6.004439 -3.325885
  S     6.443359  5.222203 -2.017235
  S     7.009919  9.441063 -6.074872
  S     3.954699  9.688842 -3.128974
  S     6.526694  9.039661 -2.035052
