16  
    
  C     5.510856  5.210234 -4.260310
  C     6.870007  5.208480 -3.737758
  C     5.506187  9.245171 -4.515485
  C     6.678430  8.872363 -3.768623
  N     7.828360  5.084821 -4.657951
  N     5.452088  5.073921 -5.572718
  N     5.241671  5.212838 -1.677954
  N     7.738787  8.729856 -4.557001
  N     5.699299  9.376866 -5.835021
  N     4.745725  9.145566 -2.060281
  S     7.059507  5.081622 -6.092172
  S     4.353052  5.347134 -3.053658
  S     6.868200  4.982938 -1.970797
  S     7.264904  8.921586 -6.106684
  S     4.093685  9.612279 -3.544829
  S     6.358008  8.661794 -2.066679
