16  
    
  C     5.627859  5.706913 -4.410476
  C     6.939543  5.397870 -3.776004
  C     5.725287  9.721299 -4.254162
  C     7.021872  9.270613 -3.766228
  N     7.940125  5.331345 -4.664261
  N     5.629144  5.888284 -5.741597
  N     5.301078  5.611121 -1.834847
  N     8.009902  9.260423 -4.667333
  N     5.715974  9.951349 -5.568619
  N     5.264088  8.950853 -1.795835
  S     7.209890  5.575316 -6.158650
  S     4.380426  5.944845 -3.178323
  S     6.849513  5.139621 -2.026799
  S     7.241178  9.565752 -6.156632
  S     4.441958  9.511949 -3.155516
  S     6.919588  8.720388 -2.035135
