16  
    
  C     5.395192  5.691148 -4.375205
  C     6.650435  5.378798 -3.730411
  C     5.371360 10.066215 -4.574246
  C     6.534926  9.372509 -3.979325
  N     7.661858  5.305675 -4.646291
  N     5.406479  5.941659 -5.699296
  N     4.931028  5.598273 -1.844339
  N     7.529403  9.246379 -4.853457
  N     5.525404 10.425525 -5.841138
  N     4.694203  9.680397 -2.061202
  S     7.005204  5.669196 -6.075565
  S     4.076811  5.632538 -3.266001
  S     6.535683  5.285283 -1.999289
  S     6.931806  9.834305 -6.316440
  S     3.980576 10.289855 -3.545674
  S     6.223625  9.138968 -2.298665
