16  
    
  C     5.826176  5.798115 -4.530523
  C     7.061505  5.359211 -3.818151
  C     5.478458  9.575632 -4.312893
  C     6.736145  9.172322 -3.712762
  N     8.116837  5.114767 -4.587308
  N     5.937349  5.798348 -5.863917
  N     5.213912  6.001869 -2.011783
  N     7.764988  9.201743 -4.562197
  N     5.514460  9.860578 -5.648027
  N     5.114307  8.986145 -1.796182
  S     7.528728  5.456156 -6.122444
  S     4.470460  6.160307 -3.457124
  S     6.735667  5.287377 -2.068366
  S     7.164575  9.657029 -6.084566
  S     4.203069  9.408205 -3.134383
  S     6.746028  8.898400 -1.978690
