16  
    
  C     5.619020  5.887934 -4.268152
  C     6.712393  5.185664 -3.747416
  C     5.684171  9.346901 -4.362716
  C     6.906264  8.821605 -3.755572
  N     7.645867  4.861361 -4.620595
  N     5.623636  6.075652 -5.578737
  N     5.002439  5.352307 -1.850145
  N     7.890171  8.617499 -4.612034
  N     5.765199  9.466245 -5.683902
  N     5.095255  9.089503 -1.909065
  S     7.069574  5.343109 -6.079181
  S     4.300209  6.066833 -3.187617
  S     6.596162  4.996877 -2.052821
  S     7.294764  8.968607 -6.132456
  S     4.276029  9.414639 -3.330279
  S     6.674924  8.680481 -2.006294
