16  
    
  C     5.764728  5.582126 -4.221956
  C     6.970721  5.148669 -3.513135
  C     5.437641  9.347361 -4.533699
  C     6.661394  8.964574 -3.883248
  N     7.959183  4.993406 -4.344609
  N     5.901476  5.593843 -5.536954
  N     5.143877  5.276871 -1.754610
  N     7.705957  8.750113 -4.688268
  N     5.543483  9.459799 -5.845281
  N     4.808597  9.197718 -2.122562
  S     7.497013  5.320507 -5.913298
  S     4.452298  5.808073 -3.185982
  S     6.709296  4.746706 -1.865241
  S     7.134289  9.040781 -6.233824
  S     4.116685  9.665510 -3.537554
  S     6.367169  8.576386 -2.215620
