16  
    
  C     5.530980  6.163468 -4.390861
  C     6.727038  5.650065 -3.803249
  C     5.468419  9.800420 -4.235575
  C     6.634431  9.243474 -3.539867
  N     7.708881  5.458377 -4.650223
  N     5.690052  6.503260 -5.668179
  N     4.989888  5.675746 -1.929379
  N     7.591425  8.982209 -4.459720
  N     5.496377  9.931428 -5.607941
  N     4.896553  9.567498 -1.687527
  S     7.254680  5.985539 -6.170580
  S     4.249895  6.365584 -3.218826
  S     6.546899  5.182924 -2.143247
  S     7.087073  9.414894 -5.942803
  S     4.130161 10.004134 -3.070978
  S     6.552882  9.044913 -1.820699
