16  
    
  C     5.600488  6.118572 -4.469033
  C     6.793704  5.759193 -3.754702
  C     5.536981  9.605911 -4.445976
  C     6.722101  9.185223 -3.712390
  N     7.919723  5.604097 -4.461113
  N     5.734787  6.147797 -5.770797
  N     4.941638  5.997488 -1.954813
  N     7.795848  9.078975 -4.475023
  N     5.790686  9.769007 -5.740337
  N     4.995993  9.552181 -1.897571
  S     7.329028  5.800616 -6.095029
  S     4.220532  6.468362 -3.406211
  S     6.550299  5.619079 -2.012792
  S     7.330446  9.319922 -6.073529
  S     4.187851  9.897615 -3.418707
  S     6.532954  8.970848 -2.008250
