16  
    
  C     5.385094  5.952546 -4.344223
  C     6.674315  5.582065 -3.793645
  C     5.580568  9.400526 -4.481861
  C     6.830841  9.106974 -3.780595
  N     7.623266  5.491530 -4.708702
  N     5.447910  6.152281 -5.656397
  N     4.965014  5.915035 -1.812594
  N     7.845243  8.953218 -4.636678
  N     5.625495  9.472523 -5.799481
  N     4.877479  9.081877 -2.020338
  S     6.989684  5.867228 -6.182324
  S     4.187051  6.263159 -3.193614
  S     6.541322  5.417689 -2.083520
  S     7.242744  9.268603 -6.153313
  S     4.179319  9.242047 -3.462975
  S     6.577973  8.791651 -2.086002
