16  
    
  C     5.536122  6.206150 -4.670603
  C     6.644362  5.604974 -3.975260
  C     5.666162  9.759304 -4.434519
  C     6.830501  9.216439 -3.786392
  N     7.731569  5.329822 -4.733462
  N     5.832113  6.401148 -5.973731
  N     4.722460  5.727639 -2.309667
  N     7.850505  9.058999 -4.616191
  N     5.891048 10.079474 -5.693065
  N     4.966536  9.248108 -2.008743
  S     7.419792  5.985319 -6.192976
  S     4.057199  6.396562 -3.728412
  S     6.298836  5.269657 -2.263965
  S     7.429276  9.551975 -6.070134
  S     4.221977  9.752097 -3.376171
  S     6.572053  8.825667 -2.144516
