16  
    
  C     5.496716  6.169668 -4.469467
  C     6.730632  5.618024 -3.953630
  C     5.430814  9.981997 -4.402755
  C     6.606442  9.395640 -3.775733
  N     7.706357  5.437721 -4.865484
  N     5.451189  6.330558 -5.805855
  N     5.281905  5.831815 -1.928341
  N     7.626212  9.084251 -4.519681
  N     5.682787 10.122578 -5.670186
  N     4.805849  9.442920 -1.972150
  S     6.935672  5.835633 -6.270532
  S     4.330560  6.355632 -3.189993
  S     6.766836  5.292077 -2.296754
  S     7.172944  9.511573 -6.083050
  S     4.120290 10.258050 -3.273659
  S     6.366491  9.018295 -2.116128
