16  
    
  C     5.431276  5.606439 -4.259163
  C     6.635524  5.138960 -3.582137
  C     5.518747  9.252972 -4.173835
  C     6.744081  8.920099 -3.488576
  N     7.706746  4.955341 -4.367185
  N     5.630754  5.850031 -5.535900
  N     4.873509  5.466156 -1.764116
  N     7.803163  8.806385 -4.278599
  N     5.638562  9.520452 -5.474151
  N     4.923916  9.151089 -1.692156
  S     7.163625  5.370133 -5.939747
  S     4.241260  6.082561 -3.135065
  S     6.438214  4.817994 -1.892914
  S     7.241815  9.184095 -5.858136
  S     4.146513  9.424885 -3.098907
  S     6.520245  8.617651 -1.792731
