16  
    
  C     5.514473  6.075223 -4.175041
  C     6.622489  5.403324 -3.661951
  C     5.441861  9.513608 -4.334808
  C     6.658733  9.062637 -3.735934
  N     7.558195  5.197702 -4.580723
  N     5.551186  6.375407 -5.478376
  N     4.926248  5.551220 -1.755146
  N     7.709170  8.970462 -4.574510
  N     5.611054  9.884609 -5.610076
  N     4.837330  9.240899 -1.804961
  S     7.079039  5.851824 -6.011600
  S     4.144107  6.214653 -3.051032
  S     6.558154  5.178007 -1.909859
  S     7.164393  9.451041 -6.033044
  S     4.018144  9.629747 -3.240732
  S     6.481190  8.835934 -2.001644
