16  
    
  C     5.443731  5.633775 -4.205032
  C     6.667445  5.246259 -3.486397
  C     5.872849  8.994289 -3.963947
  C     7.085938  8.537981 -3.375882
  N     7.675867  4.942786 -4.261111
  N     5.631734  5.554175 -5.503465
  N     4.842141  5.806939 -1.795630
  N     8.093031  8.514479 -4.275786
  N     5.934461  9.257944 -5.277374
  N     5.348769  8.350557 -1.507580
  S     7.194150  5.148334 -5.829671
  S     4.084210  6.036542 -3.258757
  S     6.349333  5.081005 -1.792545
  S     7.494396  9.007397 -5.710906
  S     4.582316  9.100932 -2.782641
  S     7.021269  8.309857 -1.657330
