16  
    
  C     5.625062  6.137926 -4.383054
  C     6.765399  5.558664 -3.830083
  C     5.549318  9.578630 -4.234176
  C     6.766958  9.091564 -3.680109
  N     7.720791  5.266911 -4.683782
  N     5.689974  6.403657 -5.684565
  N     5.055265  5.691540 -1.878155
  N     7.772456  8.933296 -4.553352
  N     5.636062  9.893853 -5.548162
  N     5.111841  9.361284 -1.793376
  S     7.170260  5.866327 -6.140751
  S     4.283396  6.333003 -3.215069
  S     6.659394  5.273662 -2.069497
  S     7.145311  9.437574 -6.060285
  S     4.207096  9.658900 -3.115528
  S     6.733371  8.935665 -1.933445
