16  
    
  C     5.302184  5.485177 -4.388739
  C     6.467544  4.882867 -3.763516
  C     5.566698  9.201716 -4.397783
  C     6.643028  8.454012 -3.817838
  N     7.540593  4.714734 -4.540005
  N     5.548298  5.803715 -5.675468
  N     4.718276  5.089571 -1.852316
  N     7.665670  8.282166 -4.620874
  N     5.783429  9.572364 -5.667511
  N     4.827174  8.649765 -1.964486
  S     7.050827  5.315969 -6.047910
  S     3.969210  5.740836 -3.226038
  S     6.298199  4.579047 -2.028460
  S     7.322097  9.041076 -6.022189
  S     4.290565  9.578913 -3.252315
  S     6.338879  7.911432 -2.212884
