16  
    
  C     5.117112  6.333758 -4.498783
  C     6.356093  5.870488 -3.928175
  C     5.375025  9.554677 -4.107787
  C     6.676869  9.303421 -3.495395
  N     7.415813  5.863356 -4.810551
  N     5.190450  6.486834 -5.855502
  N     4.531191  5.961971 -2.000230
  N     7.685533  9.250750 -4.365050
  N     5.372432  9.729561 -5.414984
  N     4.923942  9.106272 -1.646768
  S     6.816504  6.249755 -6.229516
  S     3.775855  6.494431 -3.402080
  S     6.158791  5.522706 -2.178810
  S     6.993399  9.640013 -5.858555
  S     4.120482  9.495417 -3.009318
  S     6.594996  8.962723 -1.713254
