16  
    
  C     5.691987  6.271559 -4.214700
  C     6.897993  5.648620 -3.651326
  C     5.954228  9.604290 -4.171974
  C     7.183939  9.127374 -3.614614
  N     7.891961  5.380682 -4.514032
  N     5.813948  6.560109 -5.498054
  N     5.109640  5.628288 -1.742950
  N     8.091907  8.761130 -4.556166
  N     5.927906  9.675462 -5.523276
  N     5.480054  9.540451 -1.634594
  S     7.283653  5.960112 -5.949602
  S     4.347858  6.357423 -3.057089
  S     6.731152  5.321292 -1.917070
  S     7.353471  9.171400 -6.050031
  S     4.634984  9.775803 -3.017048
  S     6.972596  8.781968 -1.946654
