16  
    
  C     5.361525  5.967900 -4.410526
  C     6.571926  5.464484 -3.762227
  C     5.478504  9.238404 -4.185422
  C     6.707193  8.927851 -3.573076
  N     7.594977  5.295024 -4.598877
  N     5.443110  6.218168 -5.727088
  N     4.694283  5.565384 -1.989407
  N     7.702300  8.880608 -4.478352
  N     5.464560  9.334522 -5.515997
  N     4.878241  9.255986 -1.696691
  S     7.027189  5.763279 -6.056384
  S     4.040993  6.214126 -3.341316
  S     6.332335  5.183053 -2.064804
  S     6.998378  9.023450 -5.993328
  S     4.185045  9.369898 -3.144097
  S     6.522955  8.728565 -1.824033
