16  
    
  C     5.633103  5.720860 -4.211467
  C     6.805799  5.257356 -3.462203
  C     5.548617  9.406207 -4.153637
  C     6.692876  8.819290 -3.523240
  N     7.863308  5.064154 -4.239291
  N     5.806321  5.660485 -5.543743
  N     4.904429  5.655570 -1.707460
  N     7.717981  8.692900 -4.341282
  N     5.660934  9.599003 -5.471199
  N     4.815705  8.953455 -1.734243
  S     7.391185  5.300205 -5.857197
  S     4.257649  6.064640 -3.196328
  S     6.458097  4.982585 -1.739432
  S     7.198832  9.100459 -5.823813
  S     4.186198  9.585129 -3.105917
  S     6.421961  8.568993 -1.770713
