16  
    
  C     5.366142  5.968950 -4.325425
  C     6.624581  5.620196 -3.659354
  C     5.359484  9.382831 -4.379775
  C     6.629256  9.057844 -3.767426
  N     7.603226  5.385304 -4.517635
  N     5.502591  6.048002 -5.634706
  N     4.771406  5.584713 -1.836876
  N     7.624501  8.961407 -4.671787
  N     5.308278  9.464803 -5.701680
  N     4.956717  9.443780 -1.894271
  S     7.076129  5.683489 -6.057608
  S     4.065306  6.072686 -3.266057
  S     6.454289  5.281884 -1.975675
  S     6.926377  9.167593 -6.148889
  S     4.082644  9.697266 -3.283922
  S     6.561363  9.162515 -2.085629
