16  
    
  C     5.578877  5.701794 -4.237248
  C     6.776541  5.168159 -3.626897
  C     5.440494  9.136494 -4.189627
  C     6.652300  8.793839 -3.481950
  N     7.774154  4.818438 -4.430317
  N     5.709028  5.788412 -5.547487
  N     4.964635  5.670879 -1.754494
  N     7.710877  8.699213 -4.251798
  N     5.578534  9.311114 -5.498694
  N     4.829685  9.036487 -1.700402
  S     7.227975  5.327474 -6.006222
  S     4.278239  6.147732 -3.189490
  S     6.452990  4.819675 -1.911173
  S     7.187212  9.054613 -5.840516
  S     4.132832  9.482326 -3.100183
  S     6.424661  8.569792 -1.818478
