16  
    
  C     5.224246  6.201374 -4.360568
  C     6.338318  5.687021 -3.613851
  C     5.633073  9.664401 -4.122496
  C     6.777922  9.005314 -3.546173
  N     7.383651  5.386759 -4.373653
  N     5.420280  6.489709 -5.634837
  N     4.547456  6.132348 -1.838641
  N     7.727466  8.626866 -4.445178
  N     5.717165  9.805700 -5.463599
  N     5.190708  9.486932 -1.613252
  S     6.947292  5.819902 -5.934375
  S     3.871017  6.537507 -3.336186
  S     6.084298  5.603950 -1.912929
  S     7.203332  9.155792 -5.865140
  S     4.367053  9.854114 -3.043427
  S     6.829820  8.954700 -1.785157
