16  
    
  C     5.600423  6.072610 -4.159620
  C     6.747500  5.511769 -3.562986
  C     5.844212  9.561627 -4.246311
  C     7.063071  9.074404 -3.643972
  N     7.763635  5.295883 -4.387752
  N     5.718793  6.138514 -5.490679
  N     5.015031  5.957294 -1.684743
  N     8.049677  8.896213 -4.502113
  N     5.873564  9.687905 -5.535308
  N     5.489389  9.642743 -1.688276
  S     7.286779  5.735305 -5.938929
  S     4.376995  6.607590 -3.096351
  S     6.545000  5.306177 -1.866229
  S     7.498989  9.397645 -5.965928
  S     4.607482 10.000513 -3.047706
  S     6.958956  8.983537 -1.941827
