16  
    
  C     5.349637  5.650345 -4.174489
  C     6.422406  4.860645 -3.587689
  C     5.594834  9.556774 -4.430238
  C     6.791498  9.097692 -3.782705
  N     7.300538  4.511174 -4.511647
  N     5.481414  5.903055 -5.469723
  N     4.844471  5.448153 -1.646774
  N     7.774005  8.793306 -4.631331
  N     5.690621  9.613240 -5.777549
  N     4.941754  9.119049 -1.994412
  S     6.819150  5.073035 -5.984592
  S     4.125303  6.116040 -2.991766
  S     6.267386  4.640380 -1.816956
  S     7.286747  9.084649 -6.147617
  S     4.291149  9.830040 -3.361721
  S     6.575424  8.771651 -2.031106
