16  
    
  C     5.645869  6.070604 -4.283446
  C     6.794382  5.541786 -3.650710
  C     5.833529  9.205546 -4.234600
  C     7.047898  8.903099 -3.518202
  N     7.795438  5.280065 -4.483096
  N     5.726697  6.127863 -5.617297
  N     4.915232  5.473495 -1.925942
  N     8.152960  8.848419 -4.279142
  N     5.998307  9.328554 -5.557637
  N     5.382439  9.112125 -1.630814
  S     7.294948  5.752375 -6.001728
  S     4.314054  6.336944 -3.206816
  S     6.572985  5.143714 -1.941173
  S     7.601534  9.123258 -5.831995
  S     4.588172  9.460820 -3.021349
  S     6.949154  8.579153 -1.795924
