16  
    
  C     5.540347  5.909052 -4.650846
  C     6.862071  5.701541 -4.028602
  C     5.464327  9.730727 -4.335959
  C     6.654788  9.195442 -3.721290
  N     7.908400  5.622667 -4.855787
  N     5.643395  5.921768 -5.981961
  N     4.946140  5.504450 -2.231455
  N     7.771700  9.195718 -4.441581
  N     5.695314 10.081590 -5.578782
  N     4.836600  9.177989 -1.870093
  S     7.260491  5.873902 -6.421369
  S     4.128019  5.826532 -3.691098
  S     6.649958  5.390542 -2.305805
  S     7.274396  9.843066 -5.925406
  S     4.092760  9.853157 -3.168984
  S     6.482585  8.843273 -2.066286
