16  
    
  C     5.476350  5.566699 -4.109558
  C     6.774155  5.130220 -3.533307
  C     5.498527  8.941095 -4.134089
  C     6.811434  8.896038 -3.517556
  N     7.769973  5.045271 -4.428430
  N     5.570319  5.829084 -5.424828
  N     5.105514  5.406397 -1.578271
  N     7.861326  8.872565 -4.340837
  N     5.489619  8.852029 -5.447218
  N     5.085980  9.183989 -1.591186
  S     7.133849  5.499568 -5.932348
  S     4.280352  6.045746 -2.871410
  S     6.791079  5.112964 -1.751291
  S     7.102608  8.770441 -5.911080
  S     4.201269  8.996767 -2.970958
  S     6.668946  8.694260 -1.814257
