16  
    
  C     5.501937  6.411284 -4.509101
  C     6.674001  5.957434 -3.872591
  C     5.678789  9.759114 -4.458339
  C     6.916269  9.401331 -3.719824
  N     7.667386  5.581398 -4.717312
  N     5.575531  6.442742 -5.833564
  N     4.885049  6.240553 -2.056844
  N     7.979420  9.327948 -4.506419
  N     5.811879  9.918427 -5.775992
  N     5.110570  9.779631 -1.947773
  S     7.084636  5.872073 -6.277601
  S     4.162295  6.773557 -3.498281
  S     6.523111  5.842835 -2.158248
  S     7.417466  9.435596 -6.078199
  S     4.311552  9.955530 -3.357871
  S     6.695574  9.282452 -1.956710
