16  
    
  C     5.460148  5.907373 -4.366131
  C     6.681560  5.554063 -3.702312
  C     5.290277  9.587706 -4.360229
  C     6.556628  9.243327 -3.786048
  N     7.795437  5.587938 -4.448418
  N     5.588133  6.298886 -5.643488
  N     4.824113  5.415547 -1.909836
  N     7.583930  9.100897 -4.558872
  N     5.390080  9.658439 -5.656511
  N     4.936678  9.426491 -1.831345
  S     7.176762  6.052908 -5.965912
  S     4.081573  6.011425 -3.275717
  S     6.446139  5.172520 -2.030452
  S     7.007132  9.436896 -6.108763
  S     4.001610  9.679353 -3.144452
  S     6.566884  8.988317 -2.062230
