16  
    
  C     5.676152  5.724074 -4.394407
  C     6.927098  5.235767 -3.946140
  C     5.669396  9.118727 -4.081173
  C     6.966450  8.671381 -3.616667
  N     7.917273  5.325551 -4.850122
  N     5.744424  6.273125 -5.615473
  N     5.363805  5.204542 -1.931805
  N     7.945105  8.628468 -4.516441
  N     5.672929  9.478564 -5.346748
  N     5.485149  8.819706 -1.571067
  S     7.366044  6.069861 -6.183539
  S     4.413180  5.871348 -3.114723
  S     6.927706  4.789491 -2.304392
  S     7.237459  9.253466 -5.879151
  S     4.531326  9.366376 -2.830893
  S     7.019017  8.334606 -1.930160
