16  
    
  C     5.627006  5.664163 -4.371125
  C     6.802138  5.231636 -3.774562
  C     5.478969  9.863672 -4.386516
  C     6.687141  9.306345 -3.843636
  N     7.837032  5.041905 -4.572095
  N     5.727778  5.776777 -5.675339
  N     5.030167  5.405140 -1.883998
  N     7.565051  9.065004 -4.831752
  N     5.386341 10.001482 -5.696751
  N     4.955882  9.619842 -1.921529
  S     7.325537  5.419657 -6.149355
  S     4.306977  5.880109 -3.308258
  S     6.691701  5.089995 -2.045638
  S     6.862505  9.473377 -6.269124
  S     4.114789 10.109993 -3.280462
  S     6.517101  9.021997 -2.132900
