16  
    
  C     5.572633  6.095958 -4.368600
  C     6.697503  5.408416 -3.708388
  C     5.842638  9.843469 -4.227772
  C     7.027792  9.357277 -3.568857
  N     7.642260  4.907553 -4.508155
  N     5.737582  6.224418 -5.688261
  N     4.924863  6.095883 -1.843840
  N     8.010053  8.954663 -4.375539
  N     5.945086  9.806607 -5.557838
  N     5.198838  9.286675 -1.788492
  S     7.196183  5.482279 -6.003604
  S     4.201856  6.458366 -3.268440
  S     6.450594  5.409417 -1.935293
  S     7.434166  9.227972 -5.922046
  S     4.433645  9.884135 -3.132321
  S     6.819496  9.108215 -1.905665
