16  
    
  C     5.428619  6.129068 -4.190404
  C     6.720001  5.644158 -3.594397
  C     5.675974  9.645821 -4.431769
  C     6.840081  9.238741 -3.674970
  N     7.705050  5.522652 -4.506968
  N     5.437705  6.218370 -5.540718
  N     4.997922  5.700589 -1.618971
  N     7.899650  9.029980 -4.460324
  N     5.839119  9.727416 -5.734687
  N     4.830569  9.349127 -1.990041
  S     6.968937  5.789521 -5.957733
  S     4.169377  6.241242 -2.969017
  S     6.592318  5.232444 -1.887022
  S     7.393923  9.359926 -6.042955
  S     4.337387  9.931113 -3.449494
  S     6.480380  9.012601 -1.936654
