16  
    
  C     5.688520  5.712779 -4.040119
  C     6.804514  5.096826 -3.385564
  C     5.536494  9.396038 -3.931992
  C     6.716766  8.792306 -3.355002
  N     7.899044  5.046387 -4.134741
  N     5.936644  6.183547 -5.252977
  N     4.974465  5.365395 -1.587451
  N     7.750344  8.633186 -4.209404
  N     5.692884  9.659551 -5.235496
  N     4.940165  9.254993 -1.485106
  S     7.439420  5.690524 -5.660962
  S     4.274224  5.878498 -2.983176
  S     6.536391  4.962601 -1.703807
  S     7.235222  9.288179 -5.628690
  S     4.186175  9.685874 -2.896620
  S     6.460606  8.562079 -1.589823
