16  
    
  C     5.524938  6.030381 -4.574418
  C     6.525943  5.319720 -3.834553
  C     5.771231  9.593749 -4.393983
  C     6.972262  9.117955 -3.715662
  N     7.701887  5.270011 -4.420944
  N     5.887704  6.483067 -5.754212
  N     4.637889  5.838531 -2.190067
  N     8.060451  8.898489 -4.442347
  N     5.960880  9.782399 -5.710719
  N     5.187226  9.209539 -1.845102
  S     7.474476  5.904192 -5.985824
  S     4.078042  6.462323 -3.618143
  S     6.087436  5.051445 -2.178340
  S     7.534673  9.301707 -6.040100
  S     4.382726  9.458936 -3.282812
  S     6.800456  8.798087 -2.051066
