16  
    
  C     5.452785  6.005364 -4.416592
  C     6.679942  5.579282 -3.831826
  C     5.532684  9.391823 -4.553442
  C     6.723056  9.174558 -3.839944
  N     7.708999  5.521819 -4.658796
  N     5.426290  6.144769 -5.746771
  N     5.021906  5.886625 -1.828756
  N     7.805668  9.083212 -4.587158
  N     5.674623  9.526438 -5.861204
  N     5.023122  9.119500 -1.958979
  S     7.061493  5.821990 -6.182900
  S     4.148646  6.238121 -3.208526
  S     6.589252  5.466464 -2.014072
  S     7.299618  9.274737 -6.144211
  S     4.205997  9.302578 -3.411631
  S     6.590530  8.832941 -2.156086
