16  
    
  C     5.493507  5.840631 -4.458292
  C     6.727525  5.553417 -3.814745
  C     5.567744  9.365436 -4.132517
  C     6.832643  9.020573 -3.507523
  N     7.764434  5.433560 -4.637015
  N     5.588933  5.916856 -5.769828
  N     4.972930  5.683314 -2.022284
  N     7.844296  8.861824 -4.333232
  N     5.695840  9.613029 -5.446355
  N     5.045823  9.027866 -1.587217
  S     7.175479  5.662630 -6.195870
  S     4.160880  6.076721 -3.405836
  S     6.594749  5.432700 -2.152653
  S     7.300779  9.090320 -5.853772
  S     4.256642  9.404981 -3.028282
  S     6.719163  8.803713 -1.783076
