16  
    
  C     5.569140  5.990708 -4.535249
  C     6.825152  5.476705 -3.876633
  C     5.565442  9.793693 -4.385561
  C     6.733008  9.272420 -3.733962
  N     7.890838  5.365084 -4.629838
  N     5.741840  6.194667 -5.844563
  N     5.029764  5.750412 -2.040769
  N     7.740244  9.090821 -4.561513
  N     5.759753 10.061901 -5.671887
  N     4.995262  9.276265 -1.886269
  S     7.318894  5.754078 -6.135213
  S     4.202086  6.157580 -3.488359
  S     6.585159  5.204191 -2.171012
  S     7.329862  9.693150 -6.046453
  S     4.158710  9.907903 -3.211953
  S     6.572321  8.867871 -2.081698
