16  
    
  C     5.521074  5.813704 -4.474444
  C     6.658184  5.186146 -3.720793
  C     5.698150  9.317561 -4.258562
  C     6.931800  8.921666 -3.620678
  N     7.717523  4.917721 -4.485753
  N     5.714463  5.980361 -5.789517
  N     4.778310  5.504148 -1.977036
  N     7.973141  8.709055 -4.431025
  N     5.861118  9.504723 -5.581235
  N     5.108230  9.150915 -1.723933
  S     7.269994  5.427354 -5.991586
  S     4.209509  6.168995 -3.376393
  S     6.360986  4.965931 -1.984878
  S     7.401079  9.183107 -5.971895
  S     4.378314  9.518567 -3.139673
  S     6.721061  8.753561 -1.816675
