16  
    
  C     5.710883  5.777636 -4.376624
  C     6.984899  5.296449 -3.727108
  C     5.716309  9.453935 -4.319363
  C     6.936184  8.847269 -3.814970
  N     7.995832  5.065093 -4.574723
  N     5.858775  5.979086 -5.687991
  N     5.169033  5.376474 -1.916589
  N     7.942011  8.956245 -4.687596
  N     5.815623 10.027487 -5.528171
  N     5.249645  8.820724 -1.859485
  S     7.429155  5.598660 -6.071479
  S     4.403340  5.863928 -3.268607
  S     6.782108  4.990981 -2.028644
  S     7.412316  9.735131 -5.990677
  S     4.358504  9.419549 -3.156565
  S     6.934843  8.700688 -2.124659
