16  
    
  C     5.606949  5.646456 -4.425077
  C     6.882854  5.396976 -3.803418
  C     5.253263  9.693849 -4.439736
  C     6.440572  9.153558 -3.828653
  N     7.897249  5.253784 -4.626615
  N     5.683982  5.744848 -5.742375
  N     5.201023  5.540460 -1.904048
  N     7.417036  9.029111 -4.694180
  N     5.244992  9.847945 -5.785632
  N     4.934358  9.715193 -1.809622
  S     7.266455  5.401611 -6.187213
  S     4.366517  5.906117 -3.264773
  S     6.805804  5.118181 -2.079643
  S     6.891606  9.402772 -6.193472
  S     4.125403 10.119377 -3.174803
  S     6.439423  9.071691 -2.116193
