16  
    
  C     5.403122  6.076008 -4.192775
  C     6.615887  5.412686 -3.666306
  C     5.502731  9.582359 -4.283026
  C     6.734021  9.054025 -3.652341
  N     7.582722  5.199823 -4.546184
  N     5.533593  6.348597 -5.473711
  N     4.916069  5.539166 -1.708410
  N     7.739520  8.892323 -4.506087
  N     5.654628  9.856545 -5.544892
  N     4.792766  9.314676 -1.824854
  S     7.043548  5.774328 -6.013731
  S     4.156084  6.245708 -3.050591
  S     6.515607  5.205014 -1.961240
  S     7.189327  9.483130 -6.019058
  S     4.034194  9.646950 -3.273752
  S     6.438708  8.805519 -1.953267
