16  
    
  C     5.575746  6.266315 -4.660958
  C     6.573982  5.564631 -3.923170
  C     5.634629  9.668291 -4.514628
  C     6.807295  9.140836 -3.821454
  N     7.669561  5.323617 -4.620115
  N     5.835208  6.597157 -5.933147
  N     4.590425  5.733934 -2.338451
  N     7.948981  9.045007 -4.519092
  N     5.863254  9.883523 -5.797740
  N     5.014754  9.202123 -1.964434
  S     7.405703  5.978149 -6.160711
  S     4.192750  6.474352 -3.732111
  S     6.177615  5.234034 -2.266764
  S     7.473223  9.537437 -6.095304
  S     4.282568  9.781509 -3.371778
  S     6.630751  8.789787 -2.134095
