16  
    
  C     5.753681  5.763048 -4.383411
  C     6.964844  5.344951 -3.780159
  C     5.692954  9.545063 -4.310022
  C     6.928644  8.992306 -3.824942
  N     8.006327  5.126152 -4.597000
  N     5.793202  5.943264 -5.716005
  N     5.240208  5.431288 -1.847710
  N     7.975589  8.935278 -4.630837
  N     5.818965  9.999045 -5.551162
  N     5.303278  8.795198 -1.881800
  S     7.376847  5.585400 -6.062539
  S     4.371252  5.890533 -3.227283
  S     6.798923  5.017988 -2.065110
  S     7.379001  9.728587 -6.029398
  S     4.399117  9.426166 -3.148702
  S     6.948845  8.734894 -2.109698
