16  
    
  C     5.738204  5.395749 -4.218744
  C     6.967029  4.942502 -3.528625
  C     5.364461  9.341690 -4.696466
  C     6.549219  8.896665 -3.994742
  N     8.043891  4.873975 -4.316755
  N     5.898993  5.706000 -5.505151
  N     5.101048  5.193313 -1.696994
  N     7.673455  8.731352 -4.709361
  N     5.548079  9.358988 -6.012789
  N     4.786805  9.118858 -2.132431
  S     7.480029  5.287445 -5.830248
  S     4.337479  5.610724 -3.158627
  S     6.677685  4.735296 -1.828458
  S     7.150534  9.038803 -6.326125
  S     4.117190  9.736278 -3.502187
  S     6.435818  8.709339 -2.243983
