16  
    
  C     5.313235  6.330503 -4.521351
  C     6.576841  5.974984 -3.872353
  C     5.714100  9.541910 -4.405449
  C     6.969019  9.164182 -3.825087
  N     7.602224  5.693694 -4.690255
  N     5.436043  6.422840 -5.852831
  N     4.801849  6.434931 -1.990421
  N     7.963843  9.135182 -4.686435
  N     5.791292  9.732531 -5.709203
  N     5.297801  9.484001 -1.926221
  S     6.976191  6.027748 -6.307108
  S     4.039655  6.752912 -3.416649
  S     6.411064  5.888190 -2.123885
  S     7.270828  9.317978 -6.223110
  S     4.439576  9.817456 -3.341634
  S     6.900670  9.086803 -1.977534
