16  
    
  C     5.654774  5.778792 -4.305198
  C     6.891821  5.264269 -3.751506
  C     5.620840  9.793437 -4.547445
  C     6.873331  9.336721 -3.939265
  N     7.793136  5.041949 -4.720021
  N     5.741338  6.040597 -5.616096
  N     5.224768  5.549992 -1.783083
  N     7.961160  9.265954 -4.688655
  N     5.812594 10.082344 -5.816357
  N     4.910923  9.005090 -2.186395
  S     7.224178  5.569549 -6.149122
  S     4.358666  5.957385 -3.143558
  S     6.791171  4.964752 -2.110681
  S     7.431878  9.761185 -6.160451
  S     4.214797  9.508469 -3.636522
  S     6.586568  8.906360 -2.223462
