16  
    
  C     5.465839  5.989063 -4.434023
  C     6.747564  5.636359 -3.813910
  C     5.464924  9.658487 -4.303547
  C     6.672963  9.151185 -3.663408
  N     7.776328  5.576070 -4.654904
  N     5.562669  6.184550 -5.752176
  N     5.025548  5.672206 -1.886791
  N     7.668377  8.978854 -4.531777
  N     5.573635  9.881716 -5.652320
  N     5.052117  9.521381 -1.757785
  S     7.088868  5.837578 -6.159504
  S     4.216499  6.321670 -3.237334
  S     6.670172  5.441594 -2.020848
  S     7.160728  9.523017 -6.044099
  S     4.212787  9.736652 -3.111620
  S     6.587992  8.924637 -1.922890
