16  
    
  C     5.388674  6.051833 -4.140906
  C     6.671538  5.590392 -3.584269
  C     5.665978  9.615096 -4.487989
  C     6.779628  9.055077 -3.718650
  N     7.627912  5.366976 -4.474319
  N     5.467212  6.204903 -5.456183
  N     5.011763  5.665661 -1.649845
  N     7.907471  8.968835 -4.437444
  N     5.957215  9.857976 -5.745896
  N     4.851086  9.311931 -2.082280
  S     7.019265  5.776527 -5.962767
  S     4.210708  6.332965 -2.973916
  S     6.579907  5.233888 -1.923597
  S     7.544336  9.474736 -5.970863
  S     4.208764  9.948649 -3.461069
  S     6.455631  8.921729 -2.077607
