16  
    
  C     5.509274  5.894185 -4.380816
  C     6.729643  5.654544 -3.703733
  C     5.633387  8.944178 -4.151236
  C     6.894628  8.692253 -3.523572
  N     7.769529  5.522166 -4.493328
  N     5.644364  5.958506 -5.677920
  N     4.858594  5.705305 -1.952333
  N     7.931766  8.756233 -4.373141
  N     5.678609  9.191171 -5.467269
  N     5.192410  8.818419 -1.599950
  S     7.261047  5.809043 -6.072637
  S     4.093958  5.915234 -3.393788
  S     6.495030  5.357309 -2.023735
  S     7.368221  9.167893 -5.862839
  S     4.283651  9.021149 -2.968311
  S     6.755027  8.475524 -1.846295
