16  
    
  C     5.647226  5.579518 -4.013835
  C     6.898303  5.118202 -3.480382
  C     5.845765  9.231128 -3.873846
  C     7.108568  8.874583 -3.286108
  N     7.840418  4.944957 -4.394574
  N     5.650767  5.743609 -5.337608
  N     5.195989  5.424896 -1.492746
  N     8.143167  8.758406 -4.134099
  N     5.912152  9.485262 -5.186142
  N     5.303826  9.152238 -1.395426
  S     7.254358  5.442004 -5.881826
  S     4.345128  5.951477 -2.855325
  S     6.767488  4.919727 -1.734938
  S     7.484275  9.177362 -5.643075
  S     4.517430  9.348786 -2.798264
  S     6.921254  8.783735 -1.539456
