16  
    
  C     5.442135  5.989483 -4.528307
  C     6.695094  5.485178 -3.886809
  C     5.402389  9.858434 -4.535475
  C     6.539822  9.295575 -3.824791
  N     7.696423  5.230934 -4.723111
  N     5.582684  6.219801 -5.817389
  N     5.040917  5.783294 -1.974162
  N     7.566954  9.139491 -4.648836
  N     5.600875 10.096085 -5.872492
  N     4.890143  9.672296 -1.987434
  S     7.087944  5.673515 -6.222215
  S     4.210979  6.366673 -3.315372
  S     6.615008  5.372204 -2.131521
  S     7.211185  9.743272 -6.150141
  S     4.023483  9.930845 -3.398569
  S     6.454388  9.038544 -2.162939
