16  
    
  C     5.566390  6.311799 -4.437541
  C     6.701839  5.780483 -3.776218
  C     5.549095  9.589184 -4.466801
  C     6.779310  9.166655 -3.780684
  N     7.744006  5.495518 -4.594996
  N     5.659322  6.388222 -5.796019
  N     4.869989  6.115865 -1.932762
  N     7.830821  8.960688 -4.558262
  N     5.769003  9.792302 -5.773873
  N     5.069796  9.571812 -1.918144
  S     7.227751  5.855358 -6.095491
  S     4.178444  6.541387 -3.332380
  S     6.494008  5.829260 -2.005686
  S     7.307039  9.208120 -6.100776
  S     4.289281  9.866702 -3.337616
  S     6.735806  9.115097 -2.015719
