16  
    
  C     5.503514  6.062009 -4.417252
  C     6.768511  5.630745 -3.754937
  C     5.606095  9.399317 -4.430581
  C     6.859306  9.199341 -3.740866
  N     7.837598  5.449153 -4.546687
  N     5.601419  6.127420 -5.741089
  N     4.972184  5.735824 -1.933856
  N     7.871357  9.082828 -4.589470
  N     5.689071  9.502317 -5.773095
  N     5.079410  9.383251 -1.936622
  S     7.205681  5.735787 -6.069950
  S     4.172756  6.159943 -3.349414
  S     6.569823  5.653274 -2.039052
  S     7.288874  9.394294 -6.144463
  S     4.212831  9.464428 -3.396490
  S     6.620875  8.989370 -2.045162
