16  
    
  C     5.404071  6.016738 -4.461132
  C     6.666952  5.513824 -3.813262
  C     5.342790  9.563359 -4.539394
  C     6.547853  9.044361 -3.937354
  N     7.553485  5.214980 -4.732563
  N     5.407724  5.990453 -5.793907
  N     4.991814  5.724089 -1.901386
  N     7.559726  8.709970 -4.757965
  N     5.542065  9.775818 -5.857031
  N     4.784824  9.512872 -2.026024
  S     6.915979  5.489982 -6.243202
  S     4.124880  6.001380 -3.248985
  S     6.586553  5.262834 -2.079204
  S     7.050332  9.164978 -6.252589
  S     4.052825  9.889653 -3.514838
  S     6.433071  9.258599 -2.138694
