16  
    
  C     5.543955  5.306822 -4.154727
  C     6.814088  5.124654 -3.518931
  C     5.693652  9.158377 -4.083161
  C     6.929707  8.760375 -3.445404
  N     7.854683  4.977141 -4.353013
  N     5.610886  5.379742 -5.477859
  N     5.026907  5.241217 -1.687150
  N     7.957869  8.633464 -4.285683
  N     5.836334  9.367631 -5.379988
  N     5.291711  9.245665 -1.548314
  S     7.150231  5.214299 -5.863590
  S     4.210244  5.524293 -3.107824
  S     6.695898  5.036054 -1.777225
  S     7.380575  9.048658 -5.776169
  S     4.416281  9.573063 -2.911646
  S     6.840610  8.683794 -1.739992
