16  
    
  C     5.245760  6.252459 -4.503040
  C     6.436331  5.673313 -3.906863
  C     5.423498  9.637929 -4.098775
  C     6.730944  9.384094 -3.518634
  N     7.439097  5.556880 -4.726935
  N     5.378771  6.599358 -5.777286
  N     4.587822  6.025996 -2.073097
  N     7.777447  9.597409 -4.365130
  N     5.443518 10.040719 -5.368650
  N     4.999533  9.099295 -1.620227
  S     6.940782  6.143638 -6.164361
  S     3.834045  6.402599 -3.538063
  S     6.164243  5.492622 -2.141336
  S     7.030369  9.953461 -5.811115
  S     4.160247  9.594758 -2.935932
  S     6.703009  8.966791 -1.796240
