16  
    
  C     5.452630  5.593068 -4.161329
  C     6.614960  5.090327 -3.483259
  C     5.642157  8.967509 -3.999039
  C     6.871821  8.475486 -3.398866
  N     7.699574  4.913518 -4.230971
  N     5.625239  5.848056 -5.440522
  N     4.768456  5.350061 -1.680821
  N     7.843266  8.199187 -4.256737
  N     5.650966  9.068734 -5.351801
  N     5.182456  8.886278 -1.469963
  S     7.179706  5.366890 -5.757089
  S     4.129550  5.858251 -3.085628
  S     6.398773  5.102303 -1.755302
  S     7.149265  8.543599 -5.829993
  S     4.304606  9.103705 -2.889620
  S     6.804917  8.541915 -1.653366
