16  
    
  C     5.518342  5.803712 -4.468358
  C     6.661600  5.178298 -3.730194
  C     5.695787  9.334671 -4.270697
  C     6.922871  8.939398 -3.612953
  N     7.724867  4.936957 -4.490845
  N     5.712541  5.976507 -5.787901
  N     4.775422  5.496796 -1.984637
  N     7.961271  8.710695 -4.414449
  N     5.863983  9.512420 -5.586779
  N     5.106025  9.162048 -1.715094
  S     7.272412  5.421386 -6.003164
  S     4.218547  6.180881 -3.369840
  S     6.365198  4.965799 -1.982821
  S     7.397574  9.175610 -5.976658
  S     4.380184  9.535478 -3.144997
  S     6.718464  8.749299 -1.814079
