16  
    
  C     5.725576  5.382643 -4.157799
  C     6.876918  4.916208 -3.533159
  C     5.383454  9.267140 -4.670476
  C     6.600280  8.856974 -3.992005
  N     7.951447  4.809922 -4.311704
  N     5.915789  5.689043 -5.432450
  N     5.084308  5.158745 -1.689577
  N     7.639078  8.701777 -4.767122
  N     5.538636  9.421363 -5.992036
  N     4.806324  9.123096 -2.178156
  S     7.483927  5.292847 -5.847307
  S     4.343945  5.519103 -3.135088
  S     6.677851  4.766583 -1.826703
  S     7.155606  9.019702 -6.335618
  S     4.110258  9.747241 -3.516031
  S     6.439187  8.777092 -2.282629
