16  
    
  C     5.657850  5.884795 -4.188507
  C     6.724073  5.106286 -3.546729
  C     5.757259  9.577775 -4.472359
  C     6.929308  9.000870 -3.856675
  N     7.712668  4.919052 -4.377841
  N     5.857288  6.243046 -5.456685
  N     5.026792  5.516688 -1.634663
  N     7.874128  8.689052 -4.753013
  N     5.767901  9.723509 -5.800622
  N     5.175435  9.301731 -2.005329
  S     7.273050  5.489053 -5.875117
  S     4.347621  6.293006 -3.024099
  S     6.576237  4.796091 -1.846390
  S     7.286668  9.097667 -6.264385
  S     4.473210  9.823950 -3.412445
  S     6.794859  8.814793 -2.091929
