16  
    
  C     5.671186  5.689909 -4.175947
  C     6.821766  5.241270 -3.471847
  C     5.522728  9.476082 -4.120850
  C     6.669742  8.908239 -3.430898
  N     7.950520  5.077113 -4.196028
  N     5.857730  5.788315 -5.479365
  N     4.880483  5.591160 -1.668390
  N     7.708611  8.616876 -4.237139
  N     5.691905  9.637487 -5.435469
  N     4.802745  8.943386 -1.667254
  S     7.379992  5.283929 -5.793023
  S     4.269764  6.038305 -3.195614
  S     6.451041  5.024990 -1.715359
  S     7.219228  9.097904 -5.792287
  S     4.121756  9.594354 -3.066779
  S     6.434418  8.569186 -1.767864
