16  
    
  C     5.570873  5.924226 -4.392563
  C     6.785670  5.599745 -3.724729
  C     5.816430  9.467415 -4.396249
  C     7.027691  9.155520 -3.700050
  N     7.840890  5.511655 -4.506332
  N     5.682964  6.031190 -5.750047
  N     5.000439  5.473873 -1.948142
  N     8.045669  8.954943 -4.538224
  N     5.906636  9.572954 -5.695768
  N     5.240211  9.380315 -1.907423
  S     7.282657  5.765035 -6.081268
  S     4.201078  6.090350 -3.299618
  S     6.658542  5.247318 -2.075256
  S     7.526554  9.353248 -6.055090
  S     4.373884  9.522129 -3.298392
  S     6.921346  9.041512 -2.012859
