16  
    
  C     5.403613  5.965376 -4.493089
  C     6.627006  5.625504 -3.843983
  C     5.326887  9.855425 -4.676121
  C     6.592705  9.593281 -4.006815
  N     7.728810  5.605613 -4.642991
  N     5.510233  6.216944 -5.801664
  N     4.955022  5.705903 -1.938328
  N     7.614605  9.676484 -4.820826
  N     5.407284 10.088785 -5.976602
  N     4.768013  9.522286 -2.247869
  S     7.080305  5.946116 -6.192392
  S     4.103189  6.011409 -3.327357
  S     6.502700  5.166807 -2.212909
  S     7.039143  9.909035 -6.361769
  S     3.947127 10.022176 -3.620410
  S     6.322805  9.332573 -2.317430
