16  
    
  C     5.828555  5.714773 -4.405096
  C     6.967710  5.079746 -3.700940
  C     5.606865  9.513941 -4.291853
  C     6.813712  9.011099 -3.664522
  N     8.064395  4.941701 -4.436398
  N     6.074134  6.025355 -5.694805
  N     5.074245  5.318477 -1.903287
  N     7.923649  8.985083 -4.421422
  N     5.775175  9.876508 -5.544823
  N     4.947959  8.786140 -1.907903
  S     7.673984  5.583651 -5.901888
  S     4.394860  5.810790 -3.372896
  S     6.628873  4.659275 -2.012448
  S     7.336820  9.452931 -5.985656
  S     4.201954  9.489154 -3.211921
  S     6.501742  8.245260 -2.144586
