16  
    
  C     5.130956  5.928873 -4.280391
  C     6.326582  5.573248 -3.643724
  C     5.475411  9.416395 -4.026567
  C     6.714093  8.910068 -3.489733
  N     7.369630  5.320091 -4.442754
  N     5.173259  5.939040 -5.610210
  N     4.539815  5.877264 -1.775122
  N     7.689060  8.706721 -4.339420
  N     5.458591  9.470039 -5.334192
  N     5.221511  9.609335 -1.449530
  S     6.803235  5.698325 -5.983063
  S     3.776013  6.304180 -3.230371
  S     6.167059  5.527960 -1.908671
  S     7.003567  8.998365 -5.777746
  S     4.332196  9.977303 -2.834252
  S     6.570189  8.728691 -1.775473
