16  
    
  C     5.502764  6.025116 -4.462077
  C     6.665483  5.681190 -3.657261
  C     5.609502  9.586013 -4.301847
  C     6.740264  9.188953 -3.502217
  N     7.795955  5.574073 -4.350515
  N     5.694667  6.073625 -5.784473
  N     4.766504  6.131814 -1.930361
  N     7.760481  8.890416 -4.240629
  N     5.808212  9.661768 -5.601472
  N     4.870846  9.402327 -1.796683
  S     7.363671  5.732660 -5.952710
  S     4.067112  6.404746 -3.454320
  S     6.341688  5.590969 -1.891031
  S     7.393768  9.233787 -5.852322
  S     4.228423  9.818744 -3.301747
  S     6.460076  9.051261 -1.802363
