16  
    
  C     5.633075  6.109218 -4.495458
  C     6.805348  5.729126 -3.809230
  C     5.532814  9.663225 -4.484990
  C     6.704470  9.218673 -3.743832
  N     7.866389  5.537778 -4.579047
  N     5.760535  6.170855 -5.815574
  N     4.930958  5.958682 -1.966718
  N     7.805434  9.021496 -4.465122
  N     5.744501  9.812562 -5.795544
  N     4.914760  9.417065 -1.937940
  S     7.383738  5.810376 -6.078687
  S     4.272589  6.343544 -3.404901
  S     6.538592  5.551300 -2.045307
  S     7.375912  9.405991 -5.990705
  S     4.185531  9.903186 -3.346025
  S     6.485180  8.979912 -2.095862
