16  
    
  C     5.480946  6.060939 -4.236384
  C     6.681775  5.430679 -3.654768
  C     5.345729  9.540353 -4.394426
  C     6.599835  9.062448 -3.771193
  N     7.622932  5.172856 -4.569539
  N     5.593638  6.413110 -5.519423
  N     4.932958  5.564653 -1.751060
  N     7.660470  9.008552 -4.545165
  N     5.550399  9.860607 -5.647608
  N     4.912713  9.188274 -1.839853
  S     7.065363  5.907683 -5.981614
  S     4.153789  6.187879 -3.066055
  S     6.569314  5.149395 -1.889676
  S     7.137683  9.440506 -6.047874
  S     4.068765  9.617546 -3.226287
  S     6.494111  8.857553 -2.029515
