16  
    
  C     5.712348  5.528017 -4.271368
  C     6.930139  5.243544 -3.572919
  C     5.187417  9.825418 -4.674487
  C     6.292092  9.271455 -3.949143
  N     7.972779  5.158652 -4.397317
  N     5.805094  5.525762 -5.642497
  N     5.107011  5.672435 -1.733358
  N     7.342812  8.980948 -4.707691
  N     5.389572 10.024726 -5.962718
  N     4.545699  9.812735 -2.156674
  S     7.458429  5.248018 -5.895844
  S     4.347361  5.717875 -3.198817
  S     6.744557  5.290177 -1.842053
  S     6.862688  9.358757 -6.245985
  S     3.782962 10.261345 -3.561223
  S     6.016159  9.146205 -2.270698
