16  
    
  C     5.408620  5.297603 -4.385212
  C     6.633008  5.045666 -3.666356
  C     5.686815  9.357991 -4.226047
  C     6.836500  8.743006 -3.596343
  N     7.712779  5.030112 -4.447880
  N     5.566380  5.593269 -5.694392
  N     4.937647  5.358695 -1.724304
  N     7.765463  8.353273 -4.476912
  N     5.865113  9.598635 -5.511045
  N     5.149692  9.100210 -1.737315
  S     7.150083  5.244048 -6.000476
  S     4.141092  5.399330 -3.148320
  S     6.490976  4.853977 -1.938377
  S     7.313541  8.970636 -5.950163
  S     4.356683  9.455951 -3.123766
  S     6.694570  8.398887 -1.852199
