16  
    
  C     5.116376  6.269606 -4.351821
  C     6.250569  5.706906 -3.612549
  C     5.781489  9.642187 -4.227352
  C     6.956850  9.093592 -3.611384
  N     7.356833  5.438663 -4.333674
  N     5.354557  6.484938 -5.656391
  N     4.428950  6.115568 -1.887096
  N     7.982771  8.898329 -4.398857
  N     5.840313  9.736839 -5.527636
  N     5.443035  9.525367 -1.646749
  S     6.863826  5.956035 -5.870159
  S     3.878102  6.733503 -3.285312
  S     5.906850  5.360202 -1.944835
  S     7.400175  9.242868 -5.964971
  S     4.590828  9.958856 -3.008356
  S     6.883716  8.857072 -1.883137
