16  
    
  C     5.517254  5.222145 -4.155013
  C     6.804567  5.102007 -3.561119
  C     5.428906  9.287591 -4.412227
  C     6.634105  8.793737 -3.800771
  N     7.830074  4.894521 -4.399746
  N     5.587557  5.365302 -5.456774
  N     5.019545  5.234711 -1.646628
  N     7.532987  8.409649 -4.710408
  N     5.461486  9.410729 -5.747247
  N     4.888491  9.101461 -1.923910
  S     7.161216  5.131053 -5.906579
  S     4.148158  5.126873 -3.044635
  S     6.737760  5.066850 -1.796117
  S     6.939530  8.808376 -6.151882
  S     4.119269  9.576432 -3.302221
  S     6.468757  8.605291 -2.111269
