16  
    
  C     5.388872  6.028165 -4.253587
  C     6.584962  5.461395 -3.637011
  C     5.517170  9.610058 -4.262135
  C     6.629020  9.084746 -3.584103
  N     7.533423  5.258005 -4.520101
  N     5.403398  6.103280 -5.567501
  N     4.866603  5.720603 -1.744539
  N     7.783233  8.914720 -4.278919
  N     5.802797  9.912436 -5.535976
  N     4.813441  9.382923 -1.765834
  S     6.985011  5.658343 -6.047374
  S     4.068776  6.287351 -3.149782
  S     6.433969  5.186196 -1.926858
  S     7.357309  9.381423 -5.837149
  S     4.123229  9.809267 -3.245932
  S     6.404666  8.726751 -1.907980
