16  
    
  C     5.445629  5.740277 -4.391725
  C     6.679099  5.284646 -3.775441
  C     5.786393  9.076264 -4.250295
  C     7.013358  8.847681 -3.538936
  N     7.656984  4.868622 -4.604460
  N     5.586521  5.825285 -5.710914
  N     4.973732  5.697249 -1.830872
  N     8.025112  8.629210 -4.381872
  N     5.871008  9.118574 -5.569402
  N     5.139988  9.276595 -1.787130
  S     7.126299  5.369125 -6.119227
  S     4.187155  6.014429 -3.226987
  S     6.522359  5.212103 -2.046517
  S     7.444271  8.711085 -5.901311
  S     4.396911  9.519452 -3.268812
  S     6.770970  8.903878 -1.802669
