16  
    
  C     5.353258  5.969869 -4.415788
  C     6.576248  5.468888 -3.755482
  C     5.482979  9.232871 -4.188779
  C     6.711533  8.916217 -3.568924
  N     7.594642  5.289073 -4.596041
  N     5.442506  6.224140 -5.724759
  N     4.694452  5.562367 -1.989901
  N     7.700583  8.886682 -4.474659
  N     5.467141  9.337978 -5.519410
  N     4.880416  9.260001 -1.693582
  S     7.020552  5.767287 -6.056806
  S     4.037836  6.214914 -3.344483
  S     6.339792  5.185509 -2.062544
  S     6.998230  9.021270 -5.996667
  S     4.184019  9.363988 -3.149462
  S     6.519639  8.729610 -1.825832
