16  
    
  C     5.587062  5.764637 -4.361825
  C     6.911665  5.424344 -3.787018
  C     5.563195  9.596203 -4.303460
  C     6.869499  9.273208 -3.800485
  N     7.864068  5.308254 -4.705814
  N     5.581736  5.834388 -5.694259
  N     5.199419  5.633000 -1.842241
  N     7.847969  9.178842 -4.687858
  N     5.571561  9.765487 -5.613355
  N     5.276474  9.274558 -1.776750
  S     7.132832  5.636550 -6.201122
  S     4.315553  5.960866 -3.231744
  S     6.823976  5.346264 -2.093127
  S     7.184717  9.533649 -6.097750
  S     4.351361  9.653220 -3.102617
  S     6.850066  8.838892 -2.116536
