16  
    
  C     5.575366  6.408409 -4.548312
  C     6.602679  5.575825 -3.855698
  C     5.788737  9.425588 -4.421599
  C     6.984026  9.010239 -3.731936
  N     7.664098  5.231198 -4.541409
  N     5.936970  6.613525 -5.792752
  N     4.585743  5.850040 -2.272240
  N     8.089751  9.029517 -4.511727
  N     5.860256  9.631750 -5.731971
  N     5.081820  9.221359 -1.947205
  S     7.489983  5.961010 -6.076364
  S     4.058683  6.616481 -3.654521
  S     6.053201  5.042043 -2.285901
  S     7.446404  9.447779 -6.102856
  S     4.405459  9.704753 -3.426817
  S     6.684651  8.743348 -2.042421
