16  
    
  C     5.487590  5.827854 -4.406765
  C     6.592813  5.188115 -3.662158
  C     5.702170  9.199097 -4.243745
  C     6.946402  8.864284 -3.583024
  N     7.675840  4.962033 -4.416592
  N     5.808631  6.183539 -5.641870
  N     4.740674  5.645105 -1.903780
  N     7.948634  8.772557 -4.450380
  N     5.781179  9.468736 -5.571787
  N     5.255545  8.862070 -1.743320
  S     7.282336  5.516814 -5.967456
  S     4.062344  5.952586 -3.398618
  S     6.265318  5.035840 -1.931768
  S     7.436984  9.174843 -5.909215
  S     4.377621  9.091762 -3.106302
  S     6.893881  8.645158 -1.863080
