16  
    
  C     5.301008  5.482547 -4.385304
  C     6.473051  4.898166 -3.761650
  C     5.560838  9.183323 -4.400107
  C     6.641049  8.449213 -3.812951
  N     7.535180  4.700414 -4.544820
  N     5.542556  5.791465 -5.665424
  N     4.725271  5.091150 -1.855300
  N     7.674535  8.277467 -4.615903
  N     5.791775  9.573497 -5.659276
  N     4.832724  8.671249 -1.967989
  S     7.052650  5.318189 -6.040929
  S     3.959454  5.759107 -3.227715
  S     6.298169  4.571781 -2.033802
  S     7.311248  9.047370 -6.022396
  S     4.287065  9.571263 -3.256817
  S     6.327683  7.901811 -2.225075
