16  
    
  C     5.877218  5.460461 -4.084428
  C     7.164101  5.120062 -3.528575
  C     5.439748  9.335060 -4.332423
  C     6.558575  8.748670 -3.639413
  N     8.114688  5.140841 -4.485025
  N     5.880775  5.794166 -5.377245
  N     5.462683  5.210780 -1.567165
  N     7.589624  8.332483 -4.393781
  N     5.679617  9.401629 -5.620527
  N     4.714857  9.106675 -1.879384
  S     7.394633  5.450222 -5.909226
  S     4.611083  5.587211 -2.909875
  S     7.013987  4.916970 -1.855962
  S     7.160894  8.771451 -5.931657
  S     4.183785  9.890894 -3.245109
  S     6.292541  8.539439 -1.927349
