16  
    
  C     5.515964  6.601909 -4.505930
  C     6.707388  6.074060 -3.887839
  C     5.610795 10.160396 -4.498634
  C     6.754652  9.507940 -3.789897
  N     7.688074  5.770137 -4.744608
  N     5.673773  6.784807 -5.847854
  N     4.981783  6.530211 -2.047206
  N     7.805408  9.235782 -4.586314
  N     5.815916 10.372861 -5.777547
  N     4.929154  9.888411 -2.075801
  S     7.185359  6.188739 -6.245803
  S     4.255436  7.071920 -3.461067
  S     6.505064  5.931750 -2.160463
  S     7.287028  9.733555 -6.134150
  S     4.222699 10.499968 -3.512886
  S     6.504819  9.593576 -2.024466
