16  
    
  C     5.412642  6.001055 -4.384786
  C     6.651072  5.603131 -3.748635
  C     5.774578  9.741375 -4.441516
  C     6.911219  9.110922 -3.795847
  N     7.628121  5.431111 -4.656859
  N     5.466944  6.165790 -5.725189
  N     4.958817  5.872653 -1.873766
  N     7.909300  8.852667 -4.674600
  N     5.847243  9.882717 -5.781611
  N     5.105061  9.559514 -1.931917
  S     7.046754  5.739217 -6.093525
  S     4.093530  6.323491 -3.266438
  S     6.509943  5.330371 -2.027305
  S     7.320537  9.298626 -6.200185
  S     4.394335 10.112484 -3.401776
  S     6.622569  8.830501 -2.123509
