16  
    
  C     5.515895  6.019491 -4.407205
  C     6.573707  5.397081 -3.688764
  C     5.751257  9.719556 -4.208768
  C     6.970933  9.355416 -3.583052
  N     7.557547  5.030141 -4.503517
  N     5.748445  6.202931 -5.691683
  N     4.910369  5.964848 -1.891057
  N     7.994934  9.006516 -4.367346
  N     5.889005  9.715494 -5.550676
  N     5.145947  9.344384 -1.721082
  S     7.195690  5.441237 -6.076546
  S     4.228561  6.431967 -3.356113
  S     6.469033  5.440070 -1.957098
  S     7.437559  9.232746 -5.903924
  S     4.385274  9.854758 -3.156906
  S     6.804863  9.051354 -1.888120
