16  
    
  C     5.388162  6.203152 -4.338896
  C     6.615130  5.730346 -3.721459
  C     5.442159  9.601918 -4.323772
  C     6.716627  9.267174 -3.718052
  N     7.579152  5.528624 -4.587806
  N     5.452668  6.213745 -5.660443
  N     4.888961  6.063329 -1.864862
  N     7.826462  9.217789 -4.485569
  N     5.647679  9.856584 -5.637045
  N     4.995041  9.257148 -1.803505
  S     7.077939  5.847501 -6.124351
  S     4.065487  6.540109 -3.269514
  S     6.481392  5.569219 -2.025952
  S     7.256147  9.502062 -6.000817
  S     4.099976  9.618546 -3.212603
  S     6.576328  8.978677 -1.954427
