16  
    
  C     5.275882  5.184165 -3.973416
  C     6.479178  4.913938 -3.254321
  C     5.373593  9.458459 -4.155681
  C     6.591818  9.062842 -3.478479
  N     7.617156  4.887912 -3.967884
  N     5.442727  5.445180 -5.276112
  N     4.682839  5.193078 -1.464451
  N     7.605783  8.803257 -4.283550
  N     5.410483  9.516673 -5.493928
  N     4.674156  9.107799 -1.727066
  S     7.088423  5.113046 -5.582231
  S     3.842594  5.228651 -2.876374
  S     6.327961  4.757962 -1.490467
  S     7.024172  9.060363 -5.869649
  S     4.009815  9.645467 -3.126723
  S     6.306263  8.796117 -1.784886
