16  
    
  C     5.513666  5.687499 -4.437826
  C     6.799658  5.483534 -3.850198
  C     5.463560  9.539637 -4.240297
  C     6.744661  9.134708 -3.662626
  N     7.887577  5.459842 -4.635706
  N     5.623123  5.880923 -5.754870
  N     5.133205  5.389505 -1.929816
  N     7.741404  8.977117 -4.505888
  N     5.568036  9.852574 -5.519213
  N     5.006123  9.367048 -1.728224
  S     7.271269  5.884261 -6.169401
  S     4.170528  5.529684 -3.319276
  S     6.761414  5.065945 -2.123350
  S     7.076798  9.517006 -6.008126
  S     4.124485  9.643613 -3.096104
  S     6.629349  9.053229 -1.934903
