16  
    
  C     5.569612  6.026510 -4.442617
  C     6.763856  5.635707 -3.763104
  C     5.602907  9.435726 -4.434242
  C     6.835831  9.196087 -3.772445
  N     7.846403  5.451380 -4.497845
  N     5.657478  6.131451 -5.768925
  N     4.919161  5.737673 -1.940327
  N     7.893378  9.052399 -4.569589
  N     5.684163  9.500108 -5.735601
  N     5.028506  9.432514 -1.925612
  S     7.226427  5.727099 -6.094330
  S     4.169855  6.162118 -3.356820
  S     6.556283  5.673667 -1.996062
  S     7.267519  9.403762 -6.116387
  S     4.283978  9.483246 -3.409031
  S     6.607589  9.016248 -1.993326
