16  
    
  C     5.451498  5.997444 -4.398085
  C     6.672008  5.563117 -3.815841
  C     5.513611  9.395927 -4.520950
  C     6.736057  9.183152 -3.849587
  N     7.684048  5.529884 -4.695099
  N     5.416276  6.145501 -5.724479
  N     5.006963  5.901815 -1.826334
  N     7.814018  9.042949 -4.611005
  N     5.665066  9.508446 -5.848547
  N     4.982296  9.104193 -1.985101
  S     7.052051  5.830599 -6.185415
  S     4.162699  6.243913 -3.195023
  S     6.570225  5.454275 -2.028400
  S     7.288637  9.274693 -6.139656
  S     4.221883  9.285241 -3.425325
  S     6.580848  8.818648 -2.138153
