16  
    
  C     5.527857  5.242557 -4.282318
  C     6.872591  4.990792 -3.747039
  C     5.640203  9.434510 -4.502174
  C     6.752268  8.958748 -3.731396
  N     7.898469  4.989330 -4.594311
  N     5.622276  5.291801 -5.605567
  N     5.257538  5.258456 -1.755522
  N     7.843833  8.758303 -4.490286
  N     5.791761  9.420884 -5.825727
  N     4.740685  9.131938 -2.083430
  S     7.175085  5.019640 -6.098913
  S     4.290271  5.424493 -3.054221
  S     6.916364  4.989225 -1.999931
  S     7.385249  9.054695 -6.044089
  S     4.176093  9.652528 -3.540550
  S     6.331789  8.681231 -2.079130
