16  
    
  C     5.521159  5.703278 -4.629890
  C     6.852384  5.564716 -4.045372
  C     5.473319  9.704505 -4.111408
  C     6.732356  9.286060 -3.569655
  N     7.878809  5.579401 -4.914953
  N     5.629669  5.799856 -5.948405
  N     5.114012  5.345398 -2.133382
  N     7.727031  9.361437 -4.467844
  N     5.488999  9.957006 -5.427247
  N     4.858516  9.197600 -1.719949
  S     7.207284  5.885549 -6.380616
  S     4.185615  5.493086 -3.511148
  S     6.784779  5.333355 -2.245725
  S     7.072610  9.754085 -5.905611
  S     4.056920  9.758532 -3.127000
  S     6.430043  8.819272 -1.896669
