16  
    
  C     5.645284  5.738325 -4.283241
  C     6.933079  5.232520 -3.756237
  C     5.787081  9.631526 -4.496208
  C     6.961156  9.147459 -3.844880
  N     7.892375  5.312446 -4.663455
  N     5.773815  6.160385 -5.535106
  N     5.332886  5.209581 -1.769337
  N     8.051012  9.242961 -4.674668
  N     5.874911 10.011988 -5.782494
  N     5.170786  9.242546 -1.933649
  S     7.280411  5.751659 -6.110077
  S     4.408307  5.648285 -3.079040
  S     6.877972  4.677716 -2.113555
  S     7.540952  9.873365 -6.075020
  S     4.527336  9.897886 -3.317702
  S     6.757690  8.749577 -2.170321
