16  
    
  C     5.548119  5.921191 -4.509223
  C     6.820409  5.659035 -3.833066
  C     5.417283  9.571077 -4.318271
  C     6.646540  9.079058 -3.764088
  N     7.836935  5.396762 -4.671505
  N     5.599248  5.976821 -5.840125
  N     4.994295  5.799336 -1.995575
  N     7.659396  8.821775 -4.609697
  N     5.449489  9.686825 -5.637917
  N     4.938394  9.451115 -1.839748
  S     7.196260  5.663487 -6.157085
  S     4.149768  5.912593 -3.380403
  S     6.620436  5.467367 -2.118843
  S     6.912815  9.257599 -6.123484
  S     4.135484  9.869789 -3.268841
  S     6.579081  9.259828 -2.034340
