16  
    
  C     5.618480  5.536467 -4.055942
  C     6.880404  5.225641 -3.411697
  C     5.832113  9.315652 -3.896002
  C     7.116329  9.053189 -3.294663
  N     7.875692  4.872930 -4.251226
  N     5.709570  5.541256 -5.383096
  N     5.130042  5.413165 -1.519094
  N     8.138493  8.871090 -4.164576
  N     5.883866  9.352311 -5.195319
  N     5.314072  9.121299 -1.396827
  S     7.234576  5.185384 -5.796135
  S     4.211024  5.662976 -2.874324
  S     6.782787  5.038489 -1.697322
  S     7.438503  8.972807 -5.667933
  S     4.512241  9.579582 -2.772424
  S     6.893431  8.869814 -1.562989
