16  
    
  C     5.640778  5.717891 -4.185689
  C     6.804097  5.247620 -3.481708
  C     5.548477  9.451240 -4.146657
  C     6.682392  8.854691 -3.469288
  N     7.925218  5.077636 -4.213455
  N     5.846848  5.713604 -5.511559
  N     4.885137  5.627159 -1.676711
  N     7.710635  8.659905 -4.290149
  N     5.677220  9.616695 -5.460480
  N     4.803297  8.944422 -1.705027
  S     7.382050  5.289958 -5.833533
  S     4.264700  6.052974 -3.199719
  S     6.453728  5.000023 -1.717165
  S     7.205765  9.098500 -5.805731
  S     4.152478  9.589213 -3.081921
  S     6.427039  8.569541 -1.767756
