16  
    
  C     5.110379  6.291076 -4.527235
  C     6.380036  6.002612 -3.910606
  C     5.358312  9.665342 -4.228061
  C     6.650525  9.288027 -3.664354
  N     7.444902  5.932714 -4.689743
  N     5.232446  6.526878 -5.814442
  N     4.592224  5.973951 -2.010526
  N     7.628149  9.298079 -4.531870
  N     5.439555  9.951413 -5.512220
  N     5.111173  9.252290 -1.698645
  S     6.801345  6.373372 -6.256217
  S     3.766857  6.365205 -3.415009
  S     6.251194  5.828742 -2.172018
  S     7.008728  9.693175 -5.992437
  S     4.157241  9.538348 -3.030119
  S     6.684903  8.953728 -1.931605
