16  
    
  C     5.505310  6.072977 -4.580279
  C     6.494718  5.358245 -3.837949
  C     5.780832  9.579810 -4.406019
  C     6.983170  9.123337 -3.716418
  N     7.695676  5.274097 -4.425025
  N     5.891800  6.517635 -5.775780
  N     4.629081  5.861281 -2.192236
  N     8.033648  8.915553 -4.460368
  N     5.972356  9.769962 -5.720832
  N     5.193004  9.222610 -1.858776
  S     7.475415  5.912500 -5.980924
  S     4.114942  6.464882 -3.617776
  S     6.068954  5.044340 -2.207252
  S     7.530660  9.307109 -6.046886
  S     4.381652  9.476180 -3.291422
  S     6.784844  8.787355 -2.044156
