16  
    
  C     5.612516  5.671973 -4.363638
  C     6.715117  5.134664 -3.698186
  C     5.430524  9.905000 -4.497161
  C     6.626570  9.276878 -3.994251
  N     7.760978  4.869375 -4.469388
  N     5.775790  5.906033 -5.663776
  N     4.963299  5.663579 -1.866074
  N     7.638962  9.068625 -4.811404
  N     5.564032 10.181817 -5.784795
  N     4.911016  9.308972 -2.049367
  S     7.319755  5.413719 -6.024469
  S     4.167419  5.811635 -3.353717
  S     6.438219  4.862130 -2.025767
  S     7.130243  9.584800 -6.301927
  S     4.093804 10.037920 -3.326379
  S     6.522971  8.994613 -2.266973
