16  
    
  C     5.821811  5.759418 -4.496518
  C     6.986106  5.409964 -3.752224
  C     5.479761  9.570137 -4.355051
  C     6.756467  9.297593 -3.742033
  N     8.026943  5.250388 -4.521289
  N     6.006450  5.810120 -5.815819
  N     5.235865  5.975356 -1.976118
  N     7.776990  9.266904 -4.596047
  N     5.572582  9.879175 -5.626737
  N     5.091028  9.069850 -1.797481
  S     7.620400  5.465790 -6.144243
  S     4.512170  6.198627 -3.497076
  S     6.763141  5.288277 -2.009915
  S     7.192781  9.564437 -6.052640
  S     4.219230  9.459176 -3.154705
  S     6.749762  8.856811 -2.046110
