16  
    
  C     5.510580  5.818011 -4.349812
  C     6.709410  5.275591 -3.828957
  C     5.692087  9.174621 -4.440096
  C     6.877641  8.768297 -3.689592
  N     7.676030  4.987794 -4.720345
  N     5.448722  5.852631 -5.661145
  N     5.081446  5.551333 -1.778485
  N     7.973684  8.620924 -4.429709
  N     5.877075  9.275098 -5.747062
  N     5.115782  9.140573 -1.908098
  S     7.034057  5.437939 -6.184469
  S     4.329641  6.171788 -3.130274
  S     6.561153  4.960853 -2.092530
  S     7.489716  8.854538 -6.038544
  S     4.326005  9.438861 -3.294315
  S     6.724496  8.726222 -2.010120
