16  
    
  C     5.745487  5.705183 -4.293232
  C     6.918772  5.164928 -3.689051
  C     5.485094  9.411554 -4.502610
  C     6.580650  8.822422 -3.771127
  N     7.925247  4.984768 -4.505038
  N     5.878663  5.892231 -5.593756
  N     5.216480  5.413530 -1.797899
  N     7.580452  8.455550 -4.557014
  N     5.702072  9.676835 -5.807154
  N     4.800623  9.190244 -1.981937
  S     7.410376  5.376055 -6.045849
  S     4.452871  6.025195 -3.183534
  S     6.811631  5.009742 -1.929186
  S     7.277107  9.083937 -6.112426
  S     4.126690  9.646175 -3.395717
  S     6.377421  8.610438 -2.061313
