16  
    
  C     5.425975  6.376957 -4.466439
  C     6.556381  5.870305 -3.840284
  C     5.750486  9.578133 -4.425356
  C     7.001477  9.213952 -3.773598
  N     7.565189  5.633928 -4.698765
  N     5.463591  6.447735 -5.813982
  N     4.906989  6.413946 -1.998161
  N     7.949083  8.970277 -4.689507
  N     5.691421  9.697711 -5.764759
  N     5.195538  9.518580 -1.868244
  S     7.022072  6.003726 -6.155362
  S     4.113853  6.662368 -3.423759
  S     6.419196  5.883988 -2.121551
  S     7.279579  9.297709 -6.199830
  S     4.443871  9.816980 -3.314303
  S     6.821700  9.120444 -2.027153
