16  
    
  C     5.511203  5.985680 -4.542220
  C     6.578582  5.286721 -3.801248
  C     5.771310  9.587584 -4.363695
  C     6.966670  9.100830 -3.720593
  N     7.733741  5.237909 -4.465509
  N     5.902260  6.386425 -5.740588
  N     4.630262  5.790600 -2.179519
  N     8.070637  8.893160 -4.461654
  N     5.945695  9.787230 -5.666414
  N     5.167828  9.178207 -1.847526
  S     7.465510  5.887122 -5.976699
  S     4.027255  6.439115 -3.616968
  S     6.128309  5.071981 -2.120386
  S     7.540382  9.300959 -6.014376
  S     4.390594  9.436276 -3.269081
  S     6.826652  8.816838 -2.043633
