16  
    
  C     5.434078  5.288098 -4.318693
  C     6.691981  5.054285 -3.656450
  C     5.682325  9.307505 -4.194540
  C     6.856014  8.729557 -3.579140
  N     7.769666  5.014834 -4.429954
  N     5.577806  5.471547 -5.645102
  N     4.936576  5.337833 -1.711340
  N     7.808194  8.425296 -4.441420
  N     5.822669  9.579155 -5.511076
  N     5.238044  9.185595 -1.636409
  S     7.175181  5.258766 -5.988005
  S     4.139404  5.427642 -3.116590
  S     6.546393  4.906138 -1.903553
  S     7.369686  8.975062 -5.911779
  S     4.356536  9.458212 -3.048107
  S     6.709359  8.479116 -1.838928
