16  
    
  C     5.757998  5.688177 -4.280415
  C     6.916642  5.161987 -3.684801
  C     5.481365  9.411229 -4.507798
  C     6.586108  8.835158 -3.779882
  N     7.927366  5.003481 -4.492631
  N     5.888832  5.878887 -5.580811
  N     5.215482  5.405468 -1.798328
  N     7.581302  8.473922 -4.575643
  N     5.690827  9.672171 -5.802714
  N     4.792269  9.195606 -1.983075
  S     7.416839  5.367532 -6.048034
  S     4.451628  6.019891 -3.177731
  S     6.804613  4.999651 -1.932089
  S     7.276601  9.078177 -6.121265
  S     4.126324  9.638720 -3.403873
  S     6.373097  8.603712 -2.064179
