16  
    
  C     5.512801  5.692608 -4.426870
  C     6.805311  5.483691 -3.835179
  C     5.472616  9.528635 -4.234529
  C     6.759878  9.130722 -3.672444
  N     7.886141  5.450195 -4.634860
  N     5.630233  5.877494 -5.747784
  N     5.128444  5.383326 -1.913905
  N     7.746213  8.975872 -4.523822
  N     5.580528  9.835356 -5.516855
  N     5.019576  9.379884 -1.730107
  S     7.273879  5.882491 -6.155910
  S     4.173160  5.539728 -3.311915
  S     6.755155  5.062214 -2.128216
  S     7.074060  9.508586 -6.013664
  S     4.132898  9.644971 -3.103910
  S     6.626839  9.053710 -1.935049
