16  
    
  C     5.637044  5.696675 -4.137369
  C     6.923044  5.337103 -3.544849
  C     5.552688  9.097808 -4.200657
  C     6.822089  8.945118 -3.578620
  N     7.872355  5.107798 -4.453372
  N     5.680287  5.746560 -5.470801
  N     5.243623  5.642119 -1.594411
  N     7.868818  8.995905 -4.419049
  N     5.669635  9.273468 -5.499217
  N     5.117944  8.861270 -1.636711
  S     7.147359  5.164272 -5.971345
  S     4.264375  5.703147 -2.970254
  S     6.900859  5.335059 -1.752157
  S     7.265056  9.235780 -5.878672
  S     4.224201  8.943569 -3.047160
  S     6.734246  8.959425 -1.875147
