16  
    
  C     5.666017  5.388606 -4.393869
  C     6.843267  5.043744 -3.740453
  C     5.470119  9.389961 -4.456273
  C     6.664075  8.955010 -3.789796
  N     7.965028  4.972151 -4.463468
  N     5.834707  5.537636 -5.720853
  N     5.064597  5.508305 -1.887339
  N     7.721214  8.786343 -4.581828
  N     5.599631  9.327084 -5.787800
  N     4.800363  9.174298 -1.941212
  S     7.407288  5.182908 -5.971028
  S     4.309145  5.529953 -3.322889
  S     6.697088  5.099513 -2.056595
  S     7.145497  9.060040 -6.148355
  S     4.150742  9.844371 -3.324867
  S     6.440733  8.848827 -2.044270
