16  
    
  C     5.593246  5.661877 -4.095970
  C     6.813424  5.203878 -3.520612
  C     5.531941  8.978276 -4.147554
  C     6.823823  8.960923 -3.531603
  N     7.723808  4.930077 -4.465738
  N     5.544543  5.743562 -5.447493
  N     5.205189  5.379193 -1.572218
  N     7.797305  8.988143 -4.444512
  N     5.564559  8.964260 -5.467788
  N     5.084777  9.096964 -1.649790
  S     7.101256  5.437134 -5.885700
  S     4.404176  5.908639 -2.927686
  S     6.816650  5.259716 -1.792339
  S     7.123801  8.954578 -5.905201
  S     4.224956  8.974186 -3.068017
  S     6.709374  8.764504 -1.745531
