16  
    
  C     5.518659  6.330310 -4.505326
  C     6.725305  5.861718 -3.788938
  C     5.678759  9.831622 -4.454932
  C     6.875737  9.463872 -3.738315
  N     7.659315  5.502332 -4.629236
  N     5.691461  6.505217 -5.801015
  N     4.882125  6.228160 -1.977947
  N     7.917418  9.172608 -4.514055
  N     5.750170  9.828770 -5.797847
  N     5.065642  9.722102 -1.931205
  S     7.240606  5.918115 -6.143177
  S     4.203809  6.722660 -3.431456
  S     6.499552  5.865360 -2.052258
  S     7.421432  9.545598 -6.066847
  S     4.245918  9.899872 -3.367752
  S     6.685476  9.351881 -2.027168
