16  
    
  C     5.671837  5.506472 -4.373494
  C     6.908632  5.233087 -3.723166
  C     5.708447  9.454876 -4.023930
  C     6.907389  8.855821 -3.516859
  N     7.919172  5.184390 -4.581982
  N     5.714768  5.638045 -5.667799
  N     5.108307  5.620697 -1.885425
  N     7.951987  8.805245 -4.370154
  N     5.848888  9.788816 -5.296440
  N     5.221637  8.874072 -1.557188
  S     7.276216  5.403350 -6.074395
  S     4.305466  5.900790 -3.341779
  S     6.704923  5.274235 -2.022409
  S     7.391099  9.494394 -5.759631
  S     4.457143  9.689489 -2.817836
  S     6.872267  8.534388 -1.796402
