16  
    
  C     5.449395  6.077525 -4.436529
  C     6.628823  5.564033 -3.820008
  C     5.481057  9.782032 -4.430011
  C     6.695528  9.291539 -3.857095
  N     7.589594  5.169550 -4.670567
  N     5.529225  6.287360 -5.773467
  N     4.823048  5.790627 -1.898708
  N     7.724338  9.269986 -4.661099
  N     5.555557 10.034690 -5.694618
  N     4.910914  9.559653 -1.911429
  S     6.980925  5.720375 -6.184176
  S     4.127469  6.375399 -3.325706
  S     6.392195  5.344751 -2.086550
  S     7.060311  9.645798 -6.190628
  S     4.108748  9.936973 -3.333151
  S     6.492556  9.038118 -2.140319
