16  
    
  C     5.527918  6.371786 -4.520800
  C     6.679714  5.867543 -3.859057
  C     5.629780  9.837209 -4.429391
  C     6.858698  9.485224 -3.756861
  N     7.714838  5.507447 -4.669597
  N     5.679985  6.511617 -5.860417
  N     4.881834  6.223943 -2.005529
  N     7.938022  9.178511 -4.493348
  N     5.816404  9.814946 -5.756246
  N     5.095847  9.757157 -1.860814
  S     7.206231  5.883396 -6.159543
  S     4.222446  6.723670 -3.409041
  S     6.476712  5.877710 -2.076585
  S     7.432780  9.523285 -6.049539
  S     4.267273  9.910892 -3.365820
  S     6.672060  9.352548 -2.092060
