16  
    
  C     5.480117  6.062260 -4.205526
  C     6.711076  5.409636 -3.653329
  C     5.369304  9.529030 -4.322802
  C     6.660267  9.193601 -3.787635
  N     7.706024  5.424976 -4.517925
  N     5.629196  6.410005 -5.474881
  N     4.937768  5.605409 -1.758677
  N     7.668905  9.045721 -4.697986
  N     5.428652  9.667977 -5.684803
  N     4.915859  9.156569 -1.826825
  S     7.166943  5.976053 -5.953174
  S     4.169619  6.086804 -3.118125
  S     6.509692  5.085512 -1.994433
  S     6.995552  9.458287 -6.126238
  S     4.051793  9.663506 -3.234015
  S     6.560409  8.875375 -2.059222
