16  
    
  C     5.404842  5.872659 -4.482753
  C     6.578360  5.456593 -3.769005
  C     5.364334  9.372671 -4.178902
  C     6.614713  8.968074 -3.623894
  N     7.663265  5.232094 -4.524301
  N     5.559275  6.079772 -5.781812
  N     4.708779  5.675182 -1.942662
  N     7.645248  8.814431 -4.421157
  N     5.477348  9.414763 -5.494701
  N     4.978913  9.141676 -1.630355
  S     7.168775  5.689602 -6.093006
  S     4.024150  6.249894 -3.356379
  S     6.322479  5.057867 -2.057697
  S     7.057660  9.087482 -5.946331
  S     4.103055  9.546083 -2.960458
  S     6.658829  8.751591 -1.921540
