16  
    
  C     5.518108  6.039911 -4.199827
  C     6.567325  5.261064 -3.653791
  C     5.692531  9.895480 -4.449686
  C     6.787130  9.165781 -3.829287
  N     7.529259  4.917316 -4.503736
  N     5.631975  6.283187 -5.502020
  N     4.983590  5.858601 -1.713351
  N     7.857919  8.948687 -4.617144
  N     5.969536 10.354324 -5.633538
  N     4.680947  9.109757 -2.279327
  S     7.045514  5.583937 -5.961570
  S     4.144222  6.202704 -3.113549
  S     6.434341  5.001660 -1.948745
  S     7.469286  9.679094 -6.089411
  S     4.170497 10.002553 -3.639808
  S     6.291856  8.689283 -2.197814
