16  
    
  C     5.107748  6.321631 -4.520128
  C     6.366255  5.929197 -3.916540
  C     5.379572  9.589137 -4.192450
  C     6.643219  9.265736 -3.623080
  N     7.420734  5.982045 -4.770608
  N     5.152090  6.535982 -5.855842
  N     4.593798  6.003972 -2.001406
  N     7.678576  9.315986 -4.466977
  N     5.398675  9.999247 -5.492343
  N     5.028316  9.230741 -1.676556
  S     6.780360  6.343399 -6.191107
  S     3.763362  6.374665 -3.427785
  S     6.219684  5.770685 -2.233479
  S     7.014171  9.653841 -5.956063
  S     4.125789  9.505413 -2.948415
  S     6.672241  8.973378 -1.968958
