16  
    
  C     5.815059  5.746926 -4.506029
  C     7.005609  5.414058 -3.724602
  C     5.533657  9.594748 -4.301782
  C     6.805776  9.307856 -3.735016
  N     8.060994  5.299644 -4.502030
  N     6.034625  5.850243 -5.798138
  N     5.220272  5.922260 -1.986789
  N     7.844179  9.263840 -4.573376
  N     5.637753  9.838375 -5.646928
  N     5.090105  9.114624 -1.803687
  S     7.633903  5.473214 -6.113959
  S     4.509334  6.218724 -3.496149
  S     6.772546  5.306378 -2.010137
  S     7.169165  9.538271 -6.053179
  S     4.214686  9.496116 -3.170397
  S     6.734555  8.848842 -2.101236
