16  
    
  C     5.087320  6.078712 -4.299900
  C     6.348843  5.767650 -3.573118
  C     5.632747  9.581159 -4.073196
  C     6.797869  9.002035 -3.443748
  N     7.401293  5.544164 -4.376059
  N     5.291619  6.107641 -5.611838
  N     4.466257  5.818971 -1.830816
  N     7.731889  8.724329 -4.386114
  N     5.603554  9.629880 -5.437827
  N     5.208869  9.520815 -1.438049
  S     6.890657  5.685212 -5.942394
  S     3.791977  6.467241 -3.248721
  S     6.103427  5.593140 -1.865879
  S     7.119946  9.004945 -5.864597
  S     4.372493  9.970668 -2.865468
  S     6.706120  8.809321 -1.702140
