16  
    
  C     5.407407  5.709150 -4.259786
  C     6.639481  5.351879 -3.624857
  C     5.411977  9.269503 -4.230288
  C     6.698321  8.937718 -3.659377
  N     7.627701  5.189256 -4.489230
  N     5.498960  5.713064 -5.578163
  N     4.907514  5.607269 -1.743910
  N     7.747438  8.886437 -4.492783
  N     5.491848  9.427592 -5.537782
  N     5.013934  9.381277 -1.773150
  S     7.092218  5.568157 -5.990987
  S     4.058291  5.991724 -3.172037
  S     6.503888  5.186859 -1.927574
  S     7.062712  9.163324 -5.982162
  S     4.118385  9.600332 -3.153157
  S     6.538444  8.674998 -1.927298
