16  
    
  C     5.587673  5.691359 -4.253086
  C     6.727240  5.078918 -3.602001
  C     5.459689  9.239287 -4.185844
  C     6.641322  8.824730 -3.512089
  N     7.764299  4.957038 -4.461784
  N     5.657395  5.795117 -5.573949
  N     4.985330  5.612035 -1.719330
  N     7.716901  8.758938 -4.296231
  N     5.610866  9.291925 -5.508473
  N     4.886095  9.081179 -1.660237
  S     7.191758  5.322210 -5.961262
  S     4.300433  6.126710 -3.201405
  S     6.394808  4.821605 -1.894022
  S     7.220014  9.114270 -5.808464
  S     4.127941  9.458709 -3.127154
  S     6.460188  8.566667 -1.789686
