16  
    
  C     5.592850  5.570055 -4.411264
  C     6.839758  5.353548 -3.724015
  C     5.691906  9.552916 -4.172495
  C     6.819589  8.927561 -3.545971
  N     7.914675  5.115062 -4.473848
  N     5.776311  5.463472 -5.712105
  N     5.040251  5.723189 -1.881562
  N     7.833200  8.781428 -4.412724
  N     5.859443  9.876735 -5.457906
  N     5.074559  9.195492 -1.645961
  S     7.343070  5.049034 -6.006720
  S     4.196649  5.808855 -3.339655
  S     6.663324  5.270288 -1.959871
  S     7.334927  9.397678 -5.877783
  S     4.298745  9.553293 -3.068470
  S     6.680002  8.650620 -1.826535
