16  
    
  C     5.514257  5.967206 -4.466092
  C     6.709193  5.462575 -3.786378
  C     5.666441  9.413966 -4.219189
  C     6.881039  9.069426 -3.550473
  N     7.733688  5.098210 -4.575680
  N     5.614222  6.012233 -5.797118
  N     4.864150  5.856711 -1.987921
  N     7.968653  9.107127 -4.339563
  N     5.805267  9.549627 -5.556266
  N     5.162453  9.507605 -1.706714
  S     7.155322  5.469080 -6.064663
  S     4.169545  6.401007 -3.378722
  S     6.481177  5.416314 -2.071661
  S     7.384337  9.309205 -5.923891
  S     4.364381  9.764490 -3.124087
  S     6.697881  8.948972 -1.789937
