16  
    
  C     5.543005  6.415251 -4.537874
  C     6.659258  5.855850 -3.865735
  C     5.632249  9.807698 -4.435715
  C     6.857608  9.478122 -3.776530
  N     7.729143  5.525639 -4.643496
  N     5.675877  6.491461 -5.869895
  N     4.881491  6.224277 -2.021226
  N     7.927291  9.219850 -4.489586
  N     5.863017  9.834011 -5.723950
  N     5.083319  9.778758 -1.863749
  S     7.166791  5.874364 -6.197763
  S     4.221344  6.727978 -3.410841
  S     6.476594  5.878895 -2.103720
  S     7.429425  9.498177 -6.044164
  S     4.287338  9.919637 -3.352560
  S     6.673255  9.342857 -2.100901
