16  
    
  C     5.585523  6.054512 -4.384635
  C     6.653916  5.420827 -3.741581
  C     5.627107  9.514475 -4.315829
  C     6.844052  9.117236 -3.649798
  N     7.805752  5.340919 -4.453446
  N     5.781824  6.290174 -5.700836
  N     4.823662  5.691942 -1.933532
  N     7.834864  8.939304 -4.467684
  N     5.686295  9.674420 -5.621521
  N     5.189443  9.404115 -1.692365
  S     7.310096  5.820031 -5.983364
  S     4.239141  6.456256 -3.292338
  S     6.385200  5.063519 -1.971074
  S     7.276964  9.330009 -6.026159
  S     4.440459  9.822484 -3.086009
  S     6.779157  8.837861 -1.915800
