16  
    
  C     5.375679  6.047038 -4.216719
  C     6.549018  5.473545 -3.665277
  C     5.522153  9.620445 -4.305939
  C     6.676264  9.077681 -3.569550
  N     7.532499  5.259479 -4.532852
  N     5.437450  6.181434 -5.535813
  N     4.885270  5.666182 -1.762605
  N     7.695287  8.924484 -4.365522
  N     5.723762  9.920711 -5.580496
  N     4.817689  9.390317 -1.810258
  S     6.997859  5.665918 -6.022223
  S     4.115415  6.276306 -3.108190
  S     6.461572  5.185336 -1.938906
  S     7.290284  9.415042 -5.835517
  S     4.169093  9.734237 -3.286613
  S     6.384702  8.740019 -1.892362
