16  
    
  C     5.323963  6.344255 -4.486405
  C     6.488508  5.821562 -3.735458
  C     5.460683 10.040356 -4.188469
  C     6.743360  9.762855 -3.616448
  N     7.570851  5.633824 -4.442696
  N     5.523563  6.460324 -5.781554
  N     4.486300  6.080272 -2.078975
  N     7.754614  9.774619 -4.514816
  N     5.534481 10.256802 -5.496705
  N     4.990499  9.696967 -1.664398
  S     7.081489  6.079909 -6.057211
  S     4.004919  6.762895 -3.488438
  S     6.091196  5.615713 -2.026547
  S     7.097459 10.209523 -5.959740
  S     4.116715  9.932083 -3.108283
  S     6.569494  9.419646 -1.904847
