16  
    
  C     5.598883  6.084920 -4.486179
  C     6.793448  5.779310 -3.743135
  C     5.514802  9.641240 -4.493875
  C     6.682666  9.178304 -3.750951
  N     7.849585  5.560236 -4.550276
  N     5.780312  6.154801 -5.798198
  N     4.907468  5.974094 -1.933028
  N     7.799805  9.079011 -4.446143
  N     5.719473  9.838154 -5.815874
  N     4.898539  9.471304 -1.971971
  S     7.382878  5.806143 -6.097965
  S     4.299368  6.372058 -3.387153
  S     6.520458  5.574270 -2.066211
  S     7.380292  9.357629 -5.986023
  S     4.191703  9.899652 -3.343854
  S     6.523710  8.969092 -2.079616
