16  
    
  C     5.671746  6.593441 -4.534787
  C     6.845641  6.016917 -3.916645
  C     5.510168 10.049997 -4.590420
  C     6.710495  9.592671 -3.948827
  N     7.888273  5.847796 -4.722638
  N     5.731253  6.691307 -5.826626
  N     5.043387  6.380922 -2.037827
  N     7.726924  9.340992 -4.796943
  N     5.665851 10.160991 -5.918072
  N     4.995844 10.153699 -2.138517
  S     7.238173  6.208250 -6.294571
  S     4.352022  6.936075 -3.457555
  S     6.571144  5.688574 -2.189743
  S     7.174741  9.589378 -6.319344
  S     4.227968 10.461898 -3.526826
  S     6.560792  9.407220 -2.239628
