16  
    
  C     5.587095  5.508190 -4.072611
  C     6.848745  5.156349 -3.456632
  C     5.836776  9.298066 -3.920431
  C     7.077406  8.959411 -3.295241
  N     7.865324  4.961740 -4.294597
  N     5.690458  5.532972 -5.407937
  N     5.090249  5.345298 -1.507862
  N     8.070700  8.833854 -4.161411
  N     5.856316  9.287545 -5.272772
  N     5.246166  9.138710 -1.426541
  S     7.247561  5.137484 -5.834671
  S     4.245678  5.619198 -2.898950
  S     6.730497  5.068784 -1.691026
  S     7.381691  9.020198 -5.702050
  S     4.534757  9.599089 -2.845307
  S     6.920247  8.834848 -1.555302
