16  
    
  C     5.631086  6.587366 -4.514807
  C     6.877248  6.087690 -3.924882
  C     5.508507 10.135468 -4.665567
  C     6.708902  9.599806 -3.964456
  N     7.880256  5.890126 -4.805040
  N     5.708907  6.699950 -5.848893
  N     5.043066  6.425021 -2.048126
  N     7.726118  9.309069 -4.732460
  N     5.712932 10.170903 -5.966626
  N     5.012866 10.141285 -2.119759
  S     7.264366  6.198066 -6.273387
  S     4.324744  7.008977 -3.436033
  S     6.562558  5.713820 -2.200430
  S     7.205992  9.579238 -6.274340
  S     4.245243 10.504587 -3.489784
  S     6.547811  9.410202 -2.198983
