16  
    
  C     5.573088  5.703995 -4.236708
  C     6.776141  5.160607 -3.627298
  C     5.443866  9.144696 -4.189706
  C     6.649191  8.796711 -3.480715
  N     7.776154  4.829809 -4.433170
  N     5.705331  5.786069 -5.548042
  N     4.965555  5.667797 -1.749070
  N     7.709424  8.705053 -4.253039
  N     5.582571  9.307032 -5.499227
  N     4.833641  9.040831 -1.697861
  S     7.224270  5.327667 -6.003547
  S     4.280695  6.146238 -3.192138
  S     6.447241  4.818682 -1.909159
  S     7.190257  9.060995 -5.838239
  S     4.133226  9.479940 -3.101925
  S     6.427773  8.569573 -1.817471
