16  
    
  C     5.402650  5.508043 -4.331739
  C     6.626174  5.045330 -3.701055
  C     5.656011  9.279996 -4.324896
  C     6.759599  8.580640 -3.721323
  N     7.606347  4.761491 -4.567808
  N     5.527355  5.759935 -5.627211
  N     4.800284  5.187027 -1.863967
  N     7.746187  8.287685 -4.591306
  N     5.886302  9.647512 -5.573605
  N     4.868934  8.622138 -1.988419
  S     7.030896  5.308425 -6.030564
  S     4.000402  5.481306 -3.308359
  S     6.368156  4.691573 -2.024929
  S     7.281436  8.952000 -6.060918
  S     4.324381  9.572756 -3.183072
  S     6.473700  8.171203 -2.066815
