16  
    
  C     5.723468  5.317584 -4.262356
  C     6.949393  4.932587 -3.614136
  C     5.687186  9.482767 -4.431927
  C     6.823904  8.927701 -3.740203
  N     8.024420  4.754920 -4.409509
  N     5.916582  5.595621 -5.542211
  N     5.189864  5.329889 -1.735650
  N     7.859973  8.702291 -4.535067
  N     5.893670  9.800623 -5.704832
  N     4.861596  9.117861 -1.993452
  S     7.482889  5.054177 -5.948737
  S     4.351153  5.567389 -3.211393
  S     6.767449  4.893549 -1.829559
  S     7.468534  9.398424 -6.034997
  S     4.280188  9.664993 -3.460414
  S     6.463224  8.711715 -2.053877
