16  
    
  C     5.702995  5.804385 -4.300277
  C     6.938297  5.197144 -3.810069
  C     5.717934  9.684023 -4.456489
  C     6.949107  9.253416 -3.865119
  N     7.928842  5.105818 -4.692378
  N     5.700312  6.147973 -5.587486
  N     5.321926  5.269989 -1.778967
  N     8.102828  9.294888 -4.609242
  N     5.954061 10.023447 -5.713765
  N     5.113549  9.043327 -2.095730
  S     7.256019  5.774379 -6.116276
  S     4.366348  5.701536 -3.066566
  S     6.863907  4.717577 -2.158030
  S     7.535840  9.892707 -6.109234
  S     4.435081  9.900993 -3.329537
  S     6.732391  8.776728 -2.202771
