16  
    
  C     5.746668  5.466854 -4.224762
  C     6.970025  5.028032 -3.537275
  C     5.412105  9.365198 -4.653944
  C     6.607178  8.943057 -3.936399
  N     8.059315  4.928908 -4.319313
  N     5.898973  5.659353 -5.542208
  N     5.101894  5.240500 -1.754727
  N     7.633115  8.763421 -4.735363
  N     5.534630  9.356240 -6.009449
  N     4.816964  9.124120 -2.073872
  S     7.482623  5.298384 -5.849635
  S     4.371857  5.698966 -3.172403
  S     6.702270  4.711128 -1.822611
  S     7.150122  9.044873 -6.268296
  S     4.113640  9.718431 -3.527505
  S     6.404803  8.641503 -2.222937
