16  
    
  C     5.719041  5.846570 -4.386959
  C     7.006705  5.440808 -3.896892
  C     5.798969  9.401519 -4.002622
  C     7.038506  8.857003 -3.523845
  N     7.981305  5.430781 -4.815512
  N     5.789542  6.229207 -5.667460
  N     5.263086  5.190202 -2.029329
  N     7.877088  8.654985 -4.503630
  N     5.771778  9.751150 -5.299101
  N     5.465168  8.857203 -1.503478
  S     7.256473  5.825861 -6.228983
  S     4.362119  5.794642 -3.307055
  S     6.875426  4.866593 -2.183859
  S     7.203528  9.303971 -5.886623
  S     4.580709  9.431993 -2.757175
  S     7.015041  8.361446 -1.837162
