16  
    
  C     5.369951  6.026393 -4.405454
  C     6.614287  5.624210 -3.770903
  C     5.668117  9.686537 -4.398050
  C     6.827963  9.097920 -3.767195
  N     7.679794  5.474712 -4.492819
  N     5.512415  6.128442 -5.715574
  N     4.874968  5.940165 -1.872699
  N     7.887165  8.872763 -4.545152
  N     5.900976  9.915326 -5.678050
  N     5.084157  9.471258 -1.929600
  S     7.084510  5.756415 -6.116760
  S     4.090985  6.364984 -3.246770
  S     6.432220  5.343313 -2.035114
  S     7.398775  9.268438 -6.095343
  S     4.348382 10.025880 -3.345415
  S     6.612561  8.853524 -2.098920
