16  
    
  C     5.605557  6.099607 -4.411517
  C     6.762724  5.569242 -3.692638
  C     5.366393  9.665022 -4.284958
  C     6.581512  9.344774 -3.582600
  N     7.856443  5.388978 -4.454937
  N     5.815038  6.327026 -5.724516
  N     4.839764  5.860660 -1.913474
  N     7.562088  9.248434 -4.402752
  N     5.453611  9.803956 -5.606675
  N     4.944682  9.327421 -1.646496
  S     7.371425  5.893616 -5.963785
  S     4.219496  6.372390 -3.384231
  S     6.469281  5.378083 -1.966209
  S     7.055835  9.549788 -5.965865
  S     4.038347  9.788508 -3.071019
  S     6.574844  9.059417 -1.898281
