16  
    
  C     5.442148  6.384789 -4.584671
  C     6.721520  5.979470 -3.928077
  C     5.727402  9.793087 -4.387370
  C     6.929959  9.441644 -3.713694
  N     7.637113  5.636622 -4.816812
  N     5.483863  6.416609 -5.914381
  N     4.899794  6.277035 -2.115449
  N     7.981445  9.261653 -4.535056
  N     5.820623  9.833523 -5.728770
  N     5.118095  9.728204 -1.891094
  S     7.006309  5.901983 -6.268710
  S     4.131973  6.786961 -3.515419
  S     6.505375  5.835218 -2.174634
  S     7.397033  9.470375 -6.113530
  S     4.348287  9.969223 -3.402505
  S     6.715665  9.248811 -1.908116
