16  
    
  C     5.581713  5.309287 -4.162162
  C     6.804088  5.034746 -3.506556
  C     5.380286  9.313968 -4.373762
  C     6.570464  8.762916 -3.774462
  N     7.824724  5.004806 -4.348957
  N     5.579877  5.379754 -5.483783
  N     4.956019  5.201278 -1.673301
  N     7.523810  8.484283 -4.636379
  N     5.420346  9.345051 -5.724400
  N     4.904056  9.047639 -1.842746
  S     7.200265  5.120544 -5.870669
  S     4.247987  5.363909 -3.109598
  S     6.612296  4.965656 -1.722038
  S     6.931205  8.792794 -6.173618
  S     4.149503  9.685529 -3.180577
  S     6.478225  8.513373 -2.069424
