16  
    
  C     5.524366  6.365360 -4.519195
  C     6.687821  5.867890 -3.854320
  C     5.634329  9.839709 -4.429420
  C     6.859053  9.484774 -3.752173
  N     7.708078  5.506100 -4.670518
  N     5.680847  6.513339 -5.856108
  N     4.881918  6.224014 -2.001979
  N     7.938639  9.174067 -4.494927
  N     5.806908  9.814080 -5.763739
  N     5.095702  9.753310 -1.864951
  S     7.212064  5.885867 -6.154891
  S     4.221404  6.723423 -3.410418
  S     6.477994  5.876878 -2.072975
  S     7.432719  9.526820 -6.051006
  S     4.263698  9.909636 -3.366983
  S     6.672828  9.353323 -2.087532
