16  
    
  C     5.556079  6.072622 -4.374172
  C     6.669802  5.403145 -3.709341
  C     5.833462  9.821320 -4.249302
  C     7.024970  9.372225 -3.563072
  N     7.616253  4.930990 -4.515555
  N     5.742994  6.226790 -5.702809
  N     4.909728  6.065365 -1.863962
  N     8.000883  8.960923 -4.358823
  N     5.954500  9.772936 -5.552159
  N     5.185192  9.293186 -1.763027
  S     7.198393  5.469198 -6.022579
  S     4.207403  6.450966 -3.286247
  S     6.455697  5.420638 -1.934695
  S     7.422598  9.231573 -5.914699
  S     4.414975  9.876519 -3.136619
  S     6.813908  9.096530 -1.914617
