16  
    
  C     5.530146  6.127161 -4.435766
  C     6.733110  5.661862 -3.833429
  C     5.395173  9.969233 -4.708405
  C     6.632884  9.700297 -4.012522
  N     7.745701  5.586814 -4.739085
  N     5.565214  6.335136 -5.750934
  N     4.928370  5.762154 -1.979023
  N     7.630551  9.600182 -4.850235
  N     5.410688 10.050587 -6.049592
  N     4.681115  9.522132 -2.205064
  S     7.140901  6.006240 -6.230817
  S     4.114871  6.160223 -3.369682
  S     6.541600  5.256376 -2.149462
  S     7.021845  9.865955 -6.401291
  S     4.006836  9.988923 -3.655018
  S     6.429719  9.411018 -2.259026
