16  
    
  C     5.229481  6.258301 -4.503288
  C     6.408279  5.699796 -3.892771
  C     5.426995  9.665148 -4.066138
  C     6.722407  9.401881 -3.551119
  N     7.457392  5.518661 -4.681878
  N     5.402028  6.605179 -5.781557
  N     4.579267  6.048934 -2.073574
  N     7.764843  9.617830 -4.390175
  N     5.469340 10.055721 -5.352081
  N     5.021968  9.118024 -1.614182
  S     6.950030  6.144403 -6.164479
  S     3.831076  6.394620 -3.543330
  S     6.151275  5.483025 -2.128410
  S     7.024893  9.971413 -5.834605
  S     4.138068  9.609236 -2.948338
  S     6.697378  8.998724 -1.781759
