16  
    
  C     5.524473  5.901140 -4.387979
  C     6.749392  5.318845 -3.876604
  C     5.474452  9.880494 -4.601077
  C     6.657521  9.218843 -4.061642
  N     7.750281  5.195067 -4.767085
  N     5.528555  6.051855 -5.672958
  N     5.141982  5.570698 -1.844036
  N     7.531683  8.858878 -4.976246
  N     5.537319 10.077035 -5.902733
  N     5.092953  9.822896 -2.078096
  S     7.014544  5.675932 -6.294130
  S     4.294042  6.120077 -3.184765
  S     6.716449  5.009451 -2.159962
  S     6.900706  9.313083 -6.486005
  S     4.261011 10.355480 -3.485179
  S     6.505406  9.063859 -2.303458
