16  
    
  C     5.296307  6.125135 -4.376597
  C     6.597224  5.758281 -3.772057
  C     5.502494  9.665646 -4.385050
  C     6.679324  9.190030 -3.728699
  N     7.618368  5.520537 -4.602036
  N     5.368662  6.230050 -5.702297
  N     4.809016  5.997856 -1.849720
  N     7.743579  9.051908 -4.524717
  N     5.667624  9.918590 -5.697934
  N     4.828984  9.399105 -1.944201
  S     6.968312  5.937460 -6.099013
  S     4.016329  6.291311 -3.246998
  S     6.432399  5.690989 -2.045377
  S     7.227320  9.449763 -6.045543
  S     4.071730  9.928413 -3.328841
  S     6.417591  9.124114 -2.020268
