16  
    
  C     5.599607  5.603496 -4.217420
  C     6.897383  5.414024 -3.545357
  C     5.559917  9.161530 -4.233791
  C     6.840954  9.018744 -3.559919
  N     7.846421  5.103149 -4.386248
  N     5.598593  5.514692 -5.532168
  N     5.194501  5.756767 -1.606825
  N     7.929071  8.989622 -4.340050
  N     5.631210  9.442310 -5.534365
  N     5.112409  8.798676 -1.710744
  S     7.214820  5.215615 -5.913245
  S     4.381555  5.682236 -3.030415
  S     6.811761  5.364837 -1.802747
  S     7.294057  9.336231 -5.901533
  S     4.258831  8.969659 -3.107449
  S     6.796301  8.979681 -1.825744
