16  
    
  C     5.612255  5.866777 -4.490508
  C     6.880195  5.481437 -3.826005
  C     5.073681  9.617175 -4.426655
  C     6.256261  9.150834 -3.742878
  N     7.871926  5.266341 -4.709233
  N     5.667337  5.911988 -5.837310
  N     5.028435  5.726063 -1.934536
  N     7.325757  8.737991 -4.438105
  N     5.306862  9.606760 -5.721236
  N     4.596794  9.908803 -1.950632
  S     7.235299  5.574031 -6.199397
  S     4.213239  5.838465 -3.406349
  S     6.672409  5.319002 -2.109432
  S     6.786961  9.027076 -6.010288
  S     3.777406 10.097052 -3.362270
  S     6.116843  9.187727 -2.046050
