16  
    
  C     5.620612  6.412433 -4.528864
  C     6.797002  5.822736 -3.899226
  C     5.482281  9.954319 -4.688677
  C     6.697957  9.551361 -4.035841
  N     7.797304  5.577240 -4.766791
  N     5.753483  6.688109 -5.819359
  N     5.027802  6.087296 -2.015819
  N     7.639180  9.328279 -4.893307
  N     5.529703 10.055189 -6.008557
  N     4.919100  9.920787 -2.173579
  S     7.289643  6.171242 -6.222405
  S     4.265290  6.682656 -3.400649
  S     6.630381  5.629739 -2.179204
  S     7.111368  9.741107 -6.399245
  S     4.169848 10.223501 -3.543876
  S     6.559152  9.528669 -2.265107
