16  
    
  C     5.485617  5.791942 -4.365994
  C     6.718260  5.334290 -3.801238
  C     5.390062  9.731678 -4.608941
  C     6.635561  9.353478 -3.950689
  N     7.687357  5.182404 -4.708687
  N     5.559469  5.964363 -5.685074
  N     5.050522  5.690144 -1.895602
  N     7.639379  8.946105 -4.732111
  N     5.516575  9.759759 -5.903142
  N     4.842720  9.365659 -2.123258
  S     7.034412  5.479930 -6.187252
  S     4.164318  6.039315 -3.240713
  S     6.660289  5.313023 -2.105875
  S     7.098149  9.208405 -6.234159
  S     4.035380  9.727813 -3.539510
  S     6.458862  9.164179 -2.216001
