16  
    
  C     5.758664  5.909118 -3.868407
  C     6.889233  5.061740 -3.458377
  C     5.623212  9.649963 -4.044521
  C     6.796670  8.972721 -3.554150
  N     7.798454  4.975739 -4.412806
  N     5.822854  6.399898 -5.106370
  N     5.116987  4.939782 -1.606506
  N     7.817855  8.950080 -4.395914
  N     5.692249 10.077293 -5.289560
  N     5.134416  8.897623 -1.660579
  S     7.335248  5.931962 -5.665872
  S     4.393941  5.818594 -2.794801
  S     6.771704  4.520839 -1.775409
  S     7.206775  9.588838 -5.840865
  S     4.348925  9.646218 -2.896664
  S     6.750390  8.507972 -1.881297
