16  
    
  C     5.568635  5.904302 -4.517664
  C     6.766769  5.354150 -3.810367
  C     5.581956  9.743460 -4.201346
  C     6.833795  9.255664 -3.683602
  N     7.844256  5.257204 -4.581158
  N     5.731406  6.002650 -5.822637
  N     4.883877  5.623448 -2.042774
  N     7.768366  9.056862 -4.599416
  N     5.595304  9.945772 -5.501493
  N     5.004983  9.244267 -1.806369
  S     7.308785  5.638407 -6.207045
  S     4.211878  6.213252 -3.421057
  S     6.494195  5.086523 -2.090055
  S     7.145655  9.669453 -6.039315
  S     4.253631  9.892305 -3.055349
  S     6.643339  8.756305 -2.012515
