16  
    
  C     5.645753  5.789277 -4.210280
  C     6.927399  5.433503 -3.569497
  C     5.593353  9.451592 -4.331028
  C     6.851077  9.003926 -3.755474
  N     7.916180  5.223860 -4.445438
  N     5.718208  5.936811 -5.528492
  N     5.061811  5.510513 -1.723927
  N     7.885471  8.913233 -4.563328
  N     5.708852  9.640894 -5.590095
  N     5.020548  9.010712 -1.870703
  S     7.253617  5.558919 -5.968836
  S     4.230038  5.750729 -3.159494
  S     6.737160  5.136991 -1.862901
  S     7.246046  9.370441 -6.088561
  S     4.259251  9.620758 -3.248092
  S     6.684913  8.777909 -2.041872
