16  
    
  C     5.198707  6.144516 -4.252845
  C     6.350085  5.570211 -3.622595
  C     5.517420  9.778631 -4.212614
  C     6.691173  9.152605 -3.676846
  N     7.331394  5.333972 -4.474756
  N     5.328820  6.395944 -5.524690
  N     4.565752  5.934337 -1.857039
  N     7.641940  8.848308 -4.554508
  N     5.551873  9.949734 -5.519092
  N     5.076875  9.764433 -1.677916
  S     6.883082  5.842568 -5.956995
  S     3.883158  6.587563 -3.252090
  S     6.157277  5.383929 -1.913455
  S     7.052577  9.441770 -5.993860
  S     4.258352  9.984118 -3.155453
  S     6.512284  8.980604 -1.843005
