16  
    
  C     5.537618  5.965879 -4.482645
  C     6.608618  5.446841 -3.708761
  C     5.803452  9.327495 -4.289914
  C     7.048604  8.983759 -3.620956
  N     7.717167  5.205850 -4.348837
  N     5.823453  6.135871 -5.760235
  N     4.675097  5.588969 -2.062193
  N     8.103912  9.018267 -4.463874
  N     5.843957  9.587285 -5.596594
  N     5.136245  8.996670 -1.816644
  S     7.395662  5.590695 -5.919451
  S     4.104117  6.046380 -3.526361
  S     6.276258  5.283892 -1.974335
  S     7.461176  9.462657 -5.992693
  S     4.436000  9.430904 -3.245621
  S     6.838701  8.819830 -1.868737
