16  
    
  C     5.405502  5.873366 -4.477521
  C     6.572596  5.458606 -3.770134
  C     5.370500  9.373357 -4.180374
  C     6.618306  8.975736 -3.617935
  N     7.663128  5.235984 -4.520582
  N     5.560106  6.079428 -5.781873
  N     4.705675  5.671963 -1.939284
  N     7.647844  8.809330 -4.419327
  N     5.473965  9.403268 -5.496958
  N     4.985516  9.140711 -1.630480
  S     7.165594  5.692826 -6.098984
  S     4.024139  6.249842 -3.351619
  S     6.319076  5.060794 -2.059621
  S     7.057142  9.086559 -5.947603
  S     4.097643  9.543019 -2.965870
  S     6.655070  8.750056 -1.919219
