16  
    
  C     5.462046  5.795186 -4.419136
  C     6.673200  5.309112 -3.717003
  C     5.723365  9.202070 -4.267704
  C     6.926811  8.922764 -3.536154
  N     7.716225  5.009317 -4.516139
  N     5.633074  5.869268 -5.724407
  N     4.833627  5.587852 -1.932389
  N     7.973821  8.574199 -4.278000
  N     5.848140  9.042164 -5.575518
  N     5.204065  9.304023 -1.692177
  S     7.108452  5.215189 -6.072278
  S     4.096676  5.974525 -3.365417
  S     6.539576  5.290800 -1.950852
  S     7.424663  8.673540 -5.882099
  S     4.354265  9.412763 -3.095522
  S     6.810645  9.018807 -1.829780
