16  
    
  C     5.332470  5.699644 -4.281574
  C     6.593315  5.303147 -3.653039
  C     5.444179  9.305315 -4.211775
  C     6.709244  8.948787 -3.603204
  N     7.634270  5.200654 -4.481018
  N     5.397638  5.772911 -5.606311
  N     4.849452  5.629923 -1.790395
  N     7.692999  8.783129 -4.496366
  N     5.454493  9.450156 -5.508826
  N     5.005345  9.367069 -1.732760
  S     7.022430  5.549113 -6.004492
  S     4.028733  6.021643 -3.166905
  S     6.460547  5.194258 -1.923301
  S     7.010996  9.114072 -5.958575
  S     4.123010  9.595270 -3.119897
  S     6.494760  8.730198 -1.898426
