16  
    
  C     5.527613  6.170728 -4.671636
  C     6.656582  5.613356 -4.006456
  C     5.667947  9.781797 -4.420823
  C     6.837702  9.232110 -3.771814
  N     7.763497  5.346683 -4.740394
  N     5.841103  6.367564 -5.971061
  N     4.740455  5.728277 -2.288631
  N     7.851347  9.043904 -4.619045
  N     5.870251 10.123811 -5.665053
  N     4.967647  9.252456 -2.012424
  S     7.411450  5.979735 -6.202991
  S     4.035986  6.371044 -3.727318
  S     6.327717  5.279433 -2.273878
  S     7.412902  9.564500 -6.069116
  S     4.215745  9.746022 -3.387063
  S     6.550988  8.834633 -2.136938
