16  
    
  C     5.289989  6.139781 -4.375115
  C     6.600999  5.742053 -3.759375
  C     5.491694  9.657400 -4.380199
  C     6.677967  9.190380 -3.732222
  N     7.598742  5.521962 -4.600733
  N     5.360678  6.232336 -5.690261
  N     4.808291  5.998978 -1.849701
  N     7.756917  9.040390 -4.535838
  N     5.667784  9.925676 -5.697717
  N     4.829659  9.412569 -1.954184
  S     6.973163  5.937377 -6.100544
  S     4.008286  6.300168 -3.246032
  S     6.430566  5.692092 -2.050918
  S     7.226494  9.454614 -6.037779
  S     4.079556  9.919393 -3.339877
  S     6.411443  9.129256 -2.024951
