16  
    
  C     5.575054  5.277415 -3.899999
  C     6.794019  5.015011 -3.173760
  C     5.351265  9.348480 -4.208298
  C     6.459592  8.727693 -3.514557
  N     7.823307  4.846873 -4.003489
  N     5.635257  5.389801 -5.226573
  N     4.961957  5.079641 -1.433554
  N     7.548117  8.444572 -4.259300
  N     5.667577  9.666202 -5.468417
  N     4.678976  9.173975 -1.680476
  S     7.258915  5.221997 -5.556294
  S     4.154772  5.335663 -2.865424
  S     6.647889  4.874778 -1.408764
  S     7.181533  9.141587 -5.774587
  S     4.025262  9.692980 -3.123944
  S     6.278640  8.680651 -1.748098
