16  
    
  C     5.678205  5.685900 -4.117984
  C     6.844212  5.233915 -3.374636
  C     5.502995  9.493586 -4.067545
  C     6.667098  8.956520 -3.418463
  N     7.890700  5.005827 -4.171742
  N     5.867995  5.922898 -5.421787
  N     4.892195  5.506830 -1.730219
  N     7.665115  8.588535 -4.194543
  N     5.710548  9.692138 -5.354016
  N     4.822556  8.993756 -1.612420
  S     7.414052  5.315535 -5.699850
  S     4.284339  5.989176 -3.166487
  S     6.481002  5.085136 -1.738412
  S     7.247440  9.094170 -5.717587
  S     4.087588  9.597446 -3.029525
  S     6.435158  8.573895 -1.751113
