16  
    
  C     5.536730  5.744234 -4.420821
  C     6.646757  5.171919 -3.750418
  C     5.710633  9.416336 -4.285210
  C     6.883701  8.984785 -3.559801
  N     7.736549  5.021191 -4.509676
  N     5.725064  5.946020 -5.726090
  N     4.788261  5.461209 -1.997487
  N     7.900189  8.743952 -4.365948
  N     5.835060  9.562841 -5.593417
  N     5.105065  9.214691 -1.695661
  S     7.286346  5.399891 -6.069673
  S     4.250561  6.233605 -3.351311
  S     6.383813  4.969552 -1.996545
  S     7.398593  9.126569 -5.979090
  S     4.376164  9.610336 -3.171765
  S     6.707694  8.729331 -1.827797
