16  
    
  C     5.535797  5.704350 -4.415243
  C     6.842176  5.462651 -3.784564
  C     5.503491  9.505018 -4.217633
  C     6.775038  9.116182 -3.681585
  N     7.862680  5.438296 -4.632116
  N     5.649753  5.882600 -5.730838
  N     5.102165  5.363992 -1.874360
  N     7.761387  8.983863 -4.589461
  N     5.589326  9.784936 -5.514176
  N     5.060179  9.416109 -1.733988
  S     7.273010  5.868110 -6.106744
  S     4.192954  5.572409 -3.286284
  S     6.732135  5.054398 -2.143368
  S     7.079842  9.478376 -6.029205
  S     4.164740  9.651867 -3.132613
  S     6.625357  9.050775 -1.934348
