16  
    
  C     5.592268  5.301971 -4.229854
  C     6.855733  5.214874 -3.557382
  C     5.679248  9.342984 -4.184218
  C     6.986481  9.216193 -3.556350
  N     7.910609  5.276808 -4.367327
  N     5.688723  5.413626 -5.545932
  N     5.053683  5.796855 -1.763394
  N     8.054912  9.231201 -4.360727
  N     5.710041  9.523285 -5.513919
  N     5.095633  8.872265 -1.746308
  S     7.314925  5.332800 -5.940458
  S     4.162749  5.795251 -3.209151
  S     6.727675  5.441863 -1.810825
  S     7.325353  9.398406 -5.933337
  S     4.331471  9.104434 -3.150159
  S     6.770912  8.832807 -1.853261
