16  
    
  C     5.425653  5.976914 -4.439804
  C     6.678663  5.549130 -3.847430
  C     5.415125  9.622431 -4.587831
  C     6.553711  9.085262 -3.878775
  N     7.624074  5.153753 -4.711698
  N     5.398894  5.997093 -5.787530
  N     5.003849  5.714186 -1.849053
  N     7.530977  8.776428 -4.710953
  N     5.563766  9.780870 -5.889218
  N     4.785542  9.458975 -2.068105
  S     6.943744  5.485891 -6.227772
  S     4.160290  5.994231 -3.257216
  S     6.598089  5.275313 -2.081528
  S     7.033421  9.188265 -6.255572
  S     4.021807  9.840762 -3.538421
  S     6.494378  9.250923 -2.154472
