16  
    
  C     5.578709  6.140611 -4.387037
  C     6.768227  5.672263 -3.690596
  C     5.400565  9.602009 -4.231897
  C     6.684594  9.277454 -3.652479
  N     7.812361  5.300830 -4.443907
  N     5.802184  6.295162 -5.684265
  N     4.810748  5.837286 -1.974275
  N     7.704125  9.314162 -4.483529
  N     5.498572  9.885899 -5.519775
  N     4.898204  9.539420 -1.723139
  S     7.333062  5.775419 -5.961276
  S     4.118577  6.368903 -3.382476
  S     6.511658  5.592835 -1.920289
  S     7.019254  9.662548 -5.998643
  S     4.057163  9.611888 -3.188499
  S     6.490629  9.034985 -1.922167
