16  
    
  C     5.367780  6.030477 -4.454760
  C     6.593284  5.585481 -3.757625
  C     5.337491  9.552703 -4.292211
  C     6.584551  9.188686 -3.632678
  N     7.712187  5.475220 -4.502455
  N     5.563471  6.250312 -5.759195
  N     4.738604  5.533514 -1.953492
  N     7.595386  9.102742 -4.496533
  N     5.405993  9.823724 -5.596849
  N     4.804146  9.455722 -1.730650
  S     7.156917  5.983909 -6.028465
  S     4.002462  5.992297 -3.373455
  S     6.373934  5.321894 -2.003900
  S     6.974539  9.450792 -6.048625
  S     4.102572  9.691597 -3.191291
  S     6.459925  9.097702 -1.904267
