16  
    
  C     5.820381  5.702223 -4.413545
  C     6.979844  5.070037 -3.684498
  C     5.590249  9.519589 -4.288638
  C     6.803488  9.008682 -3.678157
  N     8.065824  4.949701 -4.428838
  N     6.072562  6.027013 -5.693823
  N     5.070350  5.321905 -1.906110
  N     7.915977  8.981013 -4.428263
  N     5.768644  9.872352 -5.546178
  N     4.925962  8.766594 -1.920374
  S     7.669093  5.583335 -5.903608
  S     4.397118  5.812253 -3.365092
  S     6.630210  4.650931 -2.012354
  S     7.340083  9.438801 -5.977447
  S     4.202451  9.496818 -3.210006
  S     6.492544  8.246846 -2.145745
