16  
    
  C     5.585696  5.752151 -4.375678
  C     6.818112  5.273611 -3.753123
  C     5.458634  9.424596 -4.656597
  C     6.718677  9.257547 -3.931955
  N     7.850447  5.111730 -4.603620
  N     5.614262  5.823838 -5.712288
  N     5.145908  5.721447 -1.850149
  N     7.778575  9.307377 -4.707438
  N     5.609876  9.563756 -5.949735
  N     4.850563  9.325893 -2.191150
  S     7.186310  5.508175 -6.120415
  S     4.316534  6.067041 -3.220442
  S     6.679821  5.190847 -2.042181
  S     7.245551  9.547390 -6.250495
  S     4.088253  9.652321 -3.621361
  S     6.484696  8.966159 -2.222521
