16  
    
  C     5.878885  5.843174 -4.471640
  C     7.091001  5.439097 -3.751549
  C     5.615349  9.660338 -4.280162
  C     6.902263  9.273582 -3.744998
  N     8.203588  5.284953 -4.465906
  N     6.048000  5.917029 -5.788396
  N     5.130739  5.760661 -2.021764
  N     7.931923  9.196554 -4.598242
  N     5.614348  9.726309 -5.608827
  N     5.117479  9.196224 -1.868200
  S     7.631369  5.535789 -6.013063
  S     4.478729  6.229946 -3.460478
  S     6.766805  5.374894 -2.053727
  S     7.224942  9.487909 -6.100746
  S     4.248696  9.605218 -3.227140
  S     6.702998  8.829615 -2.082239
