16  
    
  C     5.588846  6.164635 -4.409669
  C     6.746986  5.581079 -3.788602
  C     5.437472  9.762527 -4.142045
  C     6.697137  9.323277 -3.592747
  N     7.825049  5.494958 -4.573561
  N     5.717252  6.466274 -5.723974
  N     4.932402  5.764351 -1.855953
  N     7.664769  9.035848 -4.459162
  N     5.514635  9.823796 -5.453365
  N     4.897830  9.398507 -1.657471
  S     7.279168  5.964345 -6.063388
  S     4.266743  6.356777 -3.288213
  S     6.477535  5.191382 -2.110023
  S     7.004513  9.443125 -5.974594
  S     4.149629  9.946089 -3.113208
  S     6.495630  9.068813 -1.824284
