16  
    
  C     5.341342  5.640916 -4.356692
  C     6.475752  5.063286 -3.694083
  C     5.478481  9.138340 -4.352810
  C     6.635466  8.535829 -3.701001
  N     7.504734  4.688114 -4.435895
  N     5.528942  5.743823 -5.674051
  N     4.607140  5.204567 -1.979100
  N     7.645652  8.319049 -4.514028
  N     5.680587  9.459635 -5.630837
  N     4.866107  8.811358 -1.857466
  S     7.082560  5.241106 -5.935529
  S     3.986627  5.929633 -3.354983
  S     6.226487  4.846064 -2.018461
  S     7.141558  8.893591 -6.038141
  S     4.126980  9.365024 -3.263067
  S     6.504911  8.381854 -2.000595
