16  
    
  C     5.475257  6.020033 -4.274956
  C     6.641358  5.563228 -3.690774
  C     5.356775  9.510928 -4.400835
  C     6.613126  9.209667 -3.796394
  N     7.708447  5.568516 -4.487399
  N     5.583295  6.268621 -5.569379
  N     4.870490  5.500793 -1.827852
  N     7.591494  9.196994 -4.657083
  N     5.361199  9.696420 -5.705784
  N     4.944724  9.321902 -1.780760
  S     7.248749  6.057366 -5.965059
  S     4.125345  6.028762 -3.218157
  S     6.494793  5.070021 -2.003440
  S     6.934152  9.410936 -6.126069
  S     4.123328  9.662784 -3.211709
  S     6.521048  8.926270 -2.041376
