16  
    
  C     5.486331  5.244252 -3.873036
  C     6.659578  4.942824 -3.193280
  C     5.388981  9.380198 -4.114233
  C     6.527170  8.793260 -3.467642
  N     7.718983  4.856623 -3.981101
  N     5.558969  5.356977 -5.184017
  N     4.808626  5.128913 -1.370860
  N     7.568433  8.602825 -4.310878
  N     5.533294  9.649461 -5.397807
  N     4.657628  9.079781 -1.739607
  S     7.161247  5.189481 -5.497239
  S     4.068822  5.259007 -2.871094
  S     6.430515  4.852398 -1.512886
  S     7.087668  9.120186 -5.781404
  S     4.009031  9.678377 -3.172559
  S     6.292311  8.760999 -1.738178
