16  
    
  C     5.392595  6.050896 -4.395221
  C     6.579522  5.605547 -3.731468
  C     5.674944  9.664057 -4.411767
  C     6.814519  9.098187 -3.718022
  N     7.674240  5.487574 -4.468410
  N     5.529300  6.109001 -5.720708
  N     4.848532  5.946552 -1.850431
  N     7.855717  8.868134 -4.528018
  N     5.902801  9.921521 -5.714774
  N     5.049740  9.459999 -1.950862
  S     7.094436  5.766212 -6.121712
  S     4.098116  6.374998 -3.254381
  S     6.402869  5.356522 -2.053928
  S     7.404877  9.277337 -6.046825
  S     4.343508  9.989314 -3.310069
  S     6.610512  8.859788 -2.075565
