16  
    
  C     5.520522  5.860983 -4.475102
  C     6.762382  5.554978 -3.802059
  C     5.618918  9.106599 -4.131154
  C     6.852348  8.773681 -3.472733
  N     7.848978  5.520307 -4.571775
  N     5.620269  6.113004 -5.795673
  N     4.927064  5.734921 -1.942457
  N     7.891401  8.737609 -4.331704
  N     5.695425  9.385310 -5.437074
  N     5.126506  8.777852 -1.618478
  S     7.209492  5.796552 -6.076862
  S     4.113781  5.847960 -3.405825
  S     6.563631  5.460372 -2.055144
  S     7.246890  9.083269 -5.824497
  S     4.272499  9.111093 -3.058481
  S     6.787620  8.578882 -1.762940
