16  
    
  C     5.505481  5.238525 -4.061435
  C     6.904195  5.243425 -3.596858
  C     5.516498  9.363946 -4.646255
  C     6.655823  8.846851 -3.907012
  N     7.810747  5.361900 -4.560264
  N     5.404065  5.300922 -5.407415
  N     5.366567  5.141159 -1.538762
  N     7.749008  8.615822 -4.646154
  N     5.673233  9.337295 -5.950196
  N     4.699331  9.154065 -2.231814
  S     6.976851  5.326222 -5.966691
  S     4.343164  5.307136 -2.776200
  S     6.998773  5.062431 -1.910834
  S     7.232833  8.944376 -6.268221
  S     4.268986  9.935001 -3.624651
  S     6.373333  8.709253 -2.158581
