16  
    
  C     5.226585  6.343306 -4.513484
  C     6.341817  5.741988 -3.833315
  C     5.405791  9.928638 -4.116735
  C     6.727619  9.657945 -3.593506
  N     7.465667  5.562041 -4.591558
  N     5.488327  6.567067 -5.797434
  N     4.527871  6.111204 -2.013731
  N     7.754574  9.574506 -4.430903
  N     5.420765 10.202614 -5.403905
  N     4.971829  9.328328 -1.613327
  S     7.105301  6.057503 -6.051416
  S     3.815085  6.437693 -3.487868
  S     6.044138  5.473499 -2.131318
  S     7.017692 10.082679 -5.872027
  S     4.148478  9.667952 -2.967137
  S     6.658940  9.238696 -1.859950
