16  
    
  C     5.479110  5.666440 -4.228235
  C     6.635763  5.297581 -3.466419
  C     5.849690  8.964967 -3.990536
  C     7.090863  8.499522 -3.393760
  N     7.683992  4.947116 -4.241489
  N     5.617330  5.479918 -5.544625
  N     4.843349  5.785831 -1.776568
  N     8.097237  8.513863 -4.216970
  N     5.889667  9.200439 -5.307916
  N     5.320822  8.431158 -1.492933
  S     7.183798  5.110099 -5.821290
  S     4.063359  5.988334 -3.277282
  S     6.337310  5.063312 -1.747942
  S     7.450304  8.988343 -5.720259
  S     4.605520  9.115999 -2.803175
  S     7.000328  8.254237 -1.629586
