16  
    
  C     5.576111  6.275138 -4.623317
  C     6.519033  5.551875 -3.857172
  C     5.771123  9.492092 -4.387822
  C     6.991008  9.092763 -3.737820
  N     7.614070  5.250335 -4.517822
  N     5.937989  6.564910 -5.868121
  N     4.610273  5.875033 -2.162983
  N     8.024953  8.996921 -4.577679
  N     5.922318  9.691995 -5.703201
  N     5.131237  9.255050 -1.943958
  S     7.461746  5.952015 -5.955153
  S     4.154539  6.517932 -3.630801
  S     6.020088  5.027614 -2.280000
  S     7.513227  9.359980 -6.068309
  S     4.402474  9.585224 -3.361895
  S     6.736353  8.744822 -2.002880
