16  
    
  C     5.504293  5.260275 -4.179221
  C     6.820147  5.097467 -3.544933
  C     5.391276  9.251393 -4.425788
  C     6.591439  8.720057 -3.841556
  N     7.775194  4.884739 -4.438060
  N     5.526360  5.284304 -5.523718
  N     5.076008  5.266123 -1.641377
  N     7.574152  8.411763 -4.675814
  N     5.512721  9.434236 -5.728032
  N     4.876493  9.102768 -1.958589
  S     7.166053  5.148409 -5.910094
  S     4.174923  5.084210 -2.994897
  S     6.752477  5.086660 -1.860656
  S     6.968309  8.828901 -6.200742
  S     4.108343  9.550983 -3.354423
  S     6.461513  8.662670 -2.093544
