16  
    
  C     5.509497  5.644531 -4.309083
  C     6.670469  5.022101 -3.675059
  C     5.530414  9.267218 -4.336852
  C     6.720902  8.759980 -3.705954
  N     7.736188  4.904762 -4.468873
  N     5.719033  5.915090 -5.592717
  N     4.983256  5.582456 -1.790362
  N     7.755060  8.659004 -4.508946
  N     5.645999  9.399565 -5.665929
  N     5.049649  9.142174 -1.805959
  S     7.265233  5.344646 -5.981963
  S     4.240072  6.029592 -3.208032
  S     6.554255  5.011631 -1.920914
  S     7.284723  9.128367 -5.972901
  S     4.212999  9.543008 -3.189486
  S     6.575510  8.589114 -1.991110
