16  
    
  C     5.607589  5.965542 -4.512560
  C     6.757441  5.453998 -3.840696
  C     5.498328  9.724591 -4.348294
  C     6.720672  9.223986 -3.754705
  N     7.881031  5.375730 -4.571007
  N     5.724150  6.112843 -5.815655
  N     4.991496  5.727169 -2.074562
  N     7.789279  9.166426 -4.555223
  N     5.714013 10.110586 -5.600279
  N     4.912753  9.277087 -1.898598
  S     7.294639  5.738840 -6.154175
  S     4.266987  6.161991 -3.467679
  S     6.550805  5.173251 -2.199834
  S     7.275282  9.697710 -6.057846
  S     4.245671  9.915510 -3.205798
  S     6.609266  8.832353 -2.037393
