16  
    
  C     5.635156  5.505953 -4.373027
  C     6.879077  5.271788 -3.653095
  C     5.597427  9.610081 -4.225206
  C     6.808202  9.103082 -3.601156
  N     7.941909  5.018202 -4.403077
  N     5.732891  5.462880 -5.695529
  N     5.019217  5.656006 -1.921152
  N     7.796578  8.772572 -4.420181
  N     5.756434  9.864601 -5.505010
  N     5.029657  9.179401 -1.748005
  S     7.313274  5.017733 -5.979619
  S     4.274904  5.729538 -3.374991
  S     6.598294  5.286233 -2.002572
  S     7.342730  9.253601 -5.952637
  S     4.188639  9.556667 -3.145520
  S     6.587233  8.726544 -1.929023
