16  
    
  C     5.888046  5.899893 -4.447300
  C     7.082042  5.477119 -3.706125
  C     5.629381  9.624887 -4.291331
  C     6.912949  9.267163 -3.739067
  N     8.168753  5.266586 -4.461046
  N     6.065149  5.931329 -5.744645
  N     5.126660  5.696521 -2.012892
  N     7.906043  9.166558 -4.633954
  N     5.631747  9.715521 -5.641504
  N     5.104762  9.217565 -1.878296
  S     7.651392  5.565681 -6.023129
  S     4.478110  6.220197 -3.463597
  S     6.756675  5.400379 -2.062131
  S     7.254969  9.467626 -6.112887
  S     4.279826  9.647192 -3.244346
  S     6.708399  8.822679 -2.044387
