16  
    
  C     5.360458  5.743043 -4.466977
  C     6.590263  5.403489 -3.729389
  C     5.286061  9.515944 -4.334507
  C     6.578771  9.183272 -3.760048
  N     7.667628  5.261412 -4.498397
  N     5.593435  5.880375 -5.763840
  N     4.724077  5.775471 -1.942528
  N     7.594617  8.998088 -4.633989
  N     5.282890  9.410487 -5.667704
  N     4.815980  9.280264 -1.865328
  S     7.162369  5.539518 -6.049271
  S     4.016171  6.134082 -3.439833
  S     6.301245  5.220057 -2.061712
  S     6.909236  9.018446 -6.119144
  S     3.961919  9.726680 -3.206351
  S     6.408664  8.943712 -2.073683
