16  
    
  C     5.451387  5.738974 -4.353128
  C     6.645980  5.380765 -3.632267
  C     5.705840  9.063758 -4.128582
  C     7.008920  8.838584 -3.553783
  N     7.743642  5.338941 -4.365297
  N     5.667954  5.934694 -5.629217
  N     4.727912  5.460558 -1.993800
  N     8.026487  8.919845 -4.434428
  N     5.721583  9.322033 -5.437786
  N     5.247731  8.715275 -1.709712
  S     7.267171  5.711012 -5.939282
  S     4.069142  6.100837 -3.369377
  S     6.382954  5.200703 -1.964036
  S     7.339963  9.098987 -5.896534
  S     4.383425  8.942256 -3.108734
  S     6.856387  8.442253 -1.838493
