16  
    
  C     5.305053  6.203871 -4.394396
  C     6.474757  5.674737 -3.772168
  C     5.615262  9.579208 -4.289768
  C     6.907613  9.215361 -3.670653
  N     7.503024  5.561168 -4.595974
  N     5.366121  6.421450 -5.697037
  N     4.860804  6.144903 -1.816506
  N     7.920711  9.032628 -4.512136
  N     5.670395  9.689650 -5.587411
  N     5.014575  9.313411 -1.765340
  S     6.915866  5.963697 -6.122148
  S     4.075579  6.513663 -3.259251
  S     6.386317  5.573929 -2.065283
  S     7.246489  9.417866 -5.997325
  S     4.328122  9.703680 -3.262297
  S     6.661988  8.937491 -1.910109
