16  
    
  C     5.817575  5.746918 -4.506841
  C     7.007250  5.414587 -3.725464
  C     5.541470  9.600705 -4.298608
  C     6.814777  9.305827 -3.733916
  N     8.073378  5.302598 -4.500831
  N     6.035781  5.855711 -5.798633
  N     5.215704  5.914874 -1.989740
  N     7.852345  9.261901 -4.568611
  N     5.642659  9.831275 -5.646795
  N     5.092066  9.119689 -1.805368
  S     7.633598  5.474953 -6.107306
  S     4.507699  6.220966 -3.494338
  S     6.773452  5.309261 -2.010982
  S     7.166945  9.535749 -6.054762
  S     4.214103  9.501231 -3.172792
  S     6.731872  8.848318 -2.106584
