16  
    
  C     5.297862  5.677364 -4.309673
  C     6.485536  5.348262 -3.674688
  C     5.395204  9.455651 -4.172960
  C     6.594772  8.935612 -3.594618
  N     7.514050  5.228849 -4.507036
  N     5.361239  5.940909 -5.623695
  N     4.783905  5.635761 -1.743733
  N     7.592608  8.623606 -4.443436
  N     5.468074  9.525198 -5.502422
  N     4.904948  9.311350 -1.608349
  S     6.896621  5.498690 -6.025718
  S     4.028016  6.035054 -3.185770
  S     6.360608  5.229591 -1.935822
  S     6.975730  9.027557 -5.987398
  S     4.142728  9.600452 -3.055166
  S     6.537095  8.819296 -1.808255
