16  
    
  C     5.616825  5.261772 -3.903701
  C     6.830034  5.017299 -3.194845
  C     5.360950  9.340661 -4.222382
  C     6.452531  8.739806 -3.525420
  N     7.820890  4.896363 -4.036471
  N     5.694603  5.436101 -5.213811
  N     5.029931  5.072415 -1.415858
  N     7.546530  8.427625 -4.279538
  N     5.707044  9.647596 -5.480282
  N     4.696173  9.212214 -1.661576
  S     7.294438  5.210167 -5.574623
  S     4.181093  5.359509 -2.852464
  S     6.687300  4.882200 -1.424392
  S     7.197395  9.130628 -5.755635
  S     4.036492  9.695549 -3.115502
  S     6.263996  8.648270 -1.775181
