16  
    
  C     5.252084  6.272259 -4.346554
  C     6.491410  5.699242 -3.796202
  C     5.725619  9.533602 -4.239913
  C     6.944337  9.121275 -3.620863
  N     7.463554  5.517997 -4.697407
  N     5.372271  6.517230 -5.646477
  N     4.752929  6.101673 -1.848667
  N     7.929348  8.958980 -4.507763
  N     5.782989  9.673047 -5.574436
  N     5.174515  9.419028 -1.787649
  S     6.922622  6.011136 -6.159767
  S     3.939102  6.535872 -3.215916
  S     6.344029  5.575583 -2.020965
  S     7.325842  9.329951 -6.020535
  S     4.350111  9.745265 -3.141690
  S     6.729433  8.943283 -1.942774
