16  
    
  C     5.322590  5.512063 -4.348722
  C     6.487520  4.962904 -3.716975
  C     5.489217  9.203269 -4.410057
  C     6.581014  8.469073 -3.784379
  N     7.523486  4.788987 -4.536145
  N     5.502198  5.820550 -5.627611
  N     4.567957  5.164728 -1.901440
  N     7.587733  8.204077 -4.581961
  N     5.733114  9.602639 -5.666365
  N     4.946035  8.916681 -1.898062
  S     7.069708  5.223770 -6.071269
  S     4.029967  5.936485 -3.259932
  S     6.181760  4.668436 -1.949138
  S     7.270062  9.011843 -6.033337
  S     4.134407  9.347499 -3.270767
  S     6.312557  8.041869 -2.142779
