16  
    
  C     5.457606  5.613524 -4.374217
  C     6.694780  5.149931 -3.775702
  C     5.701509  9.083186 -4.381662
  C     6.938693  8.797935 -3.682397
  N     7.674949  5.024738 -4.680534
  N     5.500650  5.872114 -5.672909
  N     5.092322  5.680161 -1.842195
  N     8.017704  8.579655 -4.458284
  N     5.913327  9.114628 -5.688269
  N     5.122141  9.235247 -1.825555
  S     6.990263  5.468150 -6.154984
  S     4.290161  6.171928 -3.201257
  S     6.614161  5.001354 -2.070245
  S     7.530393  8.850801 -5.986721
  S     4.343930  9.496281 -3.294023
  S     6.714254  8.749242 -1.943184
