16  
    
  C     5.515790  5.962123 -4.756907
  C     6.723421  5.598365 -4.030852
  C     5.623671  9.833928 -4.310638
  C     6.758958  9.212587 -3.725917
  N     7.820927  5.620218 -4.778659
  N     5.705767  6.212925 -6.032828
  N     4.882183  5.688771 -2.256665
  N     7.748018  9.077902 -4.615269
  N     5.780732 10.214359 -5.591085
  N     4.847774  9.218755 -1.959161
  S     7.309186  5.884897 -6.300475
  S     4.201949  6.046366 -3.704513
  S     6.440420  5.360527 -2.298046
  S     7.296379  9.737761 -6.018064
  S     4.200895  9.779039 -3.391925
  S     6.496923  8.860322 -2.009761
