16  
    
  C     5.320349  5.629531 -4.364961
  C     6.466102  5.079385 -3.689982
  C     5.485641  9.126319 -4.354144
  C     6.643640  8.565069 -3.677684
  N     7.494810  4.704741 -4.438510
  N     5.524071  5.766637 -5.666895
  N     4.603428  5.230371 -1.982249
  N     7.651568  8.327916 -4.508044
  N     5.658445  9.436712 -5.632820
  N     4.876774  8.806093 -1.858744
  S     7.097688  5.230046 -5.927986
  S     3.996730  5.917041 -3.367283
  S     6.229614  4.861424 -2.019461
  S     7.131084  8.884930 -6.046800
  S     4.132977  9.367348 -3.258789
  S     6.514623  8.415366 -1.971377
