16  
    
  C     5.435154  5.631213 -4.287311
  C     6.616305  5.073829 -3.571138
  C     5.894628  9.131331 -3.957410
  C     7.132263  8.656544 -3.381483
  N     7.697401  4.897890 -4.315151
  N     5.669228  5.829193 -5.579341
  N     4.881463  5.830414 -1.733910
  N     8.172831  8.492300 -4.238253
  N     5.984735  9.469475 -5.242199
  N     5.415904  8.381316 -1.505284
  S     7.192861  5.304570 -5.861780
  S     4.158595  6.120565 -3.221719
  S     6.388073  5.169264 -1.830327
  S     7.541048  9.053426 -5.730772
  S     4.532702  9.011484 -2.769260
  S     7.082120  8.415635 -1.706606
