16  
    
  C     5.526225  5.936688 -4.381135
  C     6.791393  5.521480 -3.723973
  C     5.734043  9.453835 -4.421810
  C     7.005731  9.120569 -3.760788
  N     7.862311  5.424853 -4.454885
  N     5.701440  6.012458 -5.699717
  N     4.967604  5.586212 -1.881902
  N     8.050141  8.962848 -4.543591
  N     5.947755  9.664515 -5.712356
  N     5.188076  9.346985 -1.909690
  S     7.305655  5.732601 -6.068353
  S     4.229290  6.106048 -3.253979
  S     6.644519  5.265520 -1.989142
  S     7.517805  9.326510 -6.060006
  S     4.405108  9.512083 -3.390108
  S     6.829419  9.094196 -2.022145
