16  
    
  C     5.250880  6.419879 -4.670471
  C     6.443693  5.933652 -4.055284
  C     5.671734  9.740131 -4.429051
  C     6.935187  9.323269 -3.768448
  N     7.431192  5.722631 -4.861959
  N     5.301902  6.449915 -5.993823
  N     4.807627  6.434187 -2.200455
  N     7.941831  9.121472 -4.580849
  N     5.822821  9.923574 -5.742773
  N     5.257601  9.472151 -1.826959
  S     6.870068  6.063135 -6.414215
  S     3.940116  6.669302 -3.581235
  S     6.398386  5.956096 -2.353241
  S     7.429648  9.491872 -6.124025
  S     4.408243  9.919276 -3.231605
  S     6.915350  9.158208 -2.015414
