16  
    
  C     5.410110  6.030912 -4.153347
  C     6.671083  5.564434 -3.595678
  C     5.646252  9.626527 -4.493365
  C     6.755895  9.046473 -3.752667
  N     7.635689  5.341727 -4.480445
  N     5.466307  6.218921 -5.473144
  N     5.003275  5.668981 -1.637779
  N     7.909427  8.954446 -4.433692
  N     5.992484  9.874203 -5.743517
  N     4.843646  9.313910 -2.095671
  S     7.018086  5.774282 -5.951586
  S     4.201594  6.342512 -2.973885
  S     6.582294  5.231865 -1.924432
  S     7.553743  9.490957 -5.967676
  S     4.196035  9.944620 -3.463223
  S     6.457516  8.908306 -2.085581
