16  
    
  C     5.515638  5.999308 -4.378963
  C     6.717408  5.701854 -3.770333
  C     5.535474  9.376209 -4.495171
  C     6.808178  9.148226 -3.857393
  N     7.689838  5.464335 -4.598608
  N     5.580137  6.121271 -5.689323
  N     4.958451  5.779445 -1.923141
  N     7.902954  9.178934 -4.623285
  N     5.685837  9.541087 -5.782467
  N     5.000610  9.301018 -1.979090
  S     7.153147  5.766361 -6.088454
  S     4.157098  6.177912 -3.308023
  S     6.640760  5.584830 -2.079437
  S     7.343084  9.328234 -6.152350
  S     4.122418  9.422430 -3.349034
  S     6.691546  8.919968 -2.119804
