16  
    
  C     5.581447  5.489600 -4.228701
  C     6.866450  5.329751 -3.583848
  C     5.218351  9.954211 -4.621905
  C     6.366092  9.251411 -4.000256
  N     7.879714  5.292984 -4.431908
  N     5.651204  5.387106 -5.569184
  N     4.991007  5.498502 -1.750520
  N     7.369341  8.919604 -4.827690
  N     5.435678 10.174988 -5.884491
  N     4.614135  9.758169 -2.137184
  S     7.282671  5.315302 -5.927132
  S     4.217246  5.664368 -3.244181
  S     6.678236  5.369141 -1.805936
  S     6.855517  9.528880 -6.296062
  S     3.973086 10.469578 -3.535439
  S     6.088740  9.132610 -2.222162
