16  
    
  C     5.637931  5.759708 -4.267558
  C     6.925982  5.215747 -3.776441
  C     5.799242  9.620012 -4.511740
  C     6.979911  9.165467 -3.827882
  N     7.890978  5.298687 -4.681168
  N     5.788630  6.156914 -5.524041
  N     5.329803  5.224922 -1.790069
  N     8.045887  9.244921 -4.646667
  N     5.883732 10.011532 -5.786834
  N     5.159549  9.206007 -1.955186
  S     7.281655  5.750270 -6.124941
  S     4.390364  5.655252 -3.068842
  S     6.880204  4.674247 -2.119685
  S     7.541322  9.890141 -6.081842
  S     4.515956  9.904648 -3.308315
  S     6.744521  8.757205 -2.185851
