16  
    
  C     5.582904  6.067466 -4.194677
  C     6.726305  5.499002 -3.563214
  C     5.861019  9.577294 -4.220971
  C     7.073384  9.068152 -3.629546
  N     7.766100  5.288697 -4.380041
  N     5.712563  6.156746 -5.514162
  N     5.038038  5.990574 -1.686356
  N     8.057153  8.886228 -4.518230
  N     5.857663  9.706640 -5.532330
  N     5.454066  9.619912 -1.704504
  S     7.272830  5.706340 -5.934103
  S     4.365412  6.604628 -3.116700
  S     6.537585  5.296418 -1.852496
  S     7.505434  9.401090 -5.970505
  S     4.600918 10.001775 -3.054889
  S     6.949346  9.007524 -1.934971
