16  
    
  C     5.200662  6.218281 -4.361134
  C     6.219585  5.532335 -3.612210
  C     5.667222  9.626946 -4.184742
  C     6.900557  9.077201 -3.593325
  N     7.280466  5.125769 -4.328286
  N     5.458206  6.442458 -5.658053
  N     4.431400  6.268924 -1.839564
  N     7.959901  8.959777 -4.441492
  N     5.803520  9.809001 -5.509713
  N     5.236571  9.391714 -1.709807
  S     6.931528  5.779751 -5.885241
  S     3.820747  6.766664 -3.278425
  S     5.873328  5.408946 -1.895858
  S     7.344212  9.370878 -5.999749
  S     4.429795  9.968688 -3.061954
  S     6.753060  8.821802 -1.834147
