16  
    
  C     5.510752  5.959427 -4.565042
  C     6.799086  5.633054 -3.953919
  C     5.818001  9.474750 -4.193234
  C     7.117305  9.116868 -3.585484
  N     7.741400  5.598215 -4.906471
  N     5.548299  6.298490 -5.822915
  N     5.014987  5.654539 -2.028627
  N     8.103189  9.021837 -4.441253
  N     5.800701  9.509952 -5.537257
  N     5.344525  9.139887 -1.714503
  S     7.145359  6.095991 -6.281692
  S     4.165035  5.971629 -3.425092
  S     6.648856  5.349422 -2.193046
  S     7.378175  9.302745 -5.984326
  S     4.448730  9.556486 -3.097387
  S     6.942036  8.751045 -1.884459
