16  
    
  C     5.573394  5.694653 -4.354203
  C     6.742753  5.087360 -3.700035
  C     5.419930  9.927663 -4.518856
  C     6.619527  9.356258 -3.925565
  N     7.765180  4.928217 -4.515369
  N     5.771430  5.900217 -5.637000
  N     4.959072  5.613215 -1.900450
  N     7.578325  9.069494 -4.802685
  N     5.557203 10.189856 -5.834080
  N     4.918284  9.338322 -2.007581
  S     7.319524  5.407874 -6.051652
  S     4.222620  5.808911 -3.374183
  S     6.519403  4.925676 -2.011371
  S     7.039536  9.537188 -6.268748
  S     4.153850 10.042275 -3.292773
  S     6.528540  9.024372 -2.245735
