16  
    
  C     5.346057  6.089335 -4.354251
  C     6.537829  5.451006 -3.763841
  C     5.402184  9.144226 -4.299113
  C     6.698001  8.909011 -3.668808
  N     7.490686  5.285445 -4.680061
  N     5.454235  6.298147 -5.636094
  N     4.764174  5.527673 -1.973561
  N     7.741721  8.773515 -4.479031
  N     5.529125  9.316675 -5.608467
  N     4.948416  9.301515 -1.839375
  S     6.993645  5.831151 -6.119606
  S     3.989326  6.195897 -3.277074
  S     6.396074  5.306354 -2.057873
  S     7.137130  9.064612 -5.990912
  S     4.050433  9.244854 -3.178687
  S     6.555644  8.748615 -1.905693
