16  
    
  C     5.525790  5.647359 -4.092401
  C     6.764548  5.203684 -3.529377
  C     5.461278  8.895265 -4.102388
  C     6.767178  8.830996 -3.523800
  N     7.751262  5.145978 -4.392039
  N     5.581420  5.868864 -5.380152
  N     5.081562  5.471341 -1.543680
  N     7.771889  8.694753 -4.390254
  N     5.544924  8.830952 -5.459072
  N     5.116764  9.148119 -1.577179
  S     7.109888  5.486295 -5.855111
  S     4.298156  6.038438 -2.894214
  S     6.648494  5.012108 -1.826812
  S     7.126103  8.671841 -5.866010
  S     4.149577  9.028200 -2.912781
  S     6.701592  8.688355 -1.799996
