16  
    
  C     5.566021  6.207325 -4.356665
  C     6.694731  5.665160 -3.648862
  C     5.450992  9.613969 -4.289807
  C     6.693266  9.293612 -3.602241
  N     7.715432  5.400417 -4.430588
  N     5.701120  6.264489 -5.662262
  N     4.844896  5.858934 -1.928289
  N     7.684332  9.281989 -4.511230
  N     5.454037  9.933091 -5.615883
  N     4.885414  9.528503 -1.810970
  S     7.253182  5.746270 -6.008566
  S     4.167449  6.387537 -3.396031
  S     6.494622  5.629102 -1.952017
  S     7.072646  9.671043 -5.996692
  S     4.060289  9.573000 -3.232821
  S     6.527494  9.003000 -1.866540
