16  
    
  C     5.635859  5.834218 -4.440185
  C     6.879555  5.415777 -3.856064
  C     5.855797  9.591497 -3.907242
  C     7.066624  8.966730 -3.439617
  N     7.872180  5.232739 -4.708758
  N     5.730534  5.974996 -5.738671
  N     5.181262  5.325027 -1.894023
  N     7.987447  8.831406 -4.410975
  N     5.821393  9.882103 -5.201411
  N     5.386697  8.804047 -1.492697
  S     7.352171  5.667527 -6.177920
  S     4.395662  5.797136 -3.248276
  S     6.783494  5.097470 -2.147098
  S     7.239764  9.292257 -5.820530
  S     4.526001  9.544796 -2.763861
  S     6.965459  8.398413 -1.845432
