16  
    
  C     5.619675  6.181587 -4.395981
  C     6.759337  5.557446 -3.739759
  C     5.504019  9.677688 -4.158532
  C     6.734888  9.296940 -3.531116
  N     7.851460  5.464283 -4.511076
  N     5.769278  6.370902 -5.698469
  N     4.901701  5.840983 -1.922547
  N     7.700148  9.126338 -4.449575
  N     5.466452  9.843056 -5.474741
  N     4.870665  9.349429 -1.721912
  S     7.287683  5.972473 -6.025407
  S     4.227431  6.371125 -3.334234
  S     6.496137  5.199772 -2.068826
  S     6.973525  9.449786 -5.962333
  S     4.128007  9.905085 -3.070672
  S     6.484840  9.084212 -1.868602
