16  
    
  C     5.502705  5.660906 -4.350666
  C     6.589672  5.028988 -3.664102
  C     5.480921  9.727231 -4.598208
  C     6.656133  9.197639 -3.963620
  N     7.659684  4.935291 -4.413199
  N     5.719250  5.886284 -5.630494
  N     4.866144  5.554527 -1.855504
  N     7.684928  9.101313 -4.817822
  N     5.587035 10.099305 -5.862025
  N     4.821785  9.347986 -2.143095
  S     7.303144  5.410177 -5.994540
  S     4.161154  5.960939 -3.335138
  S     6.347098  4.762219 -2.001312
  S     7.191071  9.772563 -6.224976
  S     4.235455  9.984679 -3.535048
  S     6.402071  8.829653 -2.244023
