16  
    
  C     5.439985  5.984918 -4.527912
  C     6.695616  5.492107 -3.889883
  C     5.405770  9.861559 -4.537953
  C     6.542826  9.291531 -3.827755
  N     7.699988  5.231711 -4.721161
  N     5.587396  6.217418 -5.820642
  N     5.045537  5.785319 -1.971005
  N     7.569181  9.137509 -4.646249
  N     5.604172 10.096550 -5.870164
  N     4.891772  9.669039 -1.983037
  S     7.084074  5.674810 -6.219916
  S     4.217527  6.365932 -3.317426
  S     6.619824  5.371274 -2.135779
  S     7.210223  9.744366 -6.152007
  S     4.020570  9.933989 -3.403310
  S     6.449792  9.039729 -2.161076
