16  
    
  C     5.595448  5.553756 -3.999989
  C     6.864949  5.176149 -3.404479
  C     5.841719  9.378337 -3.873756
  C     7.118900  9.097767 -3.263206
  N     7.836961  4.888652 -4.236031
  N     5.642223  5.599168 -5.324427
  N     5.192572  5.470956 -1.518964
  N     8.130586  8.887056 -4.092851
  N     5.883066  9.405213 -5.224525
  N     5.322342  9.132843 -1.374229
  S     7.240612  5.227362 -5.747407
  S     4.276489  5.708761 -2.908296
  S     6.797940  5.015070 -1.707051
  S     7.490881  8.954811 -5.629032
  S     4.483359  9.539039 -2.735547
  S     6.948028  8.872242 -1.571838
