16  
    
  C     5.532986  6.002205 -4.704813
  C     6.693328  5.546667 -3.989571
  C     5.663998  9.881482 -4.366500
  C     6.808549  9.222852 -3.740537
  N     7.825612  5.528893 -4.688998
  N     5.744509  6.318987 -5.998045
  N     4.773476  5.739175 -2.253873
  N     7.837746  9.000600 -4.553381
  N     5.822927 10.213781 -5.617757
  N     4.878679  9.249247 -1.983267
  S     7.363051  5.917602 -6.280093
  S     4.114266  6.188225 -3.703764
  S     6.414596  5.338620 -2.348455
  S     7.301092  9.678969 -6.066924
  S     4.220277  9.745900 -3.429105
  S     6.514453  8.855173 -2.055986
