16  
    
  C     5.367565  5.491060 -4.340331
  C     6.543165  4.956485 -3.731362
  C     5.617646  9.299089 -4.359787
  C     6.699409  8.544164 -3.763432
  N     7.556600  4.792231 -4.574001
  N     5.490560  5.833053 -5.623603
  N     4.762694  5.124280 -1.840448
  N     7.693979  8.277049 -4.564188
  N     5.834104  9.619042 -5.638561
  N     4.848093  8.567907 -2.009717
  S     7.056297  5.292527 -6.051279
  S     4.051218  5.532917 -3.293719
  S     6.308143  4.677177 -2.025341
  S     7.326141  8.978746 -6.080887
  S     4.319776  9.591780 -3.185825
  S     6.441495  8.090323 -2.085312
