16  
    
  C     5.531656  5.922894 -4.668009
  C     6.853303  5.713743 -4.033615
  C     5.476953  9.730879 -4.337607
  C     6.667557  9.195659 -3.712053
  N     7.905233  5.609126 -4.844995
  N     5.642085  5.935191 -5.976865
  N     4.920847  5.528701 -2.231880
  N     7.788068  9.167157 -4.443767
  N     5.695239 10.111069 -5.588461
  N     4.843725  9.178819 -1.885734
  S     7.267201  5.881514 -6.422292
  S     4.128632  5.848879 -3.702655
  S     6.645369  5.382609 -2.290853
  S     7.279004  9.837778 -5.941486
  S     4.095414  9.849930 -3.185804
  S     6.483606  8.848494 -2.063601
