16  
    
  C     5.644644  6.151707 -4.204749
  C     6.820744  5.572079 -3.584429
  C     5.846129  9.583720 -4.222408
  C     7.076260  9.096120 -3.631512
  N     7.845926  5.400824 -4.406418
  N     5.756994  6.369225 -5.494240
  N     5.058522  5.673940 -1.763748
  N     8.053149  9.004364 -4.510587
  N     5.842262  9.735135 -5.565599
  N     5.586870  9.683805 -1.699521
  S     7.280861  5.854097 -5.905530
  S     4.414591  6.527911 -3.060301
  S     6.658267  5.338713 -1.850437
  S     7.451739  9.223157 -6.010560
  S     4.640232  9.911461 -3.023167
  S     6.999071  8.809149 -1.902477
