16  
    
  C     5.219208  6.225107 -4.518174
  C     6.403931  5.705526 -3.929919
  C     5.447779  9.597018 -4.066038
  C     6.707036  9.347234 -3.487925
  N     7.460988  5.630727 -4.743442
  N     5.370100  6.532254 -5.817902
  N     4.607806  5.930047 -2.072513
  N     7.748655  9.469735 -4.298537
  N     5.454336  9.902210 -5.377719
  N     5.054781  9.011806 -1.575410
  S     6.880535  6.175722 -6.245812
  S     3.890179  6.435482 -3.461002
  S     6.223667  5.527567 -2.219117
  S     7.095051  9.907770 -5.760383
  S     4.199096  9.523856 -2.921000
  S     6.673511  8.839805 -1.859068
