16  
    
  C     5.244567  6.390806 -4.691771
  C     6.444387  5.963567 -4.061740
  C     5.769955  9.767888 -4.382147
  C     6.993213  9.333966 -3.756466
  N     7.429127  5.731170 -4.932500
  N     5.282900  6.497426 -5.999391
  N     4.779965  6.439169 -2.161858
  N     7.982042  9.057735 -4.619859
  N     5.766891  9.882297 -5.735275
  N     5.309276  9.458055 -1.822969
  S     6.850178  6.064929 -6.374616
  S     3.953311  6.649877 -3.610554
  S     6.361702  5.975481 -2.354523
  S     7.399011  9.521337 -6.126783
  S     4.439844  9.892044 -3.239874
  S     6.875029  9.152363 -2.037180
