16  
    
  C     5.832822  5.788977 -4.528126
  C     7.008024  5.386870 -3.796382
  C     5.463284  9.570067 -4.338439
  C     6.744628  9.228072 -3.725634
  N     8.096931  5.164230 -4.565230
  N     5.956394  5.788599 -5.852369
  N     5.219197  6.008768 -1.993072
  N     7.739955  9.238507 -4.565193
  N     5.512039  9.888267 -5.651292
  N     5.115275  9.018435 -1.798822
  S     7.571260  5.462970 -6.131393
  S     4.493528  6.176200 -3.472609
  S     6.747950  5.282101 -2.032029
  S     7.192456  9.613346 -6.077452
  S     4.213310  9.426747 -3.142694
  S     6.751116  8.877597 -1.995264
