16  
    
  C     5.501736  5.857797 -4.294611
  C     6.661940  5.228920 -3.593781
  C     5.924016  9.182887 -3.961899
  C     7.153797  8.748784 -3.372876
  N     7.599678  4.820584 -4.435763
  N     5.677367  6.039399 -5.586690
  N     4.923515  5.806954 -1.797252
  N     8.120578  8.638070 -4.283710
  N     5.962519  9.515823 -5.250907
  N     5.459129  8.771500 -1.461500
  S     7.228250  5.469539 -5.916227
  S     4.162194  6.147810 -3.233257
  S     6.488679  5.188856 -1.855849
  S     7.532482  9.121924 -5.736382
  S     4.624974  8.993231 -2.900693
  S     7.088005  8.417387 -1.654737
