16  
    
  C     5.463210  5.822794 -4.517339
  C     6.712369  5.545356 -3.850498
  C     5.593242  9.353882 -4.166069
  C     6.786168  8.973721 -3.485929
  N     7.753677  5.487362 -4.651943
  N     5.566882  5.927906 -5.845904
  N     4.956318  5.718581 -1.991889
  N     7.857327  8.903061 -4.289987
  N     5.729267  9.510318 -5.482987
  N     5.109514  9.221590 -1.665657
  S     7.161742  5.572618 -6.177652
  S     4.199647  6.163129 -3.412493
  S     6.556667  5.386490 -2.101623
  S     7.284380  9.202344 -5.839468
  S     4.258176  9.498334 -3.054259
  S     6.729375  8.821332 -1.782996
