16  
    
  C     5.451236  5.469431 -4.202448
  C     6.597900  5.162297 -3.477746
  C     5.790292  8.878195 -3.945240
  C     7.055887  8.509233 -3.369384
  N     7.689871  4.961951 -4.210692
  N     5.645362  5.563646 -5.511644
  N     4.725215  5.630836 -1.729453
  N     8.041308  8.487220 -4.289026
  N     5.842777  9.043970 -5.249039
  N     5.353960  8.801660 -1.438734
  S     7.202233  5.062438 -5.794007
  S     4.065982  5.846601 -3.214885
  S     6.276541  5.156249 -1.784865
  S     7.377816  8.837230 -5.735666
  S     4.473122  9.141916 -2.817044
  S     6.888836  8.141690 -1.678128
