16  
    
  C     5.653790  5.612781 -4.216343
  C     6.801983  5.078932 -3.564960
  C     5.392730  9.270118 -4.249299
  C     6.521379  8.605312 -3.635448
  N     7.837677  4.792077 -4.320653
  N     5.780016  5.740290 -5.518464
  N     4.968173  5.447301 -1.733775
  N     7.518747  8.303169 -4.472866
  N     5.520607  9.492373 -5.549860
  N     4.894088  9.130139 -1.702057
  S     7.303351  5.238267 -5.930454
  S     4.350681  5.937257 -3.176655
  S     6.569190  4.873076 -1.815386
  S     6.975963  8.801925 -6.029708
  S     4.112159  9.601406 -3.102751
  S     6.426042  8.475672 -1.921144
