16  
    
  C     5.708250  5.837057 -4.300149
  C     6.875049  5.204118 -3.730295
  C     5.554936  9.363694 -4.344390
  C     6.668751  8.712620 -3.679427
  N     7.818977  4.909818 -4.609213
  N     5.854505  6.028706 -5.599273
  N     5.213453  5.602307 -1.831260
  N     7.686963  8.449371 -4.465125
  N     5.784636  9.732342 -5.570317
  N     4.846751  9.222710 -1.908087
  S     7.321882  5.431038 -6.111109
  S     4.428422  6.077344 -3.226004
  S     6.750304  5.118661 -2.034348
  S     7.286569  9.082726 -5.971162
  S     4.217498  9.827028 -3.336173
  S     6.454269  8.687632 -1.999223
