16  
    
  C     5.548907  6.197655 -4.485993
  C     6.730668  5.706433 -3.872807
  C     5.375274  9.960387 -4.682072
  C     6.620497  9.645826 -4.082048
  N     7.757520  5.509390 -4.722393
  N     5.641359  6.533454 -5.793696
  N     4.975120  5.815626 -1.988886
  N     7.670044  9.514809 -4.867180
  N     5.499227 10.091044 -6.003151
  N     4.854434  9.614376 -2.243258
  S     7.189089  6.076032 -6.186950
  S     4.231513  6.338767 -3.394503
  S     6.569302  5.431351 -2.151507
  S     7.069756  9.785891 -6.364778
  S     4.013079 10.022490 -3.570104
  S     6.468040  9.517520 -2.368474
