16  
    
  C     5.335113  5.735194 -4.498518
  C     6.568478  5.374558 -3.765642
  C     5.320222  9.497822 -4.337374
  C     6.597292  9.151000 -3.725908
  N     7.692148  5.202593 -4.505890
  N     5.587898  5.856172 -5.808015
  N     4.728283  5.780168 -1.968220
  N     7.573710  8.976153 -4.600957
  N     5.303076  9.436988 -5.677052
  N     4.813046  9.306498 -1.878857
  S     7.167986  5.545191 -6.041470
  S     4.021129  6.139475 -3.458380
  S     6.288639  5.227712 -2.033506
  S     6.880796  9.026196 -6.098904
  S     3.965899  9.717455 -3.225143
  S     6.388867  8.929071 -2.074316
