16  
    
  C     5.701228  5.464054 -4.423139
  C     6.940880  5.199189 -3.676743
  C     5.372185  9.333352 -4.470364
  C     6.592166  8.964083 -3.818740
  N     7.950237  4.961145 -4.477442
  N     5.790738  5.545557 -5.750993
  N     5.180922  5.404529 -1.884105
  N     7.657637  8.715274 -4.559973
  N     5.508916  9.407830 -5.805960
  N     4.900704  9.378925 -1.917304
  S     7.433354  5.282387 -6.065507
  S     4.321190  5.511511 -3.324454
  S     6.788239  4.999422 -1.946018
  S     7.164153  8.939057 -6.124148
  S     4.156330  9.793363 -3.368769
  S     6.424025  8.788609 -2.107710
