16  
    
  C     5.242170  5.825007 -4.482364
  C     6.479341  5.328665 -3.859459
  C     5.350558  9.569865 -4.533866
  C     6.519237  9.133259 -3.768862
  N     7.457046  5.189708 -4.745592
  N     5.356386  5.883212 -5.803906
  N     4.877802  5.730242 -1.947617
  N     7.503805  8.790120 -4.576820
  N     5.439650  9.581869 -5.868364
  N     4.828383  9.643059 -2.026267
  S     6.941563  5.641472 -6.233354
  S     4.066640  6.139920 -3.306256
  S     6.415998  5.251703 -2.131712
  S     7.030719  8.987137 -6.115532
  S     4.064629 10.118702 -3.484441
  S     6.342212  8.931664 -2.093432
