16  
    
  C     5.440653  6.142816 -4.326865
  C     6.606706  5.762980 -3.615662
  C     5.643194  9.591693 -4.163433
  C     6.732799  9.069621 -3.453803
  N     7.643683  5.417392 -4.372078
  N     5.575542  6.242054 -5.642373
  N     4.633882  6.037129 -1.882236
  N     7.791469  8.876638 -4.274857
  N     5.755999  9.732260 -5.492998
  N     4.861248  9.460489 -1.714094
  S     7.176424  5.749401 -5.912500
  S     4.046033  6.498175 -3.424381
  S     6.231889  5.597951 -1.939781
  S     7.284606  9.251211 -5.832684
  S     4.204616 10.009582 -3.251923
  S     6.414218  9.005456 -1.780590
