16  
    
  C     5.506710  6.049515 -4.194804
  C     6.693355  5.402041 -3.642710
  C     5.346919  9.543429 -4.349609
  C     6.638514  9.182385 -3.786313
  N     7.671932  5.401286 -4.520105
  N     5.607430  6.422354 -5.450881
  N     4.943356  5.602110 -1.745879
  N     7.644010  9.035141 -4.677455
  N     5.438241  9.682745 -5.693818
  N     4.904954  9.151838 -1.834378
  S     7.162727  5.965588 -5.960110
  S     4.181574  6.097627 -3.119793
  S     6.514395  5.098741 -1.993149
  S     7.015412  9.458444 -6.101765
  S     4.073417  9.652172 -3.230798
  S     6.562991  8.874116 -2.065979
