16  
    
  C     5.646746  5.512101 -4.381178
  C     6.844437  5.236585 -3.689568
  C     5.605012  9.616164 -4.244627
  C     6.774275  9.088936 -3.608849
  N     7.901161  4.963746 -4.428523
  N     5.734796  5.422445 -5.670212
  N     5.005429  5.632660 -1.888039
  N     7.781811  8.810687 -4.438262
  N     5.725468  9.826932 -5.561314
  N     4.985258  9.146856 -1.787728
  S     7.332744  5.038344 -5.991223
  S     4.301514  5.696834 -3.406306
  S     6.594778  5.283142 -1.963069
  S     7.306146  9.210553 -5.955562
  S     4.179012  9.581531 -3.186282
  S     6.566406  8.758937 -1.964976
