16  
    
  C     5.348279  5.615674 -4.456434
  C     6.453831  5.037942 -3.696760
  C     5.525956  9.166008 -4.286075
  C     6.740349  8.738633 -3.642816
  N     7.583051  4.855147 -4.406466
  N     5.649747  5.827286 -5.751532
  N     4.628856  5.477173 -1.901732
  N     7.705350  8.494117 -4.545738
  N     5.521228  9.173746 -5.610444
  N     4.921025  8.867771 -1.774710
  S     7.140848  5.219103 -6.010462
  S     3.939052  5.847354 -3.415483
  S     6.205642  4.955685 -1.934808
  S     7.102898  8.789288 -6.033572
  S     4.205494  9.361857 -3.182822
  S     6.549400  8.657114 -1.852275
