16  
    
  C     5.309122  6.303814 -4.464207
  C     6.423773  5.784454 -3.727261
  C     5.398549  9.989167 -4.187871
  C     6.723847  9.710360 -3.596547
  N     7.520693  5.657702 -4.531833
  N     5.481425  6.443395 -5.763199
  N     4.484537  6.036049 -2.079436
  N     7.761151  9.750278 -4.440217
  N     5.464974 10.362501 -5.492060
  N     4.966906  9.595152 -1.687188
  S     7.100374  6.066448 -6.009120
  S     3.926918  6.700009 -3.528572
  S     6.073183  5.536150 -2.031051
  S     7.082110 10.149596 -5.937330
  S     4.057477  9.830077 -3.039717
  S     6.677230  9.389771 -1.888664
