16  
    
  C     5.500102  6.037186 -4.189508
  C     6.572988  5.239662 -3.615428
  C     5.656433  9.913716 -4.452345
  C     6.784041  9.194771 -3.845848
  N     7.508281  4.928061 -4.489579
  N     5.644414  6.273127 -5.493877
  N     4.990822  5.828127 -1.735815
  N     7.853485  8.974888 -4.625139
  N     5.960266 10.357823 -5.643788
  N     4.676243  9.100453 -2.289610
  S     7.060778  5.556757 -5.981870
  S     4.139859  6.197395 -3.122423
  S     6.417502  4.983084 -1.962537
  S     7.462579  9.678071 -6.089448
  S     4.170645 10.011881 -3.637500
  S     6.292989  8.671881 -2.211756
