16  
    
  C     5.478978  6.157484 -4.408133
  C     6.681144  5.733228 -3.736184
  C     5.461147  9.659675 -4.331624
  C     6.701686  9.308718 -3.660271
  N     7.735940  5.491791 -4.526477
  N     5.591723  6.249558 -5.746735
  N     4.826173  5.983094 -1.844338
  N     7.732334  9.194690 -4.447451
  N     5.589171  9.854798 -5.644180
  N     4.863733  9.348442 -1.772040
  S     7.110157  5.776826 -6.091673
  S     4.120911  6.480786 -3.259565
  S     6.458939  5.605140 -1.974889
  S     7.207704  9.602651 -5.972824
  S     4.084991  9.569912 -3.172099
  S     6.539693  9.020952 -2.043882
