16  
    
  C     5.751430  5.355258 -4.281757
  C     6.944584  4.875924 -3.603112
  C     5.641431  9.473927 -4.491917
  C     6.730103  8.859936 -3.776581
  N     7.916989  4.712178 -4.480446
  N     5.809936  5.487969 -5.604363
  N     5.175893  5.341421 -1.770292
  N     7.856592  8.742062 -4.506860
  N     5.918154  9.729340 -5.772634
  N     4.844365  9.102366 -2.055515
  S     7.356765  5.085220 -6.012141
  S     4.384816  5.491022 -3.201186
  S     6.818545  4.953042 -1.837179
  S     7.491144  9.278920 -5.999958
  S     4.232517  9.682984 -3.486627
  S     6.454323  8.728507 -2.033916
