16  
    
  C     5.382828  5.569899 -4.416704
  C     6.569542  5.205579 -3.679716
  C     5.478479  9.025106 -4.205287
  C     6.774545  8.891399 -3.581875
  N     7.638915  4.907607 -4.386931
  N     5.584861  5.625191 -5.723540
  N     4.708584  5.728600 -1.969829
  N     7.770494  8.752039 -4.429678
  N     5.509114  8.969884 -5.548392
  N     5.119211  9.162569 -1.700986
  S     7.170669  5.306802 -5.959239
  S     4.007563  5.859628 -3.487185
  S     6.210670  5.086957 -1.980000
  S     7.147631  8.695916 -5.905844
  S     4.179377  9.369916 -3.067398
  S     6.738922  8.890699 -1.877136
