16  
    
  C     5.476726  5.814410 -4.365839
  C     6.577383  5.220765 -3.647014
  C     5.700781  9.233292 -4.224652
  C     6.949071  8.881639 -3.594617
  N     7.637953  4.994342 -4.410301
  N     5.784879  6.148178 -5.624988
  N     4.717715  5.631518 -1.905421
  N     7.964671  8.779867 -4.453897
  N     5.770080  9.438912 -5.539725
  N     5.263346  8.834782 -1.719277
  S     7.293639  5.545948 -5.974900
  S     4.087316  5.954190 -3.406226
  S     6.269854  5.050197 -1.927377
  S     7.446778  9.168307 -5.935974
  S     4.383998  9.051891 -3.094890
  S     6.877680  8.619727 -1.857508
