16  
    
  C     5.789626  5.796205 -3.979552
  C     6.899331  4.964944 -3.470461
  C     5.644852  9.649468 -4.168091
  C     6.825895  8.985309 -3.726130
  N     7.939006  4.872029 -4.289892
  N     6.060610  6.294851 -5.190893
  N     5.175366  5.118172 -1.570160
  N     7.843865  9.020799 -4.592144
  N     5.695330 10.106145 -5.400720
  N     5.172718  8.926308 -1.767807
  S     7.574756  5.654488 -5.655709
  S     4.389661  5.768370 -2.913751
  S     6.749734  4.593970 -1.768243
  S     7.267610  9.822398 -5.909952
  S     4.391172  9.651607 -3.006854
  S     6.733010  8.472152 -2.062154
