16  
    
  C     5.379964  6.044637 -4.416458
  C     6.594165  5.653288 -3.759021
  C     5.610571  9.702203 -4.346660
  C     6.753193  9.102951 -3.657217
  N     7.650741  5.448405 -4.570176
  N     5.508434  6.159411 -5.741464
  N     4.769506  5.930631 -1.900387
  N     7.819910  8.801637 -4.425593
  N     5.821497  9.833526 -5.675444
  N     5.001423  9.375357 -1.794841
  S     7.134476  5.795253 -6.026298
  S     4.079684  6.431175 -3.335527
  S     6.324912  5.394507 -2.002991
  S     7.410384  9.372879 -5.958099
  S     4.298704  9.852190 -3.299997
  S     6.558407  8.887688 -1.916872
