16  
    
  C     5.617521  5.491541 -4.197853
  C     6.858281  5.342727 -3.557275
  C     5.623418  9.258332 -4.184363
  C     6.904315  9.057296 -3.549176
  N     7.911308  5.141275 -4.352282
  N     5.618048  5.392642 -5.532912
  N     5.183032  5.790449 -1.664020
  N     7.905586  9.073947 -4.401611
  N     5.699742  9.483927 -5.508190
  N     5.120727  8.798584 -1.721299
  S     7.236090  5.276518 -5.890883
  S     4.339030  5.717233 -3.082877
  S     6.761545  5.398420 -1.847357
  S     7.298763  9.375319 -5.910631
  S     4.271687  9.007104 -3.162271
  S     6.799626  8.948803 -1.799839
