16  
    
  C     5.379254  6.408678 -4.481746
  C     6.518925  5.868683 -3.765704
  C     5.518333 10.050217 -4.293459
  C     6.746064  9.763904 -3.611967
  N     7.535745  5.651484 -4.544440
  N     5.583707  6.600142 -5.777508
  N     4.614660  6.216437 -2.005913
  N     7.787086  9.839407 -4.434915
  N     5.497352 10.272244 -5.605171
  N     4.940604  9.832979 -1.774586
  S     7.152700  6.039027 -6.071760
  S     3.976013  6.826069 -3.451324
  S     6.183996  5.710911 -2.076259
  S     7.141859 10.170040 -5.968040
  S     4.156725 10.071795 -3.192442
  S     6.559862  9.412732 -1.914210
