16  
    
  C     5.612329  5.877152 -4.418660
  C     6.799613  5.308599 -3.750438
  C     5.695297  9.549729 -4.252998
  C     6.864288  9.037376 -3.566232
  N     7.782854  5.002145 -4.570397
  N     5.683382  5.875710 -5.757609
  N     4.993958  5.577523 -1.938221
  N     7.887910  8.685994 -4.325781
  N     5.861207  9.659624 -5.554847
  N     5.067613  9.387941 -1.761941
  S     7.265200  5.413055 -6.073370
  S     4.343996  6.210756 -3.317320
  S     6.535798  4.978796 -2.075110
  S     7.318806  9.033199 -5.923006
  S     4.310963  9.842569 -3.195231
  S     6.552889  8.675982 -1.939987
