16  
    
  C     5.577782  5.695562 -4.354987
  C     6.809669  5.371482 -3.768776
  C     5.551609  9.491775 -4.291529
  C     6.818377  9.080796 -3.702509
  N     7.906978  5.446329 -4.550281
  N     5.654964  5.987138 -5.664991
  N     5.065778  5.319864 -1.866795
  N     7.770764  9.025696 -4.585496
  N     5.516552  9.665972 -5.606415
  N     5.087492  9.482031 -1.762879
  S     7.252385  5.797097 -6.026277
  S     4.279839  5.681528 -3.242140
  S     6.678296  5.023668 -2.072557
  S     7.124219  9.388595 -6.079727
  S     4.267967  9.693350 -3.187097
  S     6.699964  9.010065 -1.938607
