16  
    
  C     5.542215  5.696843 -4.348321
  C     6.832207  5.333637 -3.728476
  C     5.537010  9.482127 -4.338226
  C     6.789384  9.106084 -3.704885
  N     7.914001  5.436227 -4.502419
  N     5.654152  6.030974 -5.626156
  N     5.079792  5.307661 -1.865249
  N     7.804776  9.029259 -4.559822
  N     5.538884  9.621113 -5.664690
  N     5.109558  9.476396 -1.778996
  S     7.254671  5.772331 -6.029707
  S     4.287993  5.734486 -3.241979
  S     6.673810  5.005309 -2.016581
  S     7.134162  9.353385 -6.099722
  S     4.296987  9.718421 -3.193677
  S     6.734557  8.989488 -1.948810
