16  
    
  C     5.449541  6.134241 -4.326147
  C     6.604266  5.767832 -3.614905
  C     5.647035  9.586891 -4.161147
  C     6.739145  9.063986 -3.462151
  N     7.643634  5.422791 -4.373575
  N     5.581963  6.234507 -5.641241
  N     4.639551  6.041235 -1.879059
  N     7.802236  8.880510 -4.276901
  N     5.757591  9.732633 -5.491136
  N     4.859966  9.452767 -1.715835
  S     7.184672  5.749498 -5.917878
  S     4.049949  6.495349 -3.425992
  S     6.229911  5.598926 -1.939914
  S     7.284419  9.248867 -5.831479
  S     4.201292 10.008097 -3.258257
  S     6.413788  9.007895 -1.775550
