16  
    
  C     5.385321  6.095274 -4.431128
  C     6.548277  5.584407 -3.700500
  C     5.640337  9.560947 -4.207647
  C     6.807157  9.074192 -3.551448
  N     7.590359  5.409111 -4.439203
  N     5.570262  6.256001 -5.717486
  N     4.711286  5.896833 -2.007291
  N     7.836148  8.885170 -4.413434
  N     5.786895  9.833112 -5.502632
  N     4.872799  9.412394 -1.800182
  S     7.090841  5.841396 -6.081650
  S     4.033410  6.458255 -3.421781
  S     6.324974  5.435292 -1.996083
  S     7.335691  9.414967 -5.912113
  S     4.188211  9.749844 -3.228802
  S     6.525975  8.909017 -1.843594
