16  
    
  C     5.452884  5.656374 -4.211826
  C     6.653268  5.276208 -3.472834
  C     5.866754  8.981098 -3.977355
  C     7.090713  8.513181 -3.385655
  N     7.675744  4.944659 -4.253917
  N     5.629545  5.509541 -5.519603
  N     4.847037  5.796530 -1.788922
  N     8.090687  8.515730 -4.243106
  N     5.915505  9.227627 -5.301119
  N     5.330073  8.387792 -1.502199
  S     7.189665  5.128765 -5.826612
  S     4.072730  6.012490 -3.270675
  S     6.343597  5.069938 -1.768773
  S     7.469551  8.999257 -5.714123
  S     4.596473  9.108708 -2.791271
  S     7.011934  8.282246 -1.642368
