16  
    
  C     5.565101  5.707582 -4.237264
  C     6.773162  5.143326 -3.625234
  C     5.449885  9.162848 -4.189592
  C     6.642425  8.802358 -3.481428
  N     7.778419  4.854396 -4.439843
  N     5.697310  5.783183 -5.550928
  N     4.968958  5.659627 -1.738638
  N     7.708083  8.716656 -4.258383
  N     5.590472  9.299552 -5.500059
  N     4.842888  9.049181 -1.691393
  S     7.217024  5.327415 -5.996811
  S     4.285624  6.142898 -3.196906
  S     6.435495  4.817718 -1.905385
  S     7.196345  9.073240 -5.832970
  S     4.133414  9.475280 -3.106323
  S     6.434088  8.569029 -1.814040
