16  
    
  C     5.704887  5.726179 -4.199409
  C     6.850741  5.038710 -3.606875
  C     5.446776  9.310070 -4.212641
  C     6.561865  8.673981 -3.599773
  N     7.770493  4.647849 -4.481660
  N     5.842897  5.871002 -5.508002
  N     5.030673  5.454907 -1.761983
  N     7.509333  8.306753 -4.472992
  N     5.562426  9.486405 -5.534692
  N     4.865543  9.083687 -1.691068
  S     7.333853  5.271540 -5.937391
  S     4.297974  6.027548 -3.186726
  S     6.568305  4.950170 -1.836727
  S     7.003379  8.781737 -5.927200
  S     4.097994  9.531701 -3.104404
  S     6.394546  8.514443 -1.900818
