16  
    
  C     5.370574  6.504369 -4.500197
  C     6.490266  5.879826 -3.789714
  C     5.443757 10.036276 -4.302802
  C     6.739172  9.777017 -3.629636
  N     7.570198  5.630507 -4.581008
  N     5.594989  6.650762 -5.794356
  N     4.673611  6.296301 -1.995868
  N     7.807106  9.852236 -4.435890
  N     5.575749 10.302400 -5.638344
  N     4.990584  9.856537 -1.776358
  S     7.167377  6.035273 -6.068293
  S     3.973200  6.837187 -3.449076
  S     6.242534  5.743225 -2.083302
  S     7.169382 10.120392 -5.968831
  S     4.126337 10.128914 -3.247199
  S     6.562996  9.411154 -1.918288
