16  
    
  C     5.492770  5.851225 -4.335534
  C     6.729276  5.270246 -3.765930
  C     5.719996  9.308548 -4.380414
  C     6.940062  8.905222 -3.725268
  N     7.683311  4.960829 -4.620826
  N     5.635007  6.108489 -5.653639
  N     5.049406  5.372842 -1.887235
  N     7.906338  8.553381 -4.553127
  N     5.798431  9.418124 -5.707223
  N     5.060891  9.065656 -1.929559
  S     7.014788  5.323062 -6.102484
  S     4.270014  6.140621 -3.144238
  S     6.644206  4.934379 -2.063718
  S     7.311759  8.939560 -6.123149
  S     4.331451  9.391519 -3.367813
  S     6.704921  8.696697 -2.006657
