16  
    
  C     5.510589  5.887247 -4.401221
  C     6.718200  5.645913 -3.693251
  C     5.638513  8.934562 -4.160067
  C     6.910033  8.707301 -3.536160
  N     7.776177  5.527310 -4.483867
  N     5.642066  5.950804 -5.698145
  N     4.848001  5.686241 -1.947989
  N     7.929514  8.755666 -4.380016
  N     5.676470  9.175475 -5.479117
  N     5.199095  8.815023 -1.585865
  S     7.260674  5.804627 -6.062891
  S     4.099182  5.930576 -3.382671
  S     6.480906  5.344680 -2.008677
  S     7.373916  9.174176 -5.857775
  S     4.287578  9.012568 -2.973437
  S     6.761015  8.463242 -1.850583
