16  
    
  C     5.461028  5.739320 -4.291407
  C     6.632911  5.096601 -3.637487
  C     5.506526  9.740933 -4.617293
  C     6.676408  9.177933 -3.965698
  N     7.636056  4.871281 -4.477395
  N     5.627129  5.917095 -5.585284
  N     4.784407  5.408954 -1.914912
  N     7.801332  9.186214 -4.691849
  N     5.786223 10.092127 -5.871032
  N     4.736964  9.234036 -2.204822
  S     7.192760  5.451952 -5.970621
  S     4.187578  6.150001 -3.235658
  S     6.305920  4.806677 -1.975707
  S     7.350045  9.784017 -6.179914
  S     4.118765 10.036911 -3.517873
  S     6.327957  8.676683 -2.342714
