16  
    
  C     5.512019  6.016896 -4.376672
  C     6.730307  5.687402 -3.763762
  C     5.559453  9.374521 -4.479889
  C     6.831509  9.161148 -3.819993
  N     7.713935  5.461790 -4.600462
  N     5.577832  6.121456 -5.691019
  N     4.964034  5.766438 -1.928472
  N     7.889865  9.161257 -4.622800
  N     5.684328  9.532512 -5.779838
  N     5.020837  9.319777 -1.974428
  S     7.169182  5.757914 -6.074674
  S     4.162574  6.171817 -3.319829
  S     6.626479  5.601828 -2.080892
  S     7.335608  9.344021 -6.153900
  S     4.129943  9.433048 -3.356051
  S     6.680590  8.934117 -2.107999
