16  
    
  C     5.661770  5.892333 -4.376458
  C     6.865609  5.383861 -3.737975
  C     5.498142  9.414520 -4.695593
  C     6.728178  9.128592 -3.996951
  N     7.830549  5.137913 -4.604870
  N     5.666373  5.969699 -5.713532
  N     5.220284  5.684557 -1.800556
  N     7.886062  9.270271 -4.708658
  N     5.744045  9.796826 -5.932327
  N     4.881657  9.163056 -2.204187
  S     7.197057  5.458157 -6.123632
  S     4.369807  5.990467 -3.195002
  S     6.731106  5.010681 -2.039559
  S     7.410561  9.784400 -6.188102
  S     4.151021  9.543735 -3.612446
  S     6.522397  8.962165 -2.216684
