16  
    
  C     5.622573  5.797857 -4.374047
  C     6.821077  5.228425 -3.806461
  C     5.270823  9.868168 -4.684629
  C     6.407368  9.294909 -3.989794
  N     7.839604  5.078912 -4.663147
  N     5.648470  5.915775 -5.706901
  N     5.201097  5.497049 -1.808584
  N     7.326393  8.885904 -4.795237
  N     5.369645  9.928116 -6.008795
  N     4.776468  9.747546 -2.119141
  S     7.196897  5.513705 -6.127022
  S     4.342776  6.041413 -3.179771
  S     6.756400  4.985922 -2.121374
  S     6.934738  9.319677 -6.352749
  S     4.064817 10.376136 -3.484249
  S     6.288854  9.108927 -2.291489
