16  
    
  C     5.588926  5.981016 -4.540222
  C     6.816204  5.508957 -3.877581
  C     5.581129  9.828978 -4.385034
  C     6.733971  9.281802 -3.739453
  N     7.873843  5.357374 -4.669592
  N     5.756072  6.222687 -5.843831
  N     5.024677  5.762958 -2.027965
  N     7.751298  9.059685 -4.569785
  N     5.758861 10.047152 -5.694909
  N     5.022790  9.274469 -1.871924
  S     7.337671  5.761672 -6.140018
  S     4.182643  6.155562 -3.489038
  S     6.598170  5.218749 -2.156978
  S     7.346317  9.684732 -6.035642
  S     4.135285  9.903177 -3.225128
  S     6.554310  8.883636 -2.097227
