16  
    
  C     5.582940  6.212760 -4.363766
  C     6.710109  5.653667 -3.633352
  C     5.439499  9.597685 -4.278567
  C     6.679905  9.296352 -3.615702
  N     7.737576  5.376706 -4.423744
  N     5.724550  6.259746 -5.681327
  N     4.830426  5.852682 -1.937893
  N     7.701419  9.291795 -4.512017
  N     5.455522  9.937087 -5.590788
  N     4.865245  9.542853 -1.808998
  S     7.258773  5.754401 -5.998189
  S     4.148629  6.384118 -3.398330
  S     6.509800  5.625306 -1.947593
  S     7.058898  9.670235 -6.000290
  S     4.064005  9.578917 -3.229921
  S     6.530483  9.002374 -1.863712
