16  
    
  C     5.607641  5.608289 -4.409560
  C     6.882632  5.238269 -3.779036
  C     5.747741  9.547984 -4.003351
  C     6.945461  8.955491 -3.444216
  N     7.932104  5.183488 -4.601610
  N     5.719461  5.787218 -5.696817
  N     5.117800  5.500709 -1.917439
  N     7.926887  8.838963 -4.337006
  N     5.784385  9.855995 -5.302704
  N     5.311257  8.789988 -1.522210
  S     7.302372  5.537230 -6.147575
  S     4.293238  5.887187 -3.320194
  S     6.807801  5.215171 -2.015785
  S     7.397187  9.406480 -5.800874
  S     4.528140  9.635080 -2.733357
  S     6.895695  8.465092 -1.797759
