16  
    
  C     5.583187  6.163284 -4.417724
  C     6.827535  5.741857 -3.711828
  C     5.656397  9.621213 -4.397037
  C     6.857313  9.229052 -3.725949
  N     7.847772  5.610953 -4.557158
  N     5.711021  6.176620 -5.752607
  N     4.918986  6.027608 -2.021351
  N     7.876662  8.946619 -4.562501
  N     5.719434  9.687600 -5.720474
  N     4.945691  9.621895 -1.923587
  S     7.298749  5.800827 -6.041950
  S     4.189984  6.506976 -3.423573
  S     6.580416  5.660962 -1.982040
  S     7.293078  9.336249 -6.091057
  S     4.224207  9.880449 -3.397151
  S     6.520491  9.005720 -1.988733
