16  
    
  C     5.109960  6.256118 -4.352123
  C     6.250363  5.691445 -3.596443
  C     5.765551  9.651382 -4.227982
  C     6.955396  9.101871 -3.633855
  N     7.340577  5.434989 -4.331496
  N     5.357671  6.485018 -5.648697
  N     4.431528  6.133441 -1.891030
  N     7.989336  8.895642 -4.398313
  N     5.831891  9.726442 -5.524773
  N     5.430222  9.518965 -1.640269
  S     6.871994  5.947457 -5.869816
  S     3.874016  6.738088 -3.287335
  S     5.905826  5.355716 -1.946177
  S     7.403207  9.250175 -5.954424
  S     4.587592  9.963524 -3.005730
  S     6.879501  8.854680 -1.894495
