16  
    
  C     5.468990  5.830668 -4.540235
  C     6.706646  5.544206 -3.855954
  C     5.586263  9.357502 -4.155539
  C     6.795689  8.969385 -3.506062
  N     7.777315  5.480459 -4.659045
  N     5.553971  5.924015 -5.886315
  N     4.927740  5.735450 -1.977889
  N     7.873411  8.904138 -4.292013
  N     5.730028  9.469542 -5.492426
  N     5.131803  9.279803 -1.679729
  S     7.156299  5.552578 -6.168813
  S     4.201303  6.190026 -3.405480
  S     6.551520  5.374048 -2.084311
  S     7.286608  9.239810 -5.833646
  S     4.264206  9.524661 -3.064186
  S     6.719929  8.827498 -1.782424
