16  
    
  C     5.662541  5.692741 -4.410855
  C     6.896541  5.369625 -3.796437
  C     5.151534  9.662911 -4.445906
  C     6.357172  9.158767 -3.841125
  N     7.871517  5.316860 -4.677491
  N     5.656910  5.735846 -5.736568
  N     5.222207  5.632798 -1.860611
  N     7.394074  8.935899 -4.663038
  N     5.286489  9.767201 -5.768943
  N     4.894973  9.630887 -1.830344
  S     7.239096  5.422376 -6.211189
  S     4.380567  5.892891 -3.293437
  S     6.839100  5.136773 -2.086446
  S     6.851920  9.381607 -6.130054
  S     4.066511 10.142128 -3.182250
  S     6.431228  9.094290 -2.080154
