16  
    
  C     5.549930  6.202353 -4.391912
  C     6.730063  5.626501 -3.811664
  C     5.420795  9.791963 -4.255338
  C     6.613376  9.229400 -3.577952
  N     7.715123  5.432270 -4.671271
  N     5.685489  6.493345 -5.698023
  N     4.986975  5.661803 -1.950925
  N     7.589814  8.970363 -4.428612
  N     5.536537  9.965860 -5.596257
  N     4.931125  9.614234 -1.695620
  S     7.213774  6.000316 -6.176418
  S     4.225673  6.374041 -3.205866
  S     6.593687  5.180375 -2.148591
  S     7.100859  9.409469 -5.939666
  S     4.134079 10.018860 -3.064528
  S     6.545479  9.046155 -1.840729
