16  
    
  C     5.528136  5.864025 -4.467477
  C     6.670933  5.306252 -3.773152
  C     5.552948  9.493666 -4.100535
  C     6.765741  8.945855 -3.594781
  N     7.724494  4.996767 -4.571316
  N     5.724902  6.192773 -5.744805
  N     4.751502  5.720059 -1.968504
  N     7.625456  8.731517 -4.586912
  N     5.475399  9.670321 -5.408400
  N     4.987355  9.202870 -1.645703
  S     7.244094  5.573105 -6.074774
  S     4.135224  6.142432 -3.449172
  S     6.336196  5.120135 -2.048606
  S     6.966593  9.349909 -6.013345
  S     4.232638  9.667283 -2.991408
  S     6.703209  8.785783 -1.824282
