16  
    
  C     5.658682  5.845870 -3.921467
  C     6.861832  5.186667 -3.438985
  C     5.643235  9.606381 -3.927133
  C     6.871632  9.059704 -3.427436
  N     7.892823  5.238933 -4.290319
  N     5.787252  6.366436 -5.141735
  N     5.067959  4.958147 -1.527236
  N     7.836093  8.908289 -4.338347
  N     5.675087  9.833641 -5.241847
  N     5.022626  8.933852 -1.563584
  S     7.349986  5.876860 -5.652036
  S     4.359768  5.853018 -2.722557
  S     6.662021  4.580164 -1.888155
  S     7.208922  9.436026 -5.784533
  S     4.308816  9.710178 -2.830661
  S     6.645630  8.514501 -1.757490
