16  
    
  C     5.404285  5.986217 -4.472756
  C     6.705916  5.666540 -3.877953
  C     5.300801  9.898868 -4.673602
  C     6.577157  9.615022 -4.019615
  N     7.745013  5.607930 -4.700987
  N     5.520073  6.264307 -5.792670
  N     4.965797  5.716367 -1.946898
  N     7.655238  9.679534 -4.861828
  N     5.438540 10.073015 -5.999465
  N     4.746215  9.512335 -2.246691
  S     7.099762  5.953933 -6.186998
  S     4.093106  6.051872 -3.339266
  S     6.500504  5.180626 -2.186677
  S     7.021119  9.896434 -6.374179
  S     3.970715 10.008293 -3.640622
  S     6.347463  9.352442 -2.273060
