16  
    
  C     5.735196  5.601546 -4.260003
  C     6.965047  5.294643 -3.572663
  C     5.180265  9.890573 -4.651859
  C     6.268539  9.300656 -3.939529
  N     7.982917  4.980442 -4.338402
  N     5.879110  5.699933 -5.591432
  N     5.192312  5.644609 -1.818558
  N     7.291309  8.962344 -4.686776
  N     5.350545  9.963499 -5.957428
  N     4.504699  9.753009 -2.122738
  S     7.406647  5.281362 -6.000281
  S     4.359306  5.766388 -3.244373
  S     6.793246  5.222904 -1.860698
  S     6.902344  9.325214 -6.269469
  S     3.776907 10.217101 -3.619430
  S     6.041617  9.155054 -2.229791
