16  
    
  C     5.889960  6.009839 -4.436160
  C     7.049410  5.586453 -3.702919
  C     5.650544  9.514380 -4.404772
  C     6.875878  9.161073 -3.749574
  N     8.073092  5.241688 -4.457024
  N     6.100615  6.061373 -5.733212
  N     5.099372  5.591484 -2.018125
  N     7.889527  9.051529 -4.604651
  N     5.760810  9.723390 -5.741412
  N     5.105725  9.239870 -1.847158
  S     7.682273  5.629087 -6.051898
  S     4.469319  6.175289 -3.461411
  S     6.750839  5.430696 -1.971203
  S     7.297537  9.409402 -6.132951
  S     4.367855  9.754292 -3.272331
  S     6.724065  8.843450 -1.987159
