16  
    
  C     5.480604  5.760777 -4.380613
  C     6.690617  5.385184 -3.672436
  C     5.654522  9.069026 -4.170445
  C     6.904495  8.874735 -3.491281
  N     7.679771  5.041011 -4.477788
  N     5.555495  5.672213 -5.693707
  N     4.770320  5.520153 -1.969139
  N     7.924062  8.641756 -4.300437
  N     5.689279  9.037462 -5.487463
  N     5.208409  9.352250 -1.662056
  S     7.161236  5.196831 -6.017384
  S     4.116876  5.982709 -3.445635
  S     6.401661  5.321178 -1.970695
  S     7.289714  8.685336 -5.867315
  S     4.351327  9.317841 -3.100941
  S     6.872787  9.093005 -1.787144
