16  
    
  C     5.524807  6.129643 -4.338537
  C     6.636779  5.466995 -3.615974
  C     5.713692  9.578558 -4.200544
  C     6.866767  9.008030 -3.589427
  N     7.696995  5.214161 -4.406692
  N     5.722685  6.224873 -5.662883
  N     4.675826  5.651733 -1.953724
  N     7.883825  8.742118 -4.387754
  N     5.877682  9.871169 -5.466743
  N     5.201930  9.595288 -1.703387
  S     7.254373  5.718916 -5.927163
  S     4.077799  6.322278 -3.343233
  S     6.288418  5.163135 -1.946548
  S     7.339239  9.273460 -5.940168
  S     4.366615  9.930408 -3.155430
  S     6.719552  8.813038 -1.871543
