16  
    
  C     5.077306  5.987302 -4.328472
  C     6.328690  5.569406 -3.630976
  C     5.495783  9.444980 -4.017615
  C     6.710142  8.992599 -3.410461
  N     7.428855  5.439358 -4.381898
  N     5.187930  5.978934 -5.657723
  N     4.529032  5.848145 -1.780667
  N     7.674198  8.722204 -4.297409
  N     5.499415  9.477883 -5.372817
  N     5.247234  9.604782 -1.526838
  S     6.788952  5.684528 -5.940722
  S     3.826311  6.343557 -3.232962
  S     6.123103  5.559770 -1.902687
  S     7.026669  9.009584 -5.776241
  S     4.363463  9.991316 -2.832736
  S     6.618918  8.719643 -1.783282
