16  
    
  C     5.477874  5.915069 -4.502792
  C     6.708432  5.554788 -3.820333
  C     5.635646  9.294638 -4.164070
  C     6.882811  9.017407 -3.511850
  N     7.739306  5.348728 -4.609547
  N     5.581553  5.859817 -5.830679
  N     4.887559  5.787963 -1.957851
  N     7.921565  8.928775 -4.369735
  N     5.665018  9.392849 -5.490517
  N     5.127108  9.492870 -1.646717
  S     7.175022  5.509141 -6.201607
  S     4.183978  6.296232 -3.388420
  S     6.505932  5.363277 -2.085736
  S     7.348696  9.352403 -5.845443
  S     4.307759  9.630184 -3.095390
  S     6.672230  8.861715 -1.812857
