16  
    
  C     5.515459  5.805788 -4.556794
  C     6.751796  5.542329 -3.898775
  C     5.163959  9.426111 -4.461876
  C     6.337084  9.104497 -3.682346
  N     7.881854  5.490598 -4.632981
  N     5.642320  5.851167 -5.897244
  N     4.852967  5.610838 -2.042518
  N     7.369551  8.761652 -4.454151
  N     5.257222  9.358808 -5.776774
  N     4.603146  9.998649 -2.040388
  S     7.273388  5.677558 -6.152160
  S     4.120352  5.959018 -3.482125
  S     6.560494  5.352836 -2.135353
  S     6.834104  9.019168 -6.067670
  S     3.877315 10.204160 -3.516895
  S     6.123991  9.281901 -1.975717
