16  
    
  C     5.607359  5.742322 -4.343243
  C     6.872575  5.306091 -3.760499
  C     5.481672  9.387027 -4.678480
  C     6.686741  9.159264 -3.955273
  N     7.883872  5.182958 -4.600542
  N     5.661711  5.914450 -5.642727
  N     5.174419  5.733260 -1.831407
  N     7.838097  9.274403 -4.652621
  N     5.675771  9.566766 -5.975482
  N     4.846340  9.285859 -2.150092
  S     7.196866  5.452082 -6.139023
  S     4.283620  6.063105 -3.225555
  S     6.712614  5.111944 -2.037849
  S     7.278664  9.678164 -6.214041
  S     4.135000  9.614138 -3.625259
  S     6.488593  8.970476 -2.275455
