16  
    
  C     5.540268  5.870329 -4.500909
  C     6.717983  5.349175 -3.783077
  C     5.451305  9.743354 -4.221023
  C     6.652587  9.162431 -3.711866
  N     7.758112  5.060640 -4.595414
  N     5.738976  6.131129 -5.786960
  N     4.884042  5.617007 -2.008004
  N     7.683814  9.054265 -4.527562
  N     5.603025 10.017344 -5.525278
  N     5.134281  9.226172 -1.629406
  S     7.277511  5.550077 -6.045206
  S     4.221749  6.156283 -3.482872
  S     6.452024  5.119236 -2.136669
  S     7.125636  9.459545 -6.000981
  S     4.248727  9.795536 -2.960545
  S     6.692555  8.747182 -2.005628
