16  
    
  C     5.849776  5.502459 -4.304241
  C     7.074735  5.170731 -3.689617
  C     5.452714  9.403429 -4.451609
  C     6.596315  8.803329 -3.789199
  N     8.138104  5.158062 -4.526089
  N     5.835461  5.704183 -5.636555
  N     5.268720  5.225220 -1.760766
  N     7.625308  8.448812 -4.567357
  N     5.608274  9.433430 -5.746294
  N     4.931780  9.528474 -1.931282
  S     7.384522  5.363512 -6.069067
  S     4.466111  5.544466 -3.205692
  S     6.861594  4.955810 -2.007960
  S     7.087468  8.833729 -6.134051
  S     4.106751  9.741557 -3.390633
  S     6.399167  8.710851 -2.027804
