16  
    
  C     5.730169  5.431842 -4.232075
  C     6.996425  4.979229 -3.529989
  C     5.382434  9.366286 -4.678758
  C     6.567333  8.922190 -3.962314
  N     8.067090  4.905410 -4.318880
  N     5.896775  5.689079 -5.541247
  N     5.100079  5.219371 -1.725672
  N     7.659792  8.749298 -4.718508
  N     5.545721  9.346385 -6.025729
  N     4.802236  9.117589 -2.092445
  S     7.478322  5.291469 -5.832639
  S     4.350374  5.660839 -3.166938
  S     6.690044  4.719175 -1.823651
  S     7.148338  9.044392 -6.297804
  S     4.115880  9.727983 -3.514789
  S     6.421236  8.670350 -2.228921
