16  
    
  C     5.192443  6.204189 -4.312453
  C     6.372401  5.776847 -3.603617
  C     5.645497  9.576748 -4.062615
  C     6.845755  9.010847 -3.517042
  N     7.458510  5.484524 -4.330280
  N     5.298743  6.124569 -5.647123
  N     4.475716  5.859152 -1.833656
  N     7.770816  8.676156 -4.392085
  N     5.693167  9.701176 -5.371968
  N     5.175587  9.505091 -1.483602
  S     6.897046  5.733347 -5.933517
  S     3.752090  6.492734 -3.260479
  S     6.099410  5.598826 -1.862520
  S     7.131211  9.024350 -5.890645
  S     4.402420  9.929841 -2.862482
  S     6.698303  8.882163 -1.737373
