16  
    
  C     5.664462  5.886969 -4.181397
  C     6.815673  5.266050 -3.568439
  C     5.672230  9.537882 -4.458416
  C     6.902934  9.138364 -3.822320
  N     7.816802  4.999669 -4.380001
  N     5.750962  6.107868 -5.481979
  N     5.047853  5.392196 -1.736213
  N     7.949624  8.905629 -4.653431
  N     5.727838  9.520022 -5.792380
  N     5.183476  9.199630 -1.922116
  S     7.320007  5.617922 -5.888922
  S     4.344288  6.081960 -3.048076
  S     6.571844  4.931121 -1.942471
  S     7.255679  9.105360 -6.211985
  S     4.420571  9.889051 -3.245043
  S     6.788249  8.907510 -2.136062
