16  
    
  C     5.506071  5.730148 -4.391993
  C     6.681866  5.398976 -3.650418
  C     5.638925  9.087566 -4.200929
  C     6.895457  8.918470 -3.525494
  N     7.666213  5.045854 -4.478781
  N     5.577085  5.746624 -5.705404
  N     4.813157  5.521041 -1.983062
  N     7.914797  8.610747 -4.318330
  N     5.714800  9.052791 -5.511344
  N     5.209077  9.344424 -1.665640
  S     7.131843  5.189314 -6.024184
  S     4.106370  5.982375 -3.452168
  S     6.443460  5.316800 -1.953071
  S     7.337885  8.677850 -5.839849
  S     4.370951  9.331574 -3.095583
  S     6.865572  9.080351 -1.795981
