16  
    
  C     5.599173  5.847347 -4.453982
  C     6.835703  5.452461 -3.831074
  C     5.674018  9.484522 -4.235412
  C     6.951679  9.153191 -3.656183
  N     7.819362  5.457611 -4.708793
  N     5.660035  6.065061 -5.744477
  N     5.134781  5.437901 -1.993313
  N     7.987256  9.220721 -4.496748
  N     5.747481  9.642719 -5.542533
  N     5.210105  9.212600 -1.760481
  S     7.229725  5.721689 -6.231221
  S     4.340940  6.077661 -3.312862
  S     6.761315  5.166080 -2.122982
  S     7.281242  9.448425 -5.972632
  S     4.333898  9.359513 -3.144060
  S     6.769158  8.653654 -2.004985
