16  
    
  C     5.568313  5.930128 -4.260538
  C     6.673377  5.292234 -3.652110
  C     5.948060  9.157041 -3.987731
  C     7.214394  8.779882 -3.373035
  N     7.691851  4.893984 -4.445514
  N     5.728022  6.142166 -5.580854
  N     4.925482  5.733093 -1.780347
  N     8.200379  8.667240 -4.254950
  N     5.950448  9.462012 -5.273500
  N     5.446468  8.920644 -1.521204
  S     7.196806  5.490702 -5.924595
  S     4.172018  6.173351 -3.225411
  S     6.489960  5.199495 -1.921023
  S     7.514102  9.169403 -5.756135
  S     4.600476  9.051488 -2.912702
  S     7.074443  8.421504 -1.663795
