16  
    
  C     5.059056  6.276399 -4.515504
  C     6.308604  5.951287 -3.937990
  C     5.347834  9.606900 -4.152608
  C     6.685712  9.278509 -3.639437
  N     7.355512  5.973864 -4.723168
  N     5.173234  6.533044 -5.816089
  N     4.595304  6.031876 -2.062996
  N     7.720359  9.288063 -4.468432
  N     5.449651  9.897328 -5.425411
  N     5.034955  9.166125 -1.552125
  S     6.767541  6.323488 -6.225102
  S     3.780624  6.405460 -3.419393
  S     6.201282  5.675643 -2.242390
  S     7.000994  9.650613 -5.914349
  S     4.060066  9.490797 -2.949928
  S     6.634543  8.988009 -1.929928
