16  
    
  C     5.516973  5.320226 -4.071579
  C     6.836028  5.257007 -3.558477
  C     5.522653  9.374916 -4.677907
  C     6.669961  8.932056 -3.932161
  N     7.796276  5.257639 -4.461171
  N     5.454941  5.218884 -5.412667
  N     5.316659  5.036619 -1.511171
  N     7.668109  8.574725 -4.745804
  N     5.655491  9.417730 -5.998194
  N     4.850650  9.216120 -2.217547
  S     7.018879  5.277231 -5.954177
  S     4.320056  5.275565 -2.842073
  S     6.972449  4.991186 -1.822293
  S     7.235634  8.873213 -6.257912
  S     4.192776  9.903425 -3.646457
  S     6.419042  8.800099 -2.243790
