16  
    
  C     5.655618  5.903789 -4.377093
  C     6.867544  5.380769 -3.735710
  C     5.503089  9.422059 -4.697268
  C     6.734207  9.132919 -3.992135
  N     7.835951  5.129441 -4.604600
  N     5.661223  5.969244 -5.717508
  N     5.225536  5.679193 -1.801429
  N     7.883934  9.268147 -4.702799
  N     5.752145  9.809472 -5.927454
  N     4.883100  9.157212 -2.206574
  S     7.197602  5.461901 -6.123084
  S     4.375250  5.986783 -3.192429
  S     6.728760  5.009574 -2.041533
  S     7.411322  9.786625 -6.190966
  S     4.150441  9.541211 -3.613219
  S     6.526114  8.960866 -2.214715
