16  
    
  C     5.457840  5.652338 -4.414183
  C     6.650390  5.128454 -3.755773
  C     5.757338  9.094980 -4.304980
  C     6.959297  8.791468 -3.561178
  N     7.644761  4.955772 -4.632036
  N     5.514442  5.857545 -5.719229
  N     5.056846  5.728308 -1.845737
  N     8.040549  8.617919 -4.337907
  N     5.867781  9.073933 -5.612913
  N     5.136663  9.284360 -1.860373
  S     7.072052  5.435378 -6.123344
  S     4.205389  6.096767 -3.239670
  S     6.613864  5.113211 -2.027179
  S     7.436701  8.786061 -5.934302
  S     4.476441  9.510898 -3.328036
  S     6.729551  8.834011 -1.825676
