16  
    
  C     5.597011  5.726274 -4.390591
  C     6.944031  5.419298 -3.788843
  C     5.734616  9.704888 -4.259394
  C     7.030083  9.279214 -3.751213
  N     7.924383  5.319027 -4.708131
  N     5.606772  5.854377 -5.736623
  N     5.283616  5.625287 -1.833624
  N     8.013688  9.292236 -4.631545
  N     5.713479  9.922543 -5.577337
  N     5.281734  9.024637 -1.795032
  S     7.179688  5.596289 -6.160675
  S     4.383125  5.948401 -3.194184
  S     6.847591  5.181104 -2.022550
  S     7.191889  9.546780 -6.165182
  S     4.409210  9.543965 -3.146129
  S     6.903962  8.729441 -2.056010
