16  
    
  C     5.473174  5.827909 -4.474901
  C     6.715041  5.550043 -3.813251
  C     5.578333  9.353021 -4.162848
  C     6.821707  8.998640 -3.492151
  N     7.740332  5.465591 -4.638487
  N     5.587084  5.921837 -5.773815
  N     4.983945  5.692741 -2.017609
  N     7.831657  8.887010 -4.308236
  N     5.705551  9.586016 -5.454604
  N     5.061523  9.102219 -1.614919
  S     7.172926  5.624915 -6.197749
  S     4.181930  6.109412 -3.414487
  S     6.576042  5.415455 -2.140755
  S     7.296276  9.127676 -5.848495
  S     4.255280  9.442119 -3.037830
  S     6.730630  8.810308 -1.784522
