16  
    
  C     5.641405  6.056162 -4.278303
  C     6.798735  5.530495 -3.657791
  C     5.853659  9.253244 -4.225039
  C     7.055775  8.908393 -3.509373
  N     7.809441  5.308313 -4.477675
  N     5.741259  6.112196 -5.580801
  N     4.927102  5.491219 -1.927448
  N     8.129039  8.844404 -4.312997
  N     6.005751  9.336787 -5.570531
  N     5.382239  9.122272 -1.650676
  S     7.313054  5.781267 -5.997440
  S     4.326651  6.335194 -3.212716
  S     6.573362  5.149688 -1.970208
  S     7.597371  9.107040 -5.838246
  S     4.573837  9.493062 -3.051046
  S     6.935883  8.595774 -1.807523
