16  
    
  C     5.550874  5.826792 -4.081452
  C     6.741623  5.340511 -3.472076
  C     5.444393  8.915712 -4.120818
  C     6.726179  8.674132 -3.483220
  N     7.777809  5.123761 -4.306435
  N     5.513182  5.867474 -5.414104
  N     5.039851  5.521558 -1.571721
  N     7.742061  8.511146 -4.294805
  N     5.487210  8.854018 -5.443578
  N     5.103970  9.062556 -1.553758
  S     7.091998  5.479271 -5.805030
  S     4.303051  5.987970 -2.953076
  S     6.549040  4.916424 -1.823991
  S     7.126048  8.599262 -5.867075
  S     4.188258  9.054519 -2.919460
  S     6.751055  8.702688 -1.751229
