16  
    
  C     5.316241  5.596249 -4.402526
  C     6.449884  5.088716 -3.671749
  C     5.482200  9.121218 -4.326290
  C     6.672525  8.634791 -3.668623
  N     7.476865  4.760591 -4.430518
  N     5.533437  5.821486 -5.674619
  N     4.601453  5.297234 -1.970543
  N     7.665345  8.358977 -4.514840
  N     5.593111  9.370830 -5.629756
  N     4.904145  8.805364 -1.856298
  S     7.124471  5.209020 -5.934090
  S     4.001700  5.890006 -3.388891
  S     6.231339  4.894168 -2.008961
  S     7.122557  8.858464 -6.056350
  S     4.157110  9.368358 -3.245095
  S     6.525825  8.492500 -1.904912
