16  
    
  C     5.356163  5.924361 -4.257747
  C     6.619426  5.465332 -3.634214
  C     5.413149  9.592480 -4.446698
  C     6.626151  9.153548 -3.801761
  N     7.560173  5.342123 -4.539149
  N     5.427304  6.241429 -5.546705
  N     4.947704  5.651724 -1.665325
  N     7.694858  8.884587 -4.550044
  N     5.619416  9.685430 -5.772032
  N     5.053847  9.738159 -1.878938
  S     7.038745  5.923677 -6.003336
  S     4.102430  6.061142 -3.082142
  S     6.587639  5.369792 -1.938541
  S     7.194085  9.225735 -6.090869
  S     4.177916  9.678275 -3.275973
  S     6.618208  9.208996 -2.052342
