16  
    
  C     5.520551  6.442429 -4.522116
  C     6.685777  5.893412 -3.838428
  C     5.687616  9.747575 -4.440220
  C     6.879271  9.420926 -3.711336
  N     7.671557  5.575261 -4.647847
  N     5.624377  6.448979 -5.841992
  N     4.883389  6.230151 -2.036543
  N     7.956131  9.315475 -4.508593
  N     5.841784  9.912904 -5.779961
  N     5.075528  9.794419 -1.951152
  S     7.104672  5.869255 -6.274180
  S     4.184167  6.757787 -3.469563
  S     6.509397  5.857922 -2.157035
  S     7.421366  9.444133 -6.061083
  S     4.307338  9.945060 -3.334240
  S     6.690880  9.302163 -2.017914
