16  
    
  C     5.622119  6.132158 -4.381062
  C     6.758090  5.558640 -3.814848
  C     5.542557  9.594091 -4.244045
  C     6.769432  9.093719 -3.680766
  N     7.705649  5.270977 -4.682685
  N     5.698100  6.425219 -5.677939
  N     5.052061  5.701905 -1.879367
  N     7.775536  8.935035 -4.559767
  N     5.634310  9.880985 -5.552098
  N     5.112437  9.353682 -1.781675
  S     7.183149  5.859531 -6.147082
  S     4.281872  6.333734 -3.216552
  S     6.662840  5.260336 -2.067768
  S     7.146318  9.433761 -6.066708
  S     4.222156  9.655603 -3.118674
  S     6.733541  8.931866 -1.920311
