16  
    
  C     5.375848  5.975773 -4.412173
  C     6.535345  5.407274 -3.774421
  C     5.429009  9.312902 -4.203157
  C     6.736812  9.040745 -3.589287
  N     7.596934  5.337796 -4.583091
  N     5.525838  6.109307 -5.702631
  N     4.725916  5.593243 -1.949264
  N     7.695322  8.790265 -4.464715
  N     5.429352  9.304534 -5.531832
  N     4.987615  9.176740 -1.675487
  S     7.103088  5.729211 -6.104566
  S     4.064324  6.216867 -3.315652
  S     6.253631  5.149550 -2.091001
  S     7.015831  9.060829 -5.953408
  S     4.120376  9.452899 -3.077474
  S     6.558038  8.729409 -1.830251
