16  
    
  C     5.538293  6.161845 -4.360029
  C     6.745473  5.593701 -3.866422
  C     5.481092  9.770904 -4.260937
  C     6.622870  9.117706 -3.652573
  N     7.642337  5.380223 -4.827764
  N     5.546077  6.522938 -5.622014
  N     5.082010  5.576686 -1.941010
  N     7.608535  8.904264 -4.478759
  N     5.612241 10.059606 -5.535472
  N     4.972825  9.845011 -1.704933
  S     7.059053  6.007878 -6.220970
  S     4.303375  6.388870 -3.244197
  S     6.686449  5.258642 -2.214039
  S     7.129160  9.460540 -5.925357
  S     4.154471 10.101249 -3.110808
  S     6.462251  9.059889 -1.964553
