16  
    
  C     5.245254  5.821445 -4.484436
  C     6.474917  5.330403 -3.855402
  C     5.347432  9.571155 -4.534057
  C     6.520586  9.136425 -3.773437
  N     7.451514  5.185871 -4.744284
  N     5.352702  5.881953 -5.809523
  N     4.876200  5.729513 -1.947174
  N     7.510642  8.791830 -4.571574
  N     5.441988  9.581532 -5.859848
  N     4.823998  9.642161 -2.027576
  S     6.945767  5.642962 -6.234822
  S     4.065763  6.142195 -3.309799
  S     6.413399  5.249949 -2.128482
  S     7.028277  8.982790 -6.115631
  S     4.068113 10.118329 -3.481709
  S     6.336694  8.926704 -2.091169
