16  
    
  C     5.457262  5.770492 -4.128370
  C     6.460232  4.919144 -3.613407
  C     5.705177  9.523744 -4.463990
  C     6.862282  8.970030 -3.792925
  N     7.323440  4.418495 -4.483753
  N     5.485403  5.930533 -5.435276
  N     4.896532  5.551093 -1.594899
  N     7.889126  8.809663 -4.625986
  N     5.776990  9.564731 -5.788960
  N     4.919851  9.122497 -2.049741
  S     6.886195  5.155727 -5.925281
  S     4.274427  6.215761 -2.965358
  S     6.268339  4.656250 -1.910154
  S     7.261471  9.127643 -6.192169
  S     4.367514  9.906111 -3.391250
  S     6.550277  8.697823 -2.074727
