16  
    
  C     5.421251  5.938310 -4.295582
  C     6.617637  5.482216 -3.695176
  C     5.376647  9.367319 -4.378001
  C     6.669111  9.047578 -3.823667
  N     7.674336  5.376634 -4.514449
  N     5.454428  6.159307 -5.617258
  N     4.863423  5.556070 -1.817427
  N     7.674016  8.853054 -4.677669
  N     5.482035  9.526230 -5.687371
  N     4.973378  9.609137 -1.857020
  S     7.038727  5.768590 -6.013530
  S     4.035923  6.067888 -3.186315
  S     6.490742  5.348581 -1.976138
  S     6.963126  9.235706 -6.182735
  S     4.072800  9.670978 -3.284592
  S     6.601031  9.216779 -2.065565
