16  
    
  C     5.221026  6.477485 -4.634679
  C     6.464610  6.006592 -4.023762
  C     5.787618  9.647737 -4.389750
  C     7.061504  9.262935 -3.785221
  N     7.453762  5.812376 -4.892684
  N     5.314064  6.486168 -5.974839
  N     4.729151  6.352378 -2.143349
  N     8.027104  9.182652 -4.675710
  N     5.786080  9.929064 -5.683370
  N     5.353697  9.435263 -1.840034
  S     6.870754  6.049043 -6.458831
  S     3.889966  6.709194 -3.546953
  S     6.335548  5.998767 -2.274529
  S     7.325399  9.450966 -6.193072
  S     4.455132  9.829921 -3.293115
  S     6.951935  9.080025 -2.020758
