16  
    
  C     5.353790  6.056482 -4.414920
  C     6.620848  5.771648 -3.743436
  C     5.427493  9.761589 -4.384888
  C     6.621101  9.282267 -3.703871
  N     7.597049  5.621729 -4.613397
  N     5.431497  6.220129 -5.724883
  N     4.870743  5.972179 -1.847919
  N     7.714121  9.087362 -4.477686
  N     5.646373  9.850210 -5.718883
  N     4.788444  9.353701 -1.868171
  S     6.975505  5.902279 -6.125245
  S     4.043252  6.245988 -3.288284
  S     6.471364  5.667745 -2.005638
  S     7.229464  9.427468 -6.074759
  S     4.084096  9.962182 -3.274119
  S     6.488220  9.053032 -1.973324
