16  
    
  C     5.468199  5.589892 -4.208816
  C     6.654235  5.197052 -3.504710
  C     5.862324  9.015797 -3.946598
  C     7.105410  8.585949 -3.390599
  N     7.703040  4.934763 -4.270598
  N     5.622611  5.639131 -5.511786
  N     4.834379  5.819349 -1.790006
  N     8.101814  8.504358 -4.294699
  N     5.951369  9.310530 -5.232323
  N     5.382292  8.313670 -1.510318
  S     7.194878  5.181168 -5.831813
  S     4.101232  6.070994 -3.237561
  S     6.356879  5.103530 -1.824606
  S     7.530000  9.017614 -5.712570
  S     4.557559  9.085448 -2.774294
  S     7.033520  8.347804 -1.678518
