16  
    
  C     5.452457  6.019391 -4.419028
  C     6.602701  5.552716 -3.753026
  C     5.325931  9.528126 -4.296481
  C     6.580578  9.199039 -3.701195
  N     7.689802  5.516467 -4.499870
  N     5.570835  6.235224 -5.734610
  N     4.752546  5.478099 -1.943060
  N     7.635262  9.092425 -4.544798
  N     5.404893  9.806133 -5.624304
  N     4.848395  9.464315 -1.715680
  S     7.171905  6.018268 -6.029661
  S     3.997055  5.991089 -3.358404
  S     6.405791  5.288212 -1.990738
  S     6.984508  9.442424 -6.053342
  S     4.058259  9.689431 -3.175953
  S     6.475280  9.085934 -1.948634
