16  
    
  C     5.611714  5.666732 -4.098550
  C     6.877930  5.259474 -3.541171
  C     5.540266  8.978037 -4.160600
  C     6.842469  8.982901 -3.528447
  N     7.759899  4.949791 -4.456679
  N     5.578971  5.773330 -5.394325
  N     5.201213  5.424995 -1.568903
  N     7.854045  8.988502 -4.393957
  N     5.554488  9.040104 -5.509329
  N     5.094576  9.030891 -1.650890
  S     7.087218  5.358543 -5.884322
  S     4.412818  5.838783 -2.943462
  S     6.827767  5.297429 -1.829850
  S     7.151038  9.038179 -5.922607
  S     4.197613  8.967656 -3.077998
  S     6.734124  8.817340 -1.756187
