16  
    
  C     5.525640  5.902069 -4.388537
  C     6.752865  5.325963 -3.870785
  C     5.502077  9.877983 -4.610858
  C     6.654626  9.219855 -4.053774
  N     7.732311  5.191059 -4.758416
  N     5.526308  6.058934 -5.667197
  N     5.136751  5.570829 -1.852040
  N     7.524721  8.855336 -4.979971
  N     5.535609 10.074785 -5.922650
  N     5.096047  9.825653 -2.067763
  S     7.008309  5.681568 -6.296128
  S     4.293288  6.120459 -3.183774
  S     6.716135  5.020190 -2.168587
  S     6.906317  9.319553 -6.485751
  S     4.273648 10.351133 -3.482032
  S     6.519029  9.060080 -2.304478
