16  
    
  C     5.506092  6.178646 -4.443119
  C     6.715511  5.536243 -3.973959
  C     5.499316  9.828906 -4.295060
  C     6.654994  9.186601 -3.631542
  N     7.701801  5.384192 -4.904017
  N     5.555594  6.513460 -5.746607
  N     5.119937  5.636718 -1.918007
  N     7.550342  8.869284 -4.519692
  N     5.624252 10.050125 -5.584455
  N     4.990133  9.807085 -1.782103
  S     6.964217  5.993740 -6.306488
  S     4.338626  6.362363 -3.149663
  S     6.709486  5.296130 -2.184369
  S     7.118437  9.553958 -6.041729
  S     4.176407 10.173896 -3.236631
  S     6.425615  9.025332 -1.864124
