16  
    
  C     5.590566  5.836264 -4.506113
  C     6.800410  5.521051 -3.862500
  C     5.091604  9.447540 -4.460974
  C     6.242852  9.045461 -3.698351
  N     7.867981  5.377895 -4.655016
  N     5.656868  5.916025 -5.825352
  N     4.947796  5.675242 -2.012759
  N     7.284829  8.774561 -4.475701
  N     5.220445  9.529080 -5.785585
  N     4.611311  9.986314 -1.958588
  S     7.238108  5.585893 -6.215783
  S     4.220950  5.873680 -3.446945
  S     6.615634  5.313984 -2.080792
  S     6.847924  9.031494 -6.039835
  S     3.846370 10.151418 -3.417443
  S     6.055971  9.245945 -2.002036
