16  
    
  C     5.500354  5.952368 -4.433046
  C     6.711004  5.534462 -3.786534
  C     5.634520  9.308115 -4.214348
  C     6.895364  9.045823 -3.552223
  N     7.708940  5.189090 -4.601743
  N     5.614098  5.891579 -5.748181
  N     4.907650  5.817251 -1.994680
  N     7.951003  9.026951 -4.348373
  N     5.777070  9.449274 -5.503488
  N     5.127482  9.547311 -1.653250
  S     7.181841  5.491142 -6.150710
  S     4.162748  6.366078 -3.382991
  S     6.468006  5.395215 -2.107333
  S     7.356500  9.357030 -5.902017
  S     4.354977  9.708240 -3.107343
  S     6.664149  8.906577 -1.803314
