16  
    
  C     5.267939  6.286702 -4.346445
  C     6.306889  5.588048 -3.713061
  C     5.606577  9.557412 -4.221051
  C     6.774359  9.053558 -3.572828
  N     7.359980  5.319133 -4.479549
  N     5.504637  6.493756 -5.615904
  N     4.593422  6.277192 -1.884459
  N     7.775048  8.740917 -4.428081
  N     5.743159  9.773409 -5.554293
  N     5.179898  9.485417 -1.692333
  S     6.990766  5.890259 -5.983605
  S     3.862249  6.643450 -3.313063
  S     6.135290  5.571406 -1.917860
  S     7.257601  9.252091 -5.967323
  S     4.319154  9.835186 -3.046138
  S     6.716942  8.953703 -1.868924
