16  
    
  C     5.329463  5.488309 -4.388834
  C     6.477638  4.941532 -3.703507
  C     5.485742  9.206243 -4.429332
  C     6.561200  8.480037 -3.800994
  N     7.515288  4.807905 -4.528850
  N     5.501338  5.845310 -5.650161
  N     4.601382  5.170943 -1.874007
  N     7.599742  8.199763 -4.604588
  N     5.770851  9.601074 -5.668346
  N     4.947648  8.951690 -1.902099
  S     7.040750  5.228676 -6.060871
  S     4.066457  5.912882 -3.253795
  S     6.166414  4.638437 -1.960052
  S     7.275387  9.043901 -6.044883
  S     4.150753  9.357769 -3.283779
  S     6.280072  7.951801 -2.141658
