16  
    
  C     5.621533  6.178989 -4.410357
  C     6.756604  5.555703 -3.772339
  C     5.462450  9.721370 -4.130442
  C     6.711975  9.318763 -3.546644
  N     7.847930  5.485677 -4.538278
  N     5.743063  6.425044 -5.733784
  N     4.906814  5.803930 -1.877527
  N     7.690982  9.070876 -4.457465
  N     5.504387  9.826839 -5.461010
  N     4.895584  9.368101 -1.682510
  S     7.273440  5.969031 -6.038537
  S     4.249172  6.361526 -3.306504
  S     6.485932  5.192694 -2.093691
  S     6.983106  9.447592 -5.974911
  S     4.143264  9.928143 -3.098864
  S     6.482145  9.078307 -1.847195
