16  
    
  C     5.452256  5.611608 -4.205556
  C     6.665965  5.221949 -3.496381
  C     5.869557  9.004376 -3.954922
  C     7.090491  8.561461 -3.378097
  N     7.685902  4.939680 -4.265528
  N     5.627792  5.595028 -5.502240
  N     4.837156  5.813799 -1.795369
  N     8.097112  8.510631 -4.292048
  N     5.944327  9.283130 -5.253899
  N     5.365673  8.328705 -1.509536
  S     7.195503  5.164117 -5.830915
  S     4.092826  6.054259 -3.247989
  S     6.353279  5.091589 -1.809812
  S     7.513466  9.012496 -5.710710
  S     4.570037  9.093966 -2.777989
  S     7.027426  8.329551 -1.668421
