16  
    
  C     5.669727  5.838515 -4.110121
  C     6.762960  5.190807 -3.386127
  C     5.528637  9.492339 -4.025785
  C     6.633777  8.823964 -3.391288
  N     7.814534  4.857071 -4.109093
  N     5.944926  5.962787 -5.419001
  N     4.922177  5.401735 -1.668436
  N     7.687661  8.623418 -4.147625
  N     5.722608  9.741873 -5.323371
  N     4.847294  9.125920 -1.575064
  S     7.461788  5.456524 -5.658888
  S     4.238648  5.938450 -3.136141
  S     6.570141  5.106507 -1.686389
  S     7.216320  9.138343 -5.657126
  S     4.147540  9.593384 -2.981755
  S     6.410226  8.584886 -1.674390
