16  
    
  C     5.539936  5.311764 -4.152692
  C     6.817719  5.120192 -3.526229
  C     5.687797  9.165479 -4.084671
  C     6.922497  8.742960 -3.464502
  N     7.847561  4.971274 -4.363740
  N     5.604401  5.362048 -5.475922
  N     5.028268  5.243039 -1.693765
  N     7.956847  8.623534 -4.286122
  N     5.843881  9.379570 -5.386699
  N     5.280244  9.255672 -1.550688
  S     7.155593  5.224396 -5.871594
  S     4.191625  5.519412 -3.116960
  S     6.693414  5.029207 -1.786022
  S     7.381354  9.044385 -5.787910
  S     4.410500  9.564426 -2.909228
  S     6.830985  8.672962 -1.759603
