16  
    
  C     5.892951  6.077276 -4.442960
  C     7.018785  5.552994 -3.716514
  C     5.701555  9.488152 -4.380856
  C     6.896745  8.945938 -3.774539
  N     8.091238  5.320778 -4.454710
  N     6.101483  6.312534 -5.747973
  N     5.089498  5.609208 -2.005023
  N     7.935411  8.841957 -4.584124
  N     5.800301  9.702568 -5.687823
  N     5.139535  9.269427 -1.905544
  S     7.631312  5.685711 -6.022732
  S     4.426337  6.119603 -3.453569
  S     6.735986  5.414055 -1.926423
  S     7.423224  9.303839 -6.082730
  S     4.402718  9.852846 -3.250678
  S     6.733905  8.914847 -2.069160
