16  
    
  C     5.531548  6.124984 -4.331858
  C     6.629496  5.469372 -3.616044
  C     5.710743  9.586206 -4.205647
  C     6.863623  9.011554 -3.594948
  N     7.687147  5.215227 -4.405278
  N     5.717393  6.229201 -5.658664
  N     4.676456  5.653893 -1.955745
  N     7.875602  8.738849 -4.379127
  N     5.881240  9.875826 -5.467534
  N     5.205756  9.593986 -1.705263
  S     7.254097  5.714704 -5.931243
  S     4.072933  6.318691 -3.346747
  S     6.288112  5.164828 -1.942254
  S     7.342157  9.271238 -5.936125
  S     4.368865  9.930159 -3.155831
  S     6.715851  8.812685 -1.868092
