16  
    
  C     5.487460  6.397015 -4.517546
  C     6.686073  5.979279 -3.898455
  C     5.676675  9.769306 -4.458779
  C     6.925748  9.400914 -3.730503
  N     7.660602  5.587626 -4.753085
  N     5.551331  6.439665 -5.838260
  N     4.886516  6.247576 -2.069581
  N     7.988467  9.323530 -4.506372
  N     5.803671  9.908895 -5.763043
  N     5.127785  9.768695 -1.935558
  S     7.072270  5.875601 -6.271466
  S     4.152246  6.779697 -3.507912
  S     6.525471  5.836734 -2.156732
  S     7.414692  9.437101 -6.087636
  S     4.315796  9.959675 -3.373561
  S     6.697955  9.273621 -1.931569
