16  
    
  C     5.247326  6.447685 -4.665147
  C     6.477068  6.086947 -4.040109
  C     5.701192  9.666156 -4.428907
  C     6.978141  9.274278 -3.823427
  N     7.471462  5.809735 -4.898396
  N     5.286603  6.463361 -5.991321
  N     4.742664  6.321389 -2.098686
  N     8.010697  9.197317 -4.680947
  N     5.799147  9.877643 -5.747568
  N     5.356500  9.438536 -1.886974
  S     6.865194  6.044618 -6.349899
  S     3.907640  6.751889 -3.540913
  S     6.355897  5.983639 -2.273220
  S     7.374227  9.426184 -6.187780
  S     4.454318  9.802158 -3.239669
  S     6.982802  9.059138 -2.039001
