16  
    
  C     5.883823  6.041780 -4.472332
  C     7.055302  5.586511 -3.683374
  C     5.638148  9.506228 -4.406931
  C     6.858296  9.082793 -3.770308
  N     8.089163  5.249917 -4.469676
  N     6.098208  6.147823 -5.778491
  N     5.081544  5.583511 -2.027336
  N     7.927017  8.993639 -4.580265
  N     5.774490  9.724082 -5.744264
  N     5.119496  9.246026 -1.852711
  S     7.669894  5.645029 -6.040847
  S     4.455202  6.156717 -3.451736
  S     6.753391  5.430616 -1.931844
  S     7.330513  9.380550 -6.130393
  S     4.393583  9.786373 -3.271844
  S     6.723571  8.865678 -1.997521
