16  
    
  C     5.249146  5.999859 -4.455088
  C     6.404713  5.510435 -3.750459
  C     5.421682  9.600877 -4.111857
  C     6.622826  9.189680 -3.484580
  N     7.501616  5.248966 -4.457647
  N     5.450250  6.028534 -5.753996
  N     4.579219  6.092079 -2.017198
  N     7.695610  9.085007 -4.309157
  N     5.579022  9.795426 -5.437090
  N     4.746559  9.380693 -1.703060
  S     7.016801  5.506607 -6.023484
  S     3.956282  6.622450 -3.453645
  S     6.159038  5.530566 -2.008991
  S     7.132668  9.577190 -5.826410
  S     3.970262  9.782512 -3.202499
  S     6.326995  8.790685 -1.806885
