16  
    
  C     5.600820  5.702068 -4.391625
  C     6.839016  5.412638 -3.770219
  C     5.547024  9.494347 -4.240426
  C     6.795077  9.086088 -3.683254
  N     7.861752  5.444835 -4.600368
  N     5.658160  5.931212 -5.701199
  N     5.063829  5.336846 -1.858276
  N     7.765527  9.011821 -4.629643
  N     5.539154  9.716536 -5.543733
  N     5.084361  9.463032 -1.746258
  S     7.258870  5.829546 -6.041955
  S     4.244079  5.629026 -3.251089
  S     6.696893  5.041379 -2.127127
  S     7.108949  9.426930 -6.054577
  S     4.223826  9.670752 -3.170849
  S     6.656430  9.032636 -1.934636
