16  
    
  C     5.635821  6.584921 -4.529793
  C     6.840276  6.142757 -3.903790
  C     5.597382 10.177066 -4.647656
  C     6.667327  9.619353 -3.907883
  N     7.819273  5.909842 -4.784758
  N     5.712405  6.689232 -5.864627
  N     5.061663  6.444809 -2.051869
  N     7.723971  9.249158 -4.675343
  N     5.707664 10.190621 -6.012801
  N     5.043555 10.087428 -2.046041
  S     7.267191  6.201261 -6.274804
  S     4.313536  7.062050 -3.416423
  S     6.552389  5.756352 -2.226889
  S     7.251216  9.587360 -6.251313
  S     4.254346 10.537109 -3.484645
  S     6.519378  9.444449 -2.190516
