16  
    
  C     5.595741  5.644206 -4.389630
  C     6.816625  5.209126 -3.741150
  C     5.469426  9.920428 -4.388692
  C     6.686076  9.317116 -3.862572
  N     7.836841  5.010014 -4.563711
  N     5.738041  5.821031 -5.694519
  N     5.033050  5.411942 -1.893867
  N     7.555460  9.068121 -4.819278
  N     5.375218 10.032285 -5.707425
  N     4.946670  9.574528 -1.934511
  S     7.314582  5.419490 -6.132387
  S     4.296528  5.871328 -3.325414
  S     6.666602  5.072957 -2.022594
  S     6.884628  9.480500 -6.266254
  S     4.147034 10.095064 -3.302569
  S     6.524939  9.022009 -2.142091
