16  
    
  C     5.582467  5.959741 -4.261792
  C     6.693385  5.298099 -3.643217
  C     5.938340  9.154857 -3.987638
  C     7.206914  8.779050 -3.385607
  N     7.697261  4.971284 -4.445381
  N     5.760565  6.179583 -5.558970
  N     4.911347  5.694738 -1.788914
  N     8.244854  8.695094 -4.276453
  N     5.977646  9.419135 -5.285958
  N     5.445322  8.970239 -1.541949
  S     7.190842  5.494250 -5.941732
  S     4.191825  6.186402 -3.213854
  S     6.489487  5.202726 -1.951650
  S     7.512093  9.185162 -5.759058
  S     4.584112  9.087984 -2.912984
  S     7.061403  8.430433 -1.673987
