16  
    
  C     5.715523  5.701595 -4.328114
  C     6.901294  5.200429 -3.681011
  C     5.240948  9.779927 -4.595415
  C     6.372634  9.187124 -3.899588
  N     7.908744  4.957651 -4.504447
  N     5.813399  5.897062 -5.653733
  N     5.180541  5.506240 -1.797217
  N     7.376307  8.936945 -4.767339
  N     5.354882  9.950393 -5.907333
  N     4.556935  9.690976 -2.131448
  S     7.309785  5.386750 -6.112309
  S     4.398962  5.907696 -3.207617
  S     6.771626  5.112512 -1.953058
  S     6.855790  9.344854 -6.317923
  S     3.913367 10.317426 -3.620487
  S     6.113957  9.171906 -2.243645
