16  
    
  C     5.640314  5.686619 -4.427471
  C     6.966869  5.406754 -3.832981
  C     5.203200  9.641367 -4.323859
  C     6.439901  9.110625 -3.755408
  N     7.938885  5.214531 -4.735599
  N     5.644301  5.754809 -5.760364
  N     5.258223  5.707490 -1.907573
  N     7.402974  8.834041 -4.642860
  N     5.239674  9.778104 -5.621391
  N     4.701262  9.512023 -1.881309
  S     7.204146  5.503730 -6.234544
  S     4.360001  5.872460 -3.259208
  S     6.815734  5.215688 -2.085511
  S     6.784458  9.276686 -6.124141
  S     3.940996 10.150322 -3.229011
  S     6.356624  9.148620 -2.040733
