16  
    
  C     5.295330  5.686167 -4.307173
  C     6.481471  5.350662 -3.671928
  C     5.392840  9.460608 -4.180442
  C     6.592571  8.934461 -3.595848
  N     7.502436  5.228506 -4.512532
  N     5.361581  5.944187 -5.619630
  N     4.779190  5.636727 -1.742416
  N     7.588080  8.616805 -4.444284
  N     5.467634  9.533003 -5.497668
  N     4.904079  9.306398 -1.605420
  S     6.893171  5.497470 -6.027734
  S     4.025901  6.035118 -3.186977
  S     6.357088  5.231691 -1.937533
  S     6.975310  9.021705 -5.985582
  S     4.140282  9.602532 -3.050301
  S     6.540149  8.824064 -1.803053
