16  
    
  C     5.112240  5.902691 -4.264326
  C     6.348020  5.566383 -3.613998
  C     5.451585  9.417768 -4.018926
  C     6.680896  8.885597 -3.492776
  N     7.324947  5.276655 -4.494581
  N     5.199719  5.937542 -5.592399
  N     4.544612  5.887172 -1.782886
  N     7.708647  8.685410 -4.354005
  N     5.457271  9.469432 -5.331644
  N     5.195292  9.601523 -1.423272
  S     6.809846  5.696644 -6.002767
  S     3.761318  6.281628 -3.223768
  S     6.184519  5.513863 -1.913586
  S     6.990114  8.993802 -5.811163
  S     4.315657  9.965250 -2.839467
  S     6.561871  8.732658 -1.750678
