16  
    
  C     5.378222  5.673305 -4.537142
  C     6.535409  5.250818 -3.826364
  C     5.315924  9.452237 -4.361539
  C     6.468895  8.880097 -3.703969
  N     7.636656  5.016951 -4.536146
  N     5.633406  5.906285 -5.813769
  N     4.634172  5.725420 -2.037361
  N     7.464087  8.618543 -4.584997
  N     5.421847  9.610426 -5.699604
  N     4.762166  9.490460 -1.871782
  S     7.167124  5.462401 -6.074528
  S     4.007989  6.187972 -3.556118
  S     6.240665  5.302725 -2.088556
  S     6.994352  9.125548 -6.095470
  S     3.942406  9.693460 -3.296205
  S     6.317339  8.895739 -1.911436
