16  
    
  C     5.734811  5.468532 -3.951461
  C     7.015742  5.144930 -3.344838
  C     5.481311  9.354621 -4.229719
  C     6.576258  8.756264 -3.478344
  N     8.036427  4.952909 -4.201982
  N     5.833654  5.573038 -5.280695
  N     5.318561  5.137132 -1.431284
  N     7.628490  8.501186 -4.262666
  N     5.725669  9.555706 -5.518412
  N     4.812487  9.343272 -1.749816
  S     7.401847  5.291399 -5.690436
  S     4.453372  5.476375 -2.813123
  S     6.904580  4.879911 -1.625316
  S     7.165838  8.958135 -5.819463
  S     4.091185  9.763290 -3.215567
  S     6.216691  8.412217 -1.812222
