16  
    
  C     5.621382  5.850499 -4.472815
  C     6.862489  5.485690 -3.834319
  C     5.094901  9.659562 -4.422284
  C     6.260525  9.166179 -3.746343
  N     7.854301  5.247955 -4.706606
  N     5.672283  5.914776 -5.811111
  N     5.060377  5.731291 -1.933306
  N     7.318372  8.739013 -4.447486
  N     5.315235  9.619366 -5.711300
  N     4.605248  9.880713 -1.936532
  S     7.242557  5.570669 -6.206904
  S     4.217451  5.833394 -3.398310
  S     6.683446  5.321484 -2.116088
  S     6.777915  9.026398 -6.005213
  S     3.762678 10.087032 -3.359308
  S     6.129320  9.178345 -2.043926
