16  
    
  C     5.536206  5.245435 -4.057640
  C     6.868790  5.246223 -3.618166
  C     5.547262  9.339268 -4.619463
  C     6.668453  8.821930 -3.888479
  N     7.781443  5.355968 -4.563446
  N     5.417157  5.335050 -5.366788
  N     5.377883  5.165951 -1.536761
  N     7.734448  8.641671 -4.662538
  N     5.677749  9.360511 -5.939208
  N     4.718043  9.151627 -2.202617
  S     6.975502  5.345825 -5.999749
  S     4.361063  5.314193 -2.783367
  S     7.004086  5.080256 -1.918451
  S     7.248311  8.951316 -6.254079
  S     4.264905  9.924466 -3.615138
  S     6.337846  8.686088 -2.161282
