16  
    
  C     5.889058  6.079613 -4.438462
  C     7.014133  5.551449 -3.715633
  C     5.706268  9.485077 -4.372272
  C     6.897892  8.943589 -3.771642
  N     8.089114  5.326110 -4.454065
  N     6.103078  6.318474 -5.734418
  N     5.091433  5.613162 -2.001266
  N     7.934787  8.829628 -4.587526
  N     5.807625  9.700490 -5.687655
  N     5.141573  9.270815 -1.908011
  S     7.629327  5.689786 -6.023048
  S     4.425759  6.117432 -3.454800
  S     6.733411  5.412210 -1.931517
  S     7.428178  9.298590 -6.078477
  S     4.401887  9.856705 -3.250417
  S     6.735868  8.916985 -2.073648
