16  
    
  C     5.670097  5.745387 -4.265706
  C     6.980079  5.266638 -3.723419
  C     5.808567  9.647600 -4.429712
  C     6.982530  9.127062 -3.783849
  N     7.978754  5.248920 -4.599429
  N     5.696350  6.000873 -5.571106
  N     5.276704  5.171900 -1.769784
  N     8.035595  9.134095 -4.638007
  N     5.933578 10.076404 -5.687744
  N     5.274793  9.308361 -1.983427
  S     7.282425  5.810834 -6.007205
  S     4.469369  5.634173 -3.100742
  S     6.880033  4.779378 -2.067714
  S     7.471748  9.742286 -6.139846
  S     4.439884  9.835691 -3.319834
  S     6.819383  8.742800 -2.145828
