16  
    
  C     5.569503  5.879367 -4.523496
  C     6.806010  5.493711 -3.823742
  C     5.612213  9.684123 -4.298795
  C     6.806921  9.121505 -3.714699
  N     7.822075  5.346914 -4.681733
  N     5.727106  6.028092 -5.834341
  N     4.933593  5.658318 -1.992448
  N     7.812379  9.218143 -4.571310
  N     5.620868 10.106883 -5.555230
  N     5.013666  9.193907 -1.799668
  S     7.320178  5.701216 -6.168549
  S     4.284885  6.196635 -3.448448
  S     6.492598  5.120792 -2.140444
  S     7.161136  9.700039 -6.028098
  S     4.295362  9.939231 -3.219391
  S     6.577274  8.812033 -2.013195
