16  
    
  C     5.530761  5.855192 -4.357261
  C     6.614480  5.177585 -3.690831
  C     5.676722  9.152273 -4.244234
  C     6.913641  8.793645 -3.619391
  N     7.677882  4.878820 -4.451591
  N     5.801611  6.152256 -5.637646
  N     4.752149  5.664611 -1.956915
  N     8.012068  8.746577 -4.385668
  N     5.857734  9.487448 -5.506077
  N     5.203689  8.956944 -1.728516
  S     7.293951  5.454578 -5.948645
  S     4.039995  5.992237 -3.395126
  S     6.305812  4.996038 -2.003819
  S     7.389031  9.205171 -5.907119
  S     4.363607  9.247271 -3.164651
  S     6.883339  8.723679 -1.904111
