16  
    
  C     5.579164  5.934065 -4.714159
  C     6.812237  5.711337 -4.012519
  C     5.508960  9.745252 -4.331485
  C     6.717907  9.210992 -3.713744
  N     7.855730  5.599899 -4.821360
  N     5.654285  6.015546 -6.033312
  N     4.882076  5.594949 -2.235527
  N     7.795836  9.109488 -4.497290
  N     5.686979 10.185302 -5.592493
  N     4.883410  9.177687 -1.917227
  S     7.273637  5.891643 -6.392772
  S     4.145446  5.916021 -3.714806
  S     6.597164  5.365917 -2.268036
  S     7.299009  9.807054 -5.976143
  S     4.120763  9.834293 -3.261039
  S     6.474905  8.858032 -2.035227
