16  
    
  C     5.687484  5.669058 -4.160221
  C     6.852293  5.234251 -3.428383
  C     5.501316  9.484213 -4.092723
  C     6.670626  8.947791 -3.432923
  N     7.935671  5.064581 -4.188861
  N     5.855461  5.852030 -5.464157
  N     4.883344  5.560249 -1.682172
  N     7.694824  8.591357 -4.201407
  N     5.701260  9.656451 -5.404362
  N     4.808624  8.952633 -1.640037
  S     7.388179  5.285804 -5.755583
  S     4.274109  6.023024 -3.186271
  S     6.453899  5.048427 -1.725975
  S     7.232570  9.096551 -5.773760
  S     4.102736  9.597485 -3.055879
  S     6.437615  8.569424 -1.764712
