16  
    
  C     5.490087  5.860715 -4.435754
  C     6.711642  5.599563 -3.684792
  C     5.620539  8.940675 -4.186100
  C     6.916344  8.743336 -3.568572
  N     7.805260  5.544481 -4.465124
  N     5.634222  5.950438 -5.774016
  N     4.830840  5.628468 -1.922543
  N     7.951225  8.762450 -4.383087
  N     5.699631  9.150591 -5.494650
  N     5.193054  8.803818 -1.576046
  S     7.256030  5.786032 -6.027075
  S     4.109869  5.970654 -3.362108
  S     6.444766  5.319589 -1.973562
  S     7.364837  9.180597 -5.848068
  S     4.308344  8.993525 -2.996470
  S     6.794408  8.436623 -1.847402
