16  
    
  C     5.173948  6.119077 -4.319920
  C     6.349591  5.561882 -3.664205
  C     5.532697  9.769034 -4.262981
  C     6.674027  9.189481 -3.621661
  N     7.391266  5.337094 -4.460052
  N     5.327769  6.386797 -5.624998
  N     4.569731  5.961502 -1.812997
  N     7.594674  8.935377 -4.564435
  N     5.541871  9.944062 -5.613981
  N     4.984686  9.674636 -1.718989
  S     6.821994  5.859120 -5.957598
  S     3.897394  6.569720 -3.254549
  S     6.175871  5.319667 -1.921115
  S     7.064449  9.461553 -6.077644
  S     4.229269 10.004214 -3.100450
  S     6.598934  8.985509 -1.904717
