16  
    
  C     5.554737  5.340688 -4.180646
  C     6.822138  5.172433 -3.490354
  C     5.345079  9.197642 -4.364142
  C     6.578158  8.724353 -3.782070
  N     7.854670  4.951521 -4.330404
  N     5.654830  5.327842 -5.506026
  N     4.965973  5.230342 -1.641846
  N     7.550659  8.487522 -4.667244
  N     5.413613  9.359988 -5.674507
  N     4.903557  9.027058 -1.828090
  S     7.249327  5.148646 -5.849336
  S     4.208796  5.522239 -3.102008
  S     6.587805  4.885543 -1.767948
  S     6.923161  8.808970 -6.122363
  S     4.178157  9.733214 -3.140241
  S     6.456245  8.494699 -2.043316
