16  
    
  C     5.377963  6.039172 -4.418945
  C     6.588255  5.658511 -3.745123
  C     5.614879  9.695922 -4.328701
  C     6.760926  9.095208 -3.639397
  N     7.655195  5.437717 -4.564371
  N     5.508572  6.172991 -5.746879
  N     4.760885  5.928951 -1.921646
  N     7.809557  8.806034 -4.416728
  N     5.811504  9.826746 -5.655012
  N     4.989679  9.374053 -1.781730
  S     7.131321  5.799994 -6.027419
  S     4.073650  6.436339 -3.343647
  S     6.325933  5.396993 -1.996430
  S     7.409317  9.380760 -5.958744
  S     4.287692  9.840860 -3.298734
  S     6.554698  8.890598 -1.908345
