16  
    
  C     5.184601  6.132853 -4.328057
  C     6.332075  5.558946 -3.686756
  C     5.518003  9.757389 -4.270483
  C     6.668222  9.208729 -3.641490
  N     7.395446  5.342735 -4.458407
  N     5.337611  6.366173 -5.628955
  N     4.585785  5.962898 -1.806498
  N     7.609878  8.953002 -4.561310
  N     5.544460  9.952131 -5.624109
  N     4.993404  9.638973 -1.720141
  S     6.819507  5.860522 -5.966666
  S     3.906199  6.558559 -3.246503
  S     6.167808  5.313914 -1.928892
  S     7.066048  9.459553 -6.086278
  S     4.213335 10.013390 -3.094581
  S     6.607994  8.991406 -1.923055
