16  
    
  C     5.458082  5.642211 -4.138911
  C     6.644564  5.101825 -3.451047
  C     5.634894  8.957429 -3.993637
  C     6.880514  8.474775 -3.413225
  N     7.750266  4.968067 -4.238589
  N     5.620395  5.896668 -5.440169
  N     4.777037  5.369498 -1.663082
  N     7.834699  8.187215 -4.273506
  N     5.622374  9.051150 -5.314652
  N     5.161285  8.878900 -1.486012
  S     7.170019  5.367209 -5.776800
  S     4.119635  5.877052 -3.063945
  S     6.416411  5.060684 -1.760700
  S     7.131389  8.534707 -5.838643
  S     4.291700  9.105107 -2.903380
  S     6.785067  8.585392 -1.661374
