16  
    
  C     5.589450  6.017203 -4.265116
  C     6.711197  5.421339 -3.662862
  C     5.928574  9.117910 -4.046964
  C     7.179048  8.758114 -3.451574
  N     7.743309  5.174017 -4.467028
  N     5.762598  6.269824 -5.570519
  N     4.901354  5.546305 -1.857082
  N     8.190349  8.834109 -4.313740
  N     5.984545  9.315581 -5.344623
  N     5.459521  9.053996 -1.527365
  S     7.218754  5.536332 -6.004969
  S     4.260955  6.257661 -3.190303
  S     6.505489  5.177451 -1.932335
  S     7.590907  9.190056 -5.780876
  S     4.558581  9.239617 -2.928553
  S     6.992837  8.494042 -1.748228
