16  
    
  C     5.420777  6.586944 -4.546588
  C     6.507691  5.962114 -3.794066
  C     5.509904 10.105840 -4.319515
  C     6.715037  9.763314 -3.657606
  N     7.528887  5.567277 -4.511329
  N     5.662526  6.738998 -5.820973
  N     4.785582  6.470471 -2.023602
  N     7.769657  9.765660 -4.458050
  N     5.661361 10.303493 -5.647837
  N     4.917924  9.906921 -1.865951
  S     7.132681  6.085485 -6.126235
  S     4.052021  6.840489 -3.449979
  S     6.334054  5.818248 -2.114290
  S     7.283580 10.014751 -5.997881
  S     4.090841 10.218459 -3.268827
  S     6.562494  9.445169 -1.994820
