16  
    
  C     5.484473  5.902085 -4.483172
  C     6.771396  5.601480 -3.808165
  C     5.374202  9.716137 -4.403165
  C     6.577401  9.299515 -3.715208
  N     7.800357  5.502584 -4.634138
  N     5.661053  5.991079 -5.776506
  N     4.948040  5.836337 -2.012853
  N     7.467346  8.826295 -4.597087
  N     5.397955  9.670499 -5.731901
  N     4.825029  9.526288 -1.901941
  S     7.224878  5.690950 -6.211078
  S     4.139809  5.921369 -3.494411
  S     6.551785  5.454808 -2.110467
  S     6.926867  9.018965 -6.103747
  S     4.028759  9.910612 -3.305581
  S     6.455239  9.296957 -1.993265
