16  
    
  C     5.584193  5.924829 -4.429198
  C     6.855595  5.499173 -3.853639
  C     5.725168  9.386794 -4.295795
  C     6.995930  9.018642 -3.656893
  N     7.917332  5.443302 -4.713355
  N     5.620878  6.103380 -5.761616
  N     5.148444  5.553598 -1.831665
  N     7.993483  8.977840 -4.488449
  N     5.812788  9.646403 -5.590768
  N     5.246446  9.164507 -1.753662
  S     7.210436  5.950089 -6.139488
  S     4.325212  6.135681 -3.190544
  S     6.710124  5.138886 -2.155019
  S     7.364542  9.398344 -6.025064
  S     4.433251  9.467979 -3.154598
  S     6.874638  8.681090 -1.887471
