16  
    
  C     5.224247  6.413188 -4.636289
  C     6.464327  6.086495 -3.973107
  C     5.725143  9.697708 -4.439310
  C     6.971007  9.331832 -3.814612
  N     7.494803  5.832946 -4.724999
  N     5.302447  6.431331 -5.926461
  N     4.755233  6.340980 -2.133188
  N     7.959608  9.097034 -4.654997
  N     5.812265  9.696828 -5.783818
  N     5.362086  9.440735 -1.843013
  S     6.855566  6.036224 -6.306321
  S     4.011971  6.775543 -3.506332
  S     6.371775  5.961797 -2.295094
  S     7.404135  9.441637 -6.164081
  S     4.467027  9.773226 -3.183915
  S     6.925511  9.072117 -2.172645
