16  
    
  C     5.467677  5.767456 -4.390072
  C     6.683832  5.289276 -3.753221
  C     5.771193  9.106278 -4.240357
  C     7.006585  8.855272 -3.534997
  N     7.645673  4.886475 -4.602077
  N     5.581393  5.829752 -5.695320
  N     4.960923  5.677329 -1.819512
  N     8.031113  8.622944 -4.374756
  N     5.866446  9.112167 -5.555151
  N     5.135976  9.279017 -1.766190
  S     7.144368  5.340403 -6.119616
  S     4.171459  6.001081 -3.244398
  S     6.509565  5.234184 -2.048130
  S     7.454237  8.696580 -5.905631
  S     4.377376  9.509904 -3.241025
  S     6.783074  8.921952 -1.807371
