16  
    
  C     5.552547  5.986241 -4.417351
  C     6.713414  5.696926 -3.678976
  C     5.621230  9.577540 -4.379271
  C     6.768424  9.178504 -3.600541
  N     7.829011  5.511489 -4.348659
  N     5.769074  6.012787 -5.717172
  N     4.796618  6.033371 -2.001660
  N     7.844944  8.955588 -4.311404
  N     5.805200  9.656488 -5.698809
  N     4.886557  9.482117 -1.847411
  S     7.339780  5.746119 -5.942020
  S     4.158139  6.300988 -3.473446
  S     6.435907  5.629940 -2.003342
  S     7.431061  9.241795 -5.876514
  S     4.141570  9.690542 -3.262193
  S     6.569807  9.074631 -1.941251
