16  
    
  C     5.609437  5.472601 -4.201922
  C     6.869081  5.321104 -3.560475
  C     5.639241  9.272086 -4.175273
  C     6.911409  9.065690 -3.544637
  N     7.913778  5.155558 -4.357394
  N     5.634551  5.382826 -5.524738
  N     5.173205  5.794125 -1.677568
  N     7.907758  9.091104 -4.418935
  N     5.712625  9.488346 -5.507753
  N     5.126292  8.801669 -1.718435
  S     7.240590  5.283303 -5.889808
  S     4.320457  5.725831 -3.090214
  S     6.760316  5.403344 -1.848494
  S     7.298486  9.378323 -5.908942
  S     4.273135  9.013620 -3.167694
  S     6.794354  8.941018 -1.799941
