16  
    
  C     5.470463  6.162562 -4.401911
  C     6.726528  5.645516 -3.938853
  C     5.476126  9.912044 -4.359144
  C     6.638987  9.237589 -3.754322
  N     7.597665  5.392684 -4.928808
  N     5.477735  6.394978 -5.705354
  N     5.197239  5.733794 -1.880285
  N     7.658530  9.024427 -4.560783
  N     5.624618 10.151059 -5.631358
  N     4.804392  9.659995 -1.848379
  S     7.003898  5.924586 -6.364336
  S     4.282092  6.385025 -3.153010
  S     6.799140  5.280293 -2.270172
  S     7.123947  9.503624 -6.030223
  S     4.192865 10.221581 -3.260635
  S     6.389348  9.016208 -2.003070
