16  
    
  C     5.633572  6.578887 -4.508569
  C     6.860227  6.128899 -3.909034
  C     5.573321 10.166324 -4.666339
  C     6.673063  9.614591 -3.927175
  N     7.839309  5.906968 -4.808138
  N     5.709163  6.696219 -5.869203
  N     5.055610  6.439912 -2.052654
  N     7.730004  9.268899 -4.691049
  N     5.709578 10.183513 -6.005949
  N     5.042545 10.105012 -2.069054
  S     7.270583  6.198192 -6.270858
  S     4.314114  7.047729 -3.421623
  S     6.555314  5.740985 -2.217724
  S     7.234235  9.583529 -6.257128
  S     4.249296 10.528607 -3.484893
  S     6.528305  9.430725 -2.189731
