16  
    
  C     5.765144  5.797628 -4.339077
  C     6.908660  5.230054 -3.732681
  C     5.516853  9.402041 -4.368559
  C     6.596979  8.681230 -3.761543
  N     7.840544  4.846777 -4.577775
  N     5.820820  5.988672 -5.658524
  N     5.189542  5.540820 -1.822013
  N     7.657466  8.431605 -4.545481
  N     5.780693  9.705968 -5.640954
  N     4.838191  9.177212 -1.932363
  S     7.338064  5.451888 -6.050198
  S     4.461900  6.055748 -3.212556
  S     6.813453  5.102032 -1.979685
  S     7.281797  9.080464 -5.963931
  S     4.155421  9.763387 -3.361783
  S     6.433124  8.680069 -2.052785
