16  
    
  C     5.807184  5.930661 -4.167670
  C     7.003308  5.286458 -3.733198
  C     5.761700  9.254343 -4.017040
  C     7.055619  8.895389 -3.474815
  N     7.878949  5.024974 -4.721243
  N     5.750964  6.260416 -5.445384
  N     5.266929  5.226729 -1.751917
  N     8.065951  8.847180 -4.373211
  N     5.754856  9.471853 -5.324011
  N     5.323403  8.788166 -1.505857
  S     7.226143  5.805306 -6.138122
  S     4.465508  5.928662 -3.021652
  S     6.821735  4.802232 -2.052015
  S     7.376023  9.129929 -5.869216
  S     4.439908  9.227235 -2.831040
  S     6.913421  8.394322 -1.835466
