16  
    
  C     5.338571  6.004113 -4.367212
  C     6.646165  5.534282 -3.779997
  C     5.514677  9.250583 -4.401075
  C     6.809201  8.927759 -3.773698
  N     7.630897  5.400367 -4.667272
  N     5.355824  6.223283 -5.692100
  N     4.976595  5.838248 -1.868241
  N     7.867866  8.900079 -4.608803
  N     5.681902  9.504873 -5.682515
  N     4.909579  9.102241 -1.960313
  S     6.926100  5.894493 -6.122337
  S     4.098131  6.287186 -3.232100
  S     6.567215  5.364451 -2.075120
  S     7.201710  9.211454 -6.169799
  S     4.104366  9.195907 -3.480471
  S     6.545659  8.789842 -2.012537
