16  
    
  C     5.631333  5.724035 -4.349992
  C     6.842520  5.130607 -3.869952
  C     5.757745  9.897282 -4.497830
  C     6.902048  9.439867 -3.793968
  N     7.880892  5.023089 -4.698899
  N     5.717054  6.138965 -5.598261
  N     5.275894  5.464208 -1.792374
  N     7.945589  9.296579 -4.657298
  N     5.872297 10.177977 -5.801666
  N     4.973776  8.949563 -2.231724
  S     7.215130  5.632791 -6.157206
  S     4.343427  5.928267 -3.141450
  S     6.838140  4.913868 -2.062451
  S     7.434817  9.751078 -6.160312
  S     4.277347  9.550285 -3.571847
  S     6.605415  8.866138 -2.238184
