16  
    
  C     5.654072  5.700297 -4.062424
  C     6.883497  5.146439 -3.492743
  C     5.868282  9.196215 -3.905061
  C     7.110891  8.771209 -3.314439
  N     7.840453  4.946639 -4.428846
  N     5.678158  5.772933 -5.386343
  N     5.188619  5.373131 -1.528241
  N     8.149789  8.760648 -4.190876
  N     5.963568  9.475328 -5.180653
  N     5.285584  9.114857 -1.359095
  S     7.232251  5.475076 -5.859310
  S     4.372713  5.973111 -2.853351
  S     6.780735  4.899438 -1.801819
  S     7.461439  9.221362 -5.687988
  S     4.489334  9.319487 -2.809981
  S     6.901652  8.754942 -1.550249
