16  
    
  C     5.574590  5.866204 -4.532386
  C     6.800721  5.493435 -3.829480
  C     5.609935  9.693063 -4.263953
  C     6.816387  9.129757 -3.703320
  N     7.843577  5.326798 -4.694323
  N     5.716123  6.019658 -5.850593
  N     4.929846  5.640066 -1.973802
  N     7.816032  9.202483 -4.590814
  N     5.627128 10.072073 -5.537742
  N     5.034283  9.189225 -1.800292
  S     7.324718  5.690591 -6.174622
  S     4.265685  6.208679 -3.444782
  S     6.485944  5.108175 -2.115597
  S     7.142342  9.702377 -6.025283
  S     4.297987  9.935989 -3.203945
  S     6.572898  8.805837 -2.011518
