16  
    
  C     5.586570  5.982211 -4.521224
  C     6.779968  5.450772 -3.848404
  C     5.510922  9.741993 -4.363166
  C     6.723508  9.243320 -3.748988
  N     7.895268  5.373738 -4.578557
  N     5.726609  6.136866 -5.825272
  N     5.009019  5.733816 -2.068031
  N     7.768125  9.145012 -4.555062
  N     5.735026 10.095779 -5.618541
  N     4.927561  9.282051 -1.904103
  S     7.297420  5.743578 -6.146819
  S     4.248218  6.159914 -3.475785
  S     6.561260  5.182455 -2.194823
  S     7.293900  9.697905 -6.057938
  S     4.220453  9.912516 -3.202581
  S     6.602659  8.841150 -2.049595
