16  
    
  C     5.522850  5.314004 -4.084133
  C     6.834080  5.255387 -3.577068
  C     5.525336  9.366650 -4.678354
  C     6.673038  8.930272 -3.924061
  N     7.812798  5.274360 -4.466442
  N     5.442883  5.216603 -5.418355
  N     5.330904  5.044970 -1.509120
  N     7.673628  8.574404 -4.729753
  N     5.651480  9.403341 -6.001696
  N     4.832308  9.202919 -2.226020
  S     7.008519  5.281563 -5.947864
  S     4.315909  5.279214 -2.833656
  S     6.977860  4.997042 -1.828272
  S     7.233684  8.882238 -6.258553
  S     4.201277  9.914117 -3.645540
  S     6.418899  8.791193 -2.232045
