16  
    
  C     5.650938  5.807649 -4.140948
  C     6.868150  5.246712 -3.587100
  C     5.729691  9.188755 -4.016875
  C     6.994759  8.849717 -3.395356
  N     7.799188  5.084387 -4.475120
  N     5.698504  6.168962 -5.412765
  N     5.240398  5.218503 -1.671467
  N     8.015967  8.734543 -4.211625
  N     5.817472  9.477742 -5.325077
  N     5.341230  8.927058 -1.506877
  S     7.215555  5.504082 -5.931432
  S     4.461926  5.996343 -2.933761
  S     6.825595  4.837448 -1.941120
  S     7.467868  9.228923 -5.683456
  S     4.476647  9.252843 -2.853927
  S     6.967190  8.589938 -1.662444
