16  
    
  C     5.459277  6.060623 -4.244594
  C     6.696776  5.434505 -3.652618
  C     5.338608  9.542316 -4.388122
  C     6.580468  9.064931 -3.764434
  N     7.637432  5.173485 -4.565060
  N     5.602341  6.420200 -5.520981
  N     4.936202  5.566409 -1.744671
  N     7.649687  9.013328 -4.537047
  N     5.534787  9.853959 -5.668181
  N     4.923582  9.180175 -1.851653
  S     7.065128  5.917294 -5.976408
  S     4.159487  6.181450 -3.073188
  S     6.568013  5.143924 -1.890850
  S     7.130395  9.440643 -6.053665
  S     4.080892  9.615623 -3.223404
  S     6.498671  8.861531 -2.037719
