16  
    
  C     5.709011  5.884726 -4.386364
  C     6.942314  5.405355 -3.843126
  C     5.843864  9.574990 -3.876678
  C     7.079810  8.925273 -3.496343
  N     7.961529  5.322381 -4.704523
  N     5.746779  6.106722 -5.716094
  N     5.194024  5.251793 -1.926064
  N     7.977184  8.759570 -4.457580
  N     5.766253  9.830495 -5.165222
  N     5.420931  8.840848 -1.508240
  S     7.308763  5.726762 -6.223004
  S     4.359100  5.783237 -3.266055
  S     6.828984  5.006089 -2.214903
  S     7.207786  9.277889 -5.849239
  S     4.538435  9.496231 -2.797043
  S     7.007725  8.366734 -1.840609
