16  
    
  C     5.377537  6.035888 -4.422050
  C     6.583627  5.659565 -3.728830
  C     5.626063  9.684809 -4.313445
  C     6.770949  9.087627 -3.622611
  N     7.656194  5.428045 -4.551343
  N     5.511210  6.186204 -5.751328
  N     4.752654  5.927029 -1.942356
  N     7.797879  8.813118 -4.408663
  N     5.802047  9.821770 -5.632477
  N     4.974840  9.374952 -1.772992
  S     7.126539  5.805342 -6.032052
  S     4.067347  6.441044 -3.351939
  S     6.327640  5.399834 -1.991605
  S     7.406631  9.387877 -5.958535
  S     4.275021  9.829711 -3.294903
  S     6.551667  8.893408 -1.900735
