16  
    
  C     5.478951  5.773708 -4.134473
  C     6.474002  4.918688 -3.607658
  C     5.706094  9.510964 -4.455722
  C     6.869181  8.957753 -3.799454
  N     7.325570  4.413107 -4.468622
  N     5.485521  5.942282 -5.435862
  N     4.909036  5.559239 -1.586929
  N     7.909835  8.801794 -4.622952
  N     5.777957  9.568073 -5.791423
  N     4.925998  9.126089 -2.051799
  S     6.894584  5.165536 -5.919500
  S     4.283069  6.235005 -2.960671
  S     6.271703  4.656590 -1.922489
  S     7.263427  9.133072 -6.195247
  S     4.375912  9.913887 -3.398265
  S     6.546343  8.690626 -2.086120
