16  
    
  C     5.619948  5.799968 -4.373465
  C     6.883968  5.148807 -3.948939
  C     5.763224  9.206534 -4.060237
  C     7.022906  8.714855 -3.555299
  N     7.915411  5.259551 -4.757908
  N     5.761966  6.325525 -5.583307
  N     5.387195  5.234522 -1.891527
  N     7.938763  8.734461 -4.484835
  N     5.640618  9.443178 -5.369801
  N     5.394282  8.822370 -1.532960
  S     7.311053  6.023714 -6.139876
  S     4.438421  5.893624 -3.124328
  S     6.960050  4.775988 -2.246111
  S     7.232486  9.211477 -5.906664
  S     4.554648  9.307522 -2.895052
  S     6.986280  8.293814 -1.867196
