16  
    
  C     5.768195  5.570903 -4.215754
  C     6.959917  5.138735 -3.517372
  C     5.438492  9.344326 -4.550162
  C     6.652582  8.973054 -3.887320
  N     7.957842  4.988776 -4.335794
  N     5.905793  5.592346 -5.527971
  N     5.138704  5.273788 -1.762255
  N     7.690033  8.754979 -4.707325
  N     5.533659  9.445482 -5.858507
  N     4.812390  9.187761 -2.114817
  S     7.498117  5.318839 -5.909682
  S     4.445342  5.795006 -3.186292
  S     6.710509  4.737676 -1.857959
  S     7.140171  9.040433 -6.233971
  S     4.117337  9.672939 -3.540117
  S     6.370939  8.581546 -2.217005
