16  
    
  C     5.513886  5.658764 -4.350617
  C     6.589884  5.032383 -3.666036
  C     5.475948  9.731352 -4.594202
  C     6.655485  9.204255 -3.972609
  N     7.659189  4.935537 -4.414574
  N     5.719769  5.888113 -5.634518
  N     4.872142  5.561512 -1.860936
  N     7.684387  9.096084 -4.819464
  N     5.592765 10.098846 -5.861472
  N     4.822119  9.348728 -2.139906
  S     7.307040  5.408762 -5.994930
  S     4.159632  5.953795 -3.332949
  S     6.347095  4.763695 -2.001679
  S     7.184843  9.769383 -6.225414
  S     4.233306  9.984599 -3.530000
  S     6.406955  8.835410 -2.243247
