16  
    
  C     5.607413  6.334468 -4.535767
  C     6.595946  5.558802 -3.871799
  C     5.726129  9.416707 -4.441304
  C     6.961391  9.045286 -3.786125
  N     7.713198  5.291925 -4.588179
  N     5.962379  6.685312 -5.778582
  N     4.562675  5.812113 -2.325011
  N     8.019140  9.051321 -4.571114
  N     5.889100  9.625271 -5.726534
  N     5.050460  9.206009 -1.998655
  S     7.453320  5.945570 -6.115105
  S     4.061723  6.629104 -3.668790
  S     6.070147  5.094765 -2.285803
  S     7.454236  9.488311 -6.081244
  S     4.406234  9.753828 -3.407095
  S     6.652081  8.754126 -2.075714
