16  
    
  C     5.681769  5.884997 -4.482695
  C     6.886425  5.457049 -3.845514
  C     5.522189  9.459471 -4.322365
  C     6.792613  9.144261 -3.692783
  N     7.868943  5.131408 -4.706785
  N     5.796722  5.947018 -5.793182
  N     5.139026  5.518619 -2.003024
  N     7.778131  9.241211 -4.524003
  N     5.601544  9.743302 -5.623199
  N     5.119866  9.039372 -1.742089
  S     7.356719  5.516562 -6.247087
  S     4.370625  6.029150 -3.390450
  S     6.743042  5.303639 -2.140196
  S     7.196191  9.612867 -6.005641
  S     4.243189  9.337277 -3.122442
  S     6.789999  8.790814 -1.941500
