16  
    
  C     5.572499  5.354072 -4.187630
  C     6.819178  5.186199 -3.483125
  C     5.333739  9.189097 -4.347545
  C     6.576687  8.708306 -3.788348
  N     7.854734  4.947428 -4.299633
  N     5.672344  5.320805 -5.511311
  N     4.980430  5.240347 -1.635417
  N     7.565086  8.475918 -4.651523
  N     5.406586  9.358362 -5.664907
  N     4.907982  9.022041 -1.816479
  S     7.258737  5.154213 -5.854876
  S     4.189406  5.559313 -3.098844
  S     6.587396  4.869039 -1.784618
  S     6.919592  8.818344 -6.115525
  S     4.186899  9.739146 -3.141088
  S     6.450663  8.492471 -2.039007
