16  
    
  C     5.714916  6.278793 -4.183237
  C     6.925754  5.665936 -3.660668
  C     5.910557  9.594744 -4.189335
  C     7.151897  9.065688 -3.648042
  N     7.895082  5.353294 -4.552586
  N     5.805934  6.558305 -5.506381
  N     5.144948  5.649622 -1.734661
  N     8.049130  8.718971 -4.561245
  N     5.876641  9.703545 -5.490459
  N     5.463449  9.452033 -1.643876
  S     7.286527  6.005958 -5.975447
  S     4.337047  6.306395 -3.055443
  S     6.715868  5.310304 -1.964379
  S     7.385978  9.153482 -6.047983
  S     4.631519  9.744737 -3.041765
  S     6.999418  8.788074 -1.924496
