16  
    
  C     5.705920  5.774473 -3.944086
  C     6.890825  5.262782 -3.349410
  C     5.490080  9.424265 -3.977235
  C     6.690226  8.930230 -3.368325
  N     7.866489  5.185335 -4.237250
  N     5.768344  6.163552 -5.207027
  N     5.015284  5.271541 -1.574142
  N     7.739301  8.805752 -4.154460
  N     5.672445  9.733584 -5.266801
  N     5.002042  9.139465 -1.462434
  S     7.377371  5.848127 -5.625985
  S     4.295678  5.907194 -2.956504
  S     6.628231  4.682962 -1.702665
  S     7.258127  9.299019 -5.623813
  S     4.275031  9.713715 -2.832284
  S     6.569117  8.541085 -1.693905
