16  
    
  C     5.455271  5.625220 -4.316504
  C     6.715334  5.419454 -3.663899
  C     5.293946 10.176646 -4.589073
  C     6.334604  9.420508 -4.024905
  N     7.801397  5.282716 -4.484244
  N     5.537340  5.641700 -5.645055
  N     4.950052  5.527589 -1.751217
  N     7.322815  8.976233 -4.812366
  N     5.524790 10.387463 -5.906753
  N     4.621539  9.605502 -2.113565
  S     7.171044  5.385297 -5.985125
  S     4.121835  5.562721 -3.172575
  S     6.605737  5.367572 -1.906280
  S     6.933144  9.607377 -6.286950
  S     4.029097 10.501689 -3.465019
  S     6.212158  9.129696 -2.271910
