16  
    
  C     5.297888  6.172940 -4.586001
  C     6.617454  5.812909 -4.055450
  C     5.651931  9.428714 -4.073742
  C     6.897905  8.923468 -3.501300
  N     7.624638  5.760264 -4.918964
  N     5.342400  6.448454 -5.917676
  N     4.980584  5.735430 -2.073845
  N     7.900852  8.863981 -4.417681
  N     5.829653  9.802350 -5.337030
  N     5.172226  8.878673 -1.610554
  S     6.908584  6.241409 -6.475111
  S     4.063185  6.168386 -3.400175
  S     6.602047  5.543749 -2.317901
  S     7.359835  9.450740 -5.841616
  S     4.326378  9.372867 -2.943917
  S     6.835446  8.653795 -1.809729
