16  
    
  C     5.511597  6.134919 -4.351105
  C     6.650387  5.464746 -3.619487
  C     5.718122  9.565632 -4.190408
  C     6.874411  8.999382 -3.577344
  N     7.714893  5.212553 -4.408253
  N     5.732310  6.217857 -5.668446
  N     4.675809  5.647017 -1.948370
  N     7.899429  8.749528 -4.407662
  N     5.869782  9.861206 -5.468175
  N     5.193950  9.596840 -1.699996
  S     7.255603  5.726884 -5.919752
  S     4.088563  6.329635 -3.336871
  S     6.288434  5.160062 -1.955412
  S     7.333924  9.277958 -5.947050
  S     4.363368  9.930331 -3.153606
  S     6.725572  8.814390 -1.878258
