16  
    
  C     5.636204  5.942933 -4.085308
  C     6.700315  5.100332 -3.566354
  C     5.794363  9.573796 -4.513183
  C     6.918117  8.879121 -3.892524
  N     7.707197  4.749238 -4.405275
  N     5.813536  6.191115 -5.382783
  N     5.060753  5.597717 -1.639421
  N     7.895591  8.572428 -4.732802
  N     5.890690  9.775558 -5.804543
  N     5.207321  9.383283 -1.985671
  S     7.241884  5.470625 -5.893565
  S     4.369553  6.359409 -3.011001
  S     6.510398  4.751109 -1.834979
  S     7.294162  9.130797 -6.278245
  S     4.429440  9.794554 -3.423245
  S     6.745686  8.779553 -2.170161
