16  
    
  C     5.444316  5.731038 -4.347913
  C     6.646039  5.385785 -3.625645
  C     5.702415  9.058835 -4.131130
  C     6.996188  8.822595 -3.541196
  N     7.731291  5.372443 -4.365917
  N     5.668417  5.938291 -5.630506
  N     4.724192  5.461020 -1.990864
  N     8.013527  8.920840 -4.424254
  N     5.712403  9.308775 -5.437776
  N     5.255022  8.716283 -1.716408
  S     7.274619  5.712630 -5.950460
  S     4.076050  6.100818 -3.365648
  S     6.388951  5.209963 -1.968546
  S     7.339414  9.100958 -5.892573
  S     4.382193  8.943938 -3.110305
  S     6.859322  8.436671 -1.835671
