16  
    
  C     5.560941  5.227533 -4.238486
  C     6.879947  5.189991 -3.711025
  C     5.463580  9.252251 -4.524433
  C     6.651324  8.826801 -3.806988
  N     7.830762  5.096853 -4.629263
  N     5.461691  5.047797 -5.561251
  N     5.222570  5.211747 -1.701477
  N     7.735036  8.695866 -4.566506
  N     5.675994  9.357247 -5.830418
  N     4.743091  9.142857 -2.060785
  S     7.027606  5.096487 -6.097744
  S     4.334104  5.331094 -3.045791
  S     6.866346  4.990305 -1.968954
  S     7.248176  8.915281 -6.094633
  S     4.086623  9.601565 -3.531084
  S     6.374581  8.673918 -2.084198
