16  
    
  C     5.505850  5.621768 -4.356305
  C     6.639919  5.091160 -3.685296
  C     5.497154  9.719334 -4.604732
  C     6.660737  9.124851 -3.993318
  N     7.710574  4.864680 -4.460581
  N     5.660464  5.914259 -5.665057
  N     4.786800  5.437945 -1.887680
  N     7.786957  9.180914 -4.717958
  N     5.709383 10.069859 -5.869105
  N     4.790386  9.298268 -2.193605
  S     7.198984  5.441926 -5.931875
  S     4.154947  6.101923 -3.281563
  S     6.325667  4.768184 -1.971467
  S     7.276264  9.803560 -6.221170
  S     4.167848 10.017317 -3.546437
  S     6.343420  8.724450 -2.281239
