16  
    
  C     5.582157  5.790348 -4.444713
  C     6.826323  5.471927 -3.849435
  C     5.171216  9.768677 -4.383429
  C     6.308935  9.203026 -3.686198
  N     7.803972  5.208243 -4.682212
  N     5.689259  5.932695 -5.737562
  N     5.140161  5.739759 -1.967262
  N     7.260900  8.761129 -4.501633
  N     5.279676  9.685815 -5.729051
  N     4.624116  9.776465 -1.893195
  S     7.260516  5.557880 -6.231503
  S     4.255501  5.822241 -3.360488
  S     6.727503  5.329203 -2.128943
  S     6.773089  9.020989 -6.012319
  S     3.752331 10.058471 -3.354572
  S     6.159851  9.157624 -2.018184
