16  
    
  C     5.557342  6.326350 -4.473088
  C     6.703462  5.709611 -3.910174
  C     5.364812  9.916776 -4.718205
  C     6.597940  9.570076 -4.099054
  N     7.763814  5.523957 -4.706099
  N     5.757773  6.614875 -5.762660
  N     4.998095  5.934861 -2.025575
  N     7.671343  9.426780 -4.844168
  N     5.503111 10.122722 -6.020445
  N     4.925795  9.730076 -2.106566
  S     7.272738  6.132589 -6.225225
  S     4.233776  6.525596 -3.374866
  S     6.633725  5.565742 -2.186066
  S     7.125612  9.744195 -6.401319
  S     4.051702 10.122238 -3.579071
  S     6.564852  9.554407 -2.325448
