16  
    
  C     5.566906  5.972126 -4.321145
  C     6.817179  5.491295 -3.782682
  C     5.803286  9.373426 -4.229339
  C     7.055404  8.874111 -3.683360
  N     7.836854  5.508216 -4.651091
  N     5.676865  6.362583 -5.593453
  N     5.199212  5.719699 -1.841557
  N     8.007872  8.731056 -4.555830
  N     5.830986  9.651125 -5.512713
  N     5.340975  9.102323 -1.688896
  S     7.244068  6.055815 -6.097290
  S     4.332034  6.173758 -3.161255
  S     6.755029  5.140118 -2.092656
  S     7.461199  9.302085 -5.996782
  S     4.489135  9.585034 -3.074893
  S     6.916885  8.806413 -1.999206
