16  
    
  C     5.501664  5.874134 -4.424244
  C     6.711719  5.623055 -3.683531
  C     5.631340  8.933496 -4.175750
  C     6.920743  8.729178 -3.558509
  N     7.793064  5.536532 -4.473474
  N     5.637793  5.948115 -5.741157
  N     4.837547  5.654993 -1.935240
  N     7.936890  8.757597 -4.383400
  N     5.685540  9.158783 -5.489341
  N     5.198254  8.809194 -1.575127
  S     7.257876  5.795306 -6.043784
  S     4.105743  5.952844 -3.369584
  S     6.460292  5.329660 -1.988049
  S     7.372219  9.179295 -5.851012
  S     4.297637  9.001547 -2.985121
  S     6.777387  8.447415 -1.850348
