16  
    
  C     5.488625  5.889855 -4.445638
  C     6.648930  5.284189 -3.744982
  C     5.466311  9.449099 -4.115001
  C     6.715252  8.932237 -3.604286
  N     7.708675  5.039769 -4.517719
  N     5.713062  6.166199 -5.746895
  N     4.754008  5.725712 -1.995378
  N     7.652625  8.735861 -4.555886
  N     5.468365  9.659112 -5.423940
  N     5.009193  9.180645 -1.643795
  S     7.210617  5.596004 -6.062290
  S     4.150836  6.148305 -3.451869
  S     6.333929  5.113526 -2.076437
  S     6.970405  9.307387 -6.008922
  S     4.247010  9.646510 -2.986226
  S     6.682267  8.790399 -1.817183
