16  
    
  C     5.269937  6.304627 -4.495363
  C     6.392789  5.670732 -3.815260
  C     5.435311  9.588313 -4.157162
  C     6.648904  9.278470 -3.470117
  N     7.434231  5.436880 -4.576506
  N     5.507800  6.498421 -5.771681
  N     4.603961  5.863985 -2.032328
  N     7.721778  9.119380 -4.269759
  N     5.586932  9.700576 -5.516467
  N     4.923029  9.378901 -1.613078
  S     7.031123  5.996348 -6.158624
  S     3.889987  6.468915 -3.424555
  S     6.215232  5.493032 -2.104178
  S     7.195154  9.508469 -5.764402
  S     4.057133  9.505247 -3.031604
  S     6.522792  8.888449 -1.748969
