16  
    
  C     5.601471  5.898373 -4.275310
  C     6.779944  5.401843 -3.622345
  C     5.757129  9.509245 -4.431381
  C     6.963616  9.196844 -3.770309
  N     7.870412  5.230296 -4.431055
  N     5.691516  6.107981 -5.559325
  N     4.998644  5.920889 -1.826377
  N     8.025270  8.982940 -4.578885
  N     5.963202  9.629242 -5.746688
  N     5.035944  9.256250 -1.986394
  S     7.221616  5.744360 -6.024109
  S     4.260316  6.132167 -3.252922
  S     6.614505  5.362532 -1.897049
  S     7.522692  9.291985 -6.110924
  S     4.315584  9.543369 -3.475204
  S     6.692685  9.014715 -2.010953
