16  
    
  C     5.589613  5.746182 -4.334369
  C     6.876672  5.318158 -3.751385
  C     5.501301  9.384280 -4.694940
  C     6.700076  9.141692 -3.943333
  N     7.877994  5.191834 -4.613773
  N     5.679962  5.924803 -5.634239
  N     5.171661  5.735970 -1.826660
  N     7.835260  9.272257 -4.652128
  N     5.672621  9.577223 -5.983752
  N     4.849681  9.276207 -2.142922
  S     7.199545  5.444799 -6.141149
  S     4.286555  6.059128 -3.227575
  S     6.719970  5.098572 -2.036978
  S     7.288900  9.693895 -6.207489
  S     4.136311  9.608644 -3.622730
  S     6.487080  8.972416 -2.281787
