16  
    
  C     5.516714  6.071340 -4.345799
  C     6.691449  5.572721 -3.629823
  C     5.654245  9.383536 -4.487008
  C     6.870520  9.102412 -3.733200
  N     7.775726  5.298280 -4.402312
  N     5.664600  6.174858 -5.665049
  N     5.008245  5.956358 -1.760874
  N     7.938166  9.134443 -4.515441
  N     5.857121  9.575292 -5.807204
  N     5.057461  9.207821 -1.941156
  S     7.228646  5.706460 -6.031316
  S     4.202775  6.236984 -3.167787
  S     6.591080  5.509844 -1.967020
  S     7.461867  9.301543 -6.062650
  S     4.301708  9.647182 -3.407823
  S     6.613918  8.859244 -2.081110
