16  
    
  C     5.312673  6.205575 -4.478367
  C     6.454383  5.683929 -3.796043
  C     5.456802  9.584699 -4.165091
  C     6.666910  9.166340 -3.467053
  N     7.521724  5.335059 -4.566519
  N     5.548467  6.477503 -5.772596
  N     4.606716  5.868852 -2.026564
  N     7.703497  9.091439 -4.259604
  N     5.605592  9.770239 -5.454542
  N     4.868061  9.433485 -1.672766
  S     7.073108  5.943352 -6.121080
  S     3.948352  6.442845 -3.389703
  S     6.197394  5.505508 -2.089354
  S     7.233475  9.467201 -5.794526
  S     4.147535  9.548014 -3.113050
  S     6.524053  8.893218 -1.764691
