16  
    
  C     5.521085  5.318265 -4.080169
  C     6.881772  5.249391 -3.616557
  C     5.546328  9.302368 -4.589459
  C     6.695419  8.808688 -3.873397
  N     7.782032  5.311569 -4.580465
  N     5.428092  5.400762 -5.397171
  N     5.413482  5.204231 -1.509996
  N     7.731250  8.656509 -4.693025
  N     5.695716  9.440981 -5.907533
  N     4.777759  9.181175 -2.146429
  S     6.957941  5.393863 -6.042978
  S     4.387083  5.328645 -2.818730
  S     7.019196  5.109436 -1.903904
  S     7.282477  8.965909 -6.207062
  S     4.238384  9.875505 -3.588443
  S     6.277626  8.629434 -2.175329
