16  
    
  C     5.502362  5.515999 -4.298372
  C     6.778214  5.433856 -3.603159
  C     5.294752 10.095304 -4.602945
  C     6.350478  9.282405 -3.959712
  N     7.820687  5.286550 -4.365090
  N     5.592886  5.567194 -5.642154
  N     4.959457  5.500908 -1.773712
  N     7.312241  9.000977 -4.801207
  N     5.484526 10.354933 -5.865237
  N     4.558990  9.670258 -2.149687
  S     7.177903  5.350406 -5.996901
  S     4.181782  5.595387 -3.176591
  S     6.610340  5.375398 -1.882040
  S     6.926928  9.554268 -6.308796
  S     4.025638 10.504247 -3.446190
  S     6.179992  9.148384 -2.304874
