16  
    
  C     5.540908  5.457381 -4.186148
  C     6.785209  5.138435 -3.496032
  C     5.369599  9.209297 -4.311260
  C     6.553070  8.617528 -3.716947
  N     7.874988  4.987467 -4.230433
  N     5.699254  5.352156 -5.498153
  N     5.001029  5.307489 -1.668982
  N     7.559141  8.416347 -4.569107
  N     5.380580  9.325513 -5.623251
  N     4.899936  9.033240 -1.773677
  S     7.322001  5.153994 -5.866288
  S     4.162969  5.697881 -3.083210
  S     6.597068  4.817132 -1.838391
  S     6.910502  8.869864 -6.100348
  S     4.213698  9.737364 -3.149281
  S     6.445493  8.481450 -2.028591
