16  
    
  C     5.818471  5.494772 -4.303113
  C     7.097332  5.188444 -3.681489
  C     5.462728  9.372538 -4.408974
  C     6.631466  8.786646 -3.771032
  N     8.131369  5.172768 -4.513880
  N     5.831607  5.732284 -5.594978
  N     5.305253  5.206480 -1.765076
  N     7.601095  8.386823 -4.580500
  N     5.580587  9.457312 -5.727162
  N     4.906423  9.499316 -1.906339
  S     7.392774  5.381193 -6.053069
  S     4.499254  5.556644 -3.176231
  S     6.893192  4.948514 -2.018778
  S     7.102601  8.814052 -6.132175
  S     4.128256  9.743706 -3.387793
  S     6.373779  8.713517 -2.024003
