16  
    
  C     5.267132  6.298009 -4.381455
  C     6.369631  5.686411 -3.744404
  C     5.622610  9.525004 -4.287191
  C     6.802569  9.069702 -3.649364
  N     7.388524  5.248732 -4.489792
  N     5.434557  6.523121 -5.662699
  N     4.650215  6.242595 -1.847772
  N     7.864848  9.011763 -4.505245
  N     5.687322  9.690661 -5.635689
  N     5.016867  9.473837 -1.726077
  S     6.964278  5.909490 -5.998431
  S     3.981558  6.768356 -3.272158
  S     6.137185  5.547721 -2.009859
  S     7.273260  9.323417 -6.015687
  S     4.269670  9.834806 -3.162873
  S     6.601339  8.915902 -1.965430
