16  
    
  C     5.445332  5.994355 -4.526784
  C     6.693869  5.478299 -3.883616
  C     5.398448  9.855057 -4.533444
  C     6.537149  9.300329 -3.824629
  N     7.691947  5.230561 -4.725225
  N     5.577791  6.221778 -5.813833
  N     5.035499  5.781560 -1.977172
  N     7.566024  9.141467 -4.651488
  N     5.597285 10.095713 -5.872863
  N     4.888330  9.675253 -1.991857
  S     7.092018  5.672324 -6.224949
  S     4.204667  6.367288 -3.313350
  S     6.610150  5.373096 -2.127594
  S     7.211867  9.741804 -6.147970
  S     4.026774  9.927867 -3.393879
  S     6.458645  9.037420 -2.164466
