16  
    
  C     5.637110  5.776376 -4.199871
  C     6.835944  5.400788 -3.609700
  C     5.591279  9.375940 -4.337019
  C     6.813407  9.005858 -3.696873
  N     7.860036  5.287022 -4.452257
  N     5.725397  5.936971 -5.507191
  N     5.058029  5.526129 -1.721906
  N     7.842493  8.917817 -4.558835
  N     5.645829  9.578743 -5.661276
  N     5.023045  9.070618 -1.851981
  S     7.235342  5.521992 -5.975863
  S     4.229290  5.778391 -3.168405
  S     6.688035  5.153192 -1.854447
  S     7.239845  9.353643 -6.073030
  S     4.254805  9.611262 -3.205377
  S     6.641095  8.756392 -2.036949
