16  
    
  C     5.482697  5.930321 -4.496075
  C     6.788446  5.602205 -3.844931
  C     5.431687  9.447222 -4.337302
  C     6.701371  9.028929 -3.750179
  N     7.833168  5.391061 -4.651762
  N     5.601622  5.964338 -5.838963
  N     5.047106  5.749683 -1.908236
  N     7.661702  8.878497 -4.676189
  N     5.438026  9.731198 -5.628515
  N     5.027363  9.434346 -1.806537
  S     7.196603  5.644013 -6.174310
  S     4.183550  5.918387 -3.356691
  S     6.667213  5.474294 -2.117798
  S     6.986592  9.341320 -6.141743
  S     4.166179  9.853579 -3.212775
  S     6.629559  9.208566 -2.034768
