16  
    
  C     5.537863  5.314808 -4.152034
  C     6.819872  5.117071 -3.529193
  C     5.684870  9.170006 -4.084793
  C     6.918516  8.734607 -3.474486
  N     7.843103  4.969023 -4.369144
  N     5.600184  5.353927 -5.475040
  N     5.028992  5.244237 -1.696371
  N     7.956509  8.618391 -4.286392
  N     5.846243  9.385898 -5.390052
  N     5.274612  9.260253 -1.551409
  S     7.159142  5.229186 -5.876132
  S     4.182533  5.516900 -3.121081
  S     6.691572  5.025752 -1.790699
  S     7.382169  9.042018 -5.794017
  S     4.407949  9.559891 -2.908703
  S     6.826157  8.667415 -1.768888
