16  
    
  C     5.582211  5.935139 -4.267372
  C     6.789639  5.419857 -3.623483
  C     5.746723  9.532200 -4.496431
  C     6.979265  9.209942 -3.708916
  N     7.756330  5.242331 -4.481467
  N     5.689114  6.153773 -5.594158
  N     5.074781  5.977138 -1.797696
  N     8.021407  8.989232 -4.507726
  N     5.870538  9.570250 -5.795441
  N     5.058049  9.224188 -1.997549
  S     7.227927  5.723025 -5.970076
  S     4.207158  6.163012 -3.259600
  S     6.632246  5.407777 -1.882956
  S     7.505521  9.300252 -6.080481
  S     4.262426  9.575028 -3.499463
  S     6.677936  8.943215 -2.044533
