16  
    
  C     5.622586  5.731058 -4.339045
  C     6.872823  5.165480 -3.838589
  C     5.720786  9.882081 -4.497167
  C     6.900764  9.415107 -3.838817
  N     7.858140  5.027502 -4.710643
  N     5.735501  6.114418 -5.598568
  N     5.259828  5.489298 -1.780071
  N     7.948870  9.290367 -4.683864
  N     5.848347 10.156046 -5.807515
  N     4.951743  8.964693 -2.222442
  S     7.216856  5.613703 -6.157589
  S     4.338101  5.941264 -3.142654
  S     6.829119  4.928490 -2.075935
  S     7.437284  9.749568 -6.152769
  S     4.261169  9.530783 -3.592062
  S     6.595243  8.879674 -2.237086
