16  
    
  C     5.633884  5.725255 -4.350735
  C     6.826004  5.086661 -3.861857
  C     5.755013  9.908435 -4.498825
  C     6.924470  9.466266 -3.793250
  N     7.877731  5.024899 -4.695873
  N     5.700331  6.159311 -5.609994
  N     5.288023  5.435591 -1.812589
  N     7.948737  9.303496 -4.614618
  N     5.902440 10.194880 -5.783715
  N     4.996756  8.930279 -2.231128
  S     7.216497  5.658347 -6.153679
  S     4.363334  5.905978 -3.138834
  S     6.843174  4.897202 -2.059248
  S     7.434864  9.755484 -6.166177
  S     4.298609  9.585309 -3.551111
  S     6.624074  8.845940 -2.228820
