16  
    
  C     5.489400  6.173104 -4.401709
  C     6.726543  5.617024 -3.941868
  C     5.466956  9.893025 -4.332950
  C     6.631448  9.244181 -3.738786
  N     7.598671  5.398246 -4.938858
  N     5.470803  6.411686 -5.709198
  N     5.191992  5.712446 -1.860482
  N     7.642434  9.002101 -4.571151
  N     5.622207 10.142262 -5.623209
  N     4.819903  9.691266 -1.841834
  S     7.009857  5.934198 -6.370681
  S     4.277312  6.387748 -3.153075
  S     6.791628  5.282862 -2.256381
  S     7.125432  9.511099 -6.036403
  S     4.201728 10.214355 -3.265639
  S     6.397279  9.011615 -1.971215
