16  
    
  C     5.432745  5.997037 -4.266742
  C     6.600400  5.476644 -3.680137
  C     5.517183  9.636894 -4.237959
  C     6.680757  9.074204 -3.631735
  N     7.611242  5.193332 -4.504279
  N     5.523058  6.333391 -5.571463
  N     4.884932  5.578124 -1.719006
  N     7.739520  8.866125 -4.431621
  N     5.661117  9.857373 -5.558361
  N     4.851979  9.346091 -1.859456
  S     6.975329  5.726715 -5.978787
  S     4.146124  6.261565 -3.038997
  S     6.491387  5.203440 -1.973984
  S     7.215055  9.480821 -5.957699
  S     4.113695  9.666112 -3.303652
  S     6.384041  8.783175 -1.900020
