16  
    
  C     5.645597  5.779867 -4.201991
  C     6.859588  5.412636 -3.602304
  C     5.595305  9.397347 -4.341405
  C     6.823574  9.004532 -3.709744
  N     7.876033  5.269503 -4.450250
  N     5.726044  5.936898 -5.509901
  N     5.058502  5.522108 -1.721477
  N     7.856378  8.915354 -4.558459
  N     5.664416  9.594283 -5.636100
  N     5.020758  9.052399 -1.856843
  S     7.240247  5.531543 -5.974346
  S     4.227158  5.770573 -3.166677
  S     6.703597  5.148348 -1.855612
  S     7.240732  9.359538 -6.078504
  S     4.255761  9.614146 -3.216801
  S     6.653502  8.763148 -2.040545
