16  
    
  C     5.541562  5.650971 -4.525421
  C     6.843376  5.423335 -3.851667
  C     5.404850  9.618136 -4.230544
  C     6.631814  9.156191 -3.631542
  N     7.845995  5.552842 -4.685100
  N     5.603595  5.931307 -5.819737
  N     5.117936  5.419629 -2.001962
  N     7.679285  9.030044 -4.461820
  N     5.490586  9.929709 -5.538034
  N     4.975357  9.290686 -1.701451
  S     7.232838  5.871740 -6.208668
  S     4.199380  5.483835 -3.357302
  S     6.774226  5.100262 -2.126836
  S     7.113104  9.552077 -5.961502
  S     4.097390  9.644328 -3.079304
  S     6.630539  9.039690 -1.921325
