16  
    
  C     5.465863  5.986126 -4.553214
  C     6.742582  5.613434 -3.978706
  C     5.791794  9.471376 -4.160066
  C     7.069263  9.112282 -3.537687
  N     7.738374  5.586237 -4.856862
  N     5.506184  6.348021 -5.860672
  N     5.027602  5.691953 -2.066445
  N     8.047462  8.966289 -4.468044
  N     5.818645  9.515765 -5.484458
  N     5.275069  9.062754 -1.724158
  S     7.105828  6.149396 -6.306310
  S     4.152170  5.978224 -3.423650
  S     6.666067  5.396415 -2.270186
  S     7.378649  9.321191 -5.946974
  S     4.448362  9.546517 -3.056226
  S     6.955444  8.731550 -1.877488
