16  
    
  C     5.295927  6.384718 -4.590407
  C     6.557962  5.961840 -3.929083
  C     5.740923  9.597462 -4.413571
  C     7.019188  9.263788 -3.817323
  N     7.539871  5.833982 -4.817401
  N     5.358999  6.406038 -5.908513
  N     4.799379  6.380782 -2.025394
  N     8.009496  9.094754 -4.684159
  N     5.742563  9.690503 -5.745892
  N     5.288082  9.470421 -1.872825
  S     6.936252  6.017679 -6.285180
  S     3.980565  6.808516 -3.454983
  S     6.386071  5.922818 -2.178817
  S     7.360887  9.389113 -6.177405
  S     4.436433  9.794532 -3.241532
  S     6.924370  9.074676 -2.126631
