16  
    
  C     5.555541  5.477451 -4.282912
  C     6.779918  5.403947 -3.563563
  C     5.284199  9.994452 -4.566988
  C     6.336339  9.249331 -3.993090
  N     7.843721  5.292131 -4.365395
  N     5.629037  5.481988 -5.582063
  N     4.989386  5.487568 -1.759816
  N     7.359067  8.973388 -4.811370
  N     5.456729 10.301075 -5.875979
  N     4.585535  9.715844 -2.174481
  S     7.213499  5.330967 -5.983549
  S     4.209124  5.628529 -3.214849
  S     6.633528  5.375891 -1.848236
  S     6.898423  9.531295 -6.309111
  S     4.004838 10.496869 -3.463844
  S     6.127765  9.151715 -2.280143
