16  
    
  C     5.294463  5.825530 -4.433415
  C     6.631466  5.436148 -3.855719
  C     5.365833  9.556573 -4.535584
  C     6.518475  9.008984 -3.856580
  N     7.591275  5.257567 -4.742377
  N     5.367912  6.046908 -5.726447
  N     4.947937  5.726231 -1.878319
  N     7.537211  8.675914 -4.654969
  N     5.524896  9.629107 -5.879468
  N     4.778140  9.647491 -2.026944
  S     6.882184  5.527393 -6.232791
  S     4.024086  6.086304 -3.285679
  S     6.532989  5.258310 -2.164989
  S     7.041358  9.120120 -6.235078
  S     4.069638 10.017702 -3.445244
  S     6.366010  9.148436 -2.149790
