16  
    
  C     5.654125  5.697229 -4.243290
  C     6.900061  5.246191 -3.611519
  C     5.682999  9.690792 -4.357429
  C     6.906999  9.173707 -3.785343
  N     7.891838  5.285058 -4.487923
  N     5.782776  5.979633 -5.545740
  N     5.209139  5.366060 -1.713089
  N     7.894396  8.903318 -4.636419
  N     5.840616  9.999221 -5.674488
  N     5.124722  8.973914 -1.991006
  S     7.339360  5.685065 -5.959728
  S     4.399836  5.666001 -3.106256
  S     6.806916  5.071412 -1.918231
  S     7.348234  9.426917 -6.131835
  S     4.382496  9.614973 -3.293122
  S     6.763675  8.810835 -2.035642
