16  
    
  C     5.417275  6.121420 -4.188185
  C     6.720838  5.649237 -3.602941
  C     5.691506  9.651629 -4.424796
  C     6.847690  9.239791 -3.664701
  N     7.710338  5.525905 -4.510796
  N     5.437869  6.226200 -5.530505
  N     4.999747  5.702956 -1.608410
  N     7.886482  9.037519 -4.458624
  N     5.840820  9.718675 -5.743897
  N     4.836874  9.357663 -1.986559
  S     6.969733  5.790926 -5.960175
  S     4.163725  6.233222 -2.976464
  S     6.593332  5.234259 -1.888393
  S     7.378920  9.350442 -6.050683
  S     4.330604  9.928820 -3.443249
  S     6.486626  9.020700 -1.931570
