16  
    
  C     5.591513  5.640263 -4.395657
  C     6.821742  5.203891 -3.734750
  C     5.463474  9.930805 -4.390060
  C     6.682974  9.320702 -3.867770
  N     7.837646  5.004096 -4.562874
  N     5.740034  5.830467 -5.701420
  N     5.034829  5.414315 -1.896206
  N     7.555130  9.067723 -4.815598
  N     5.376305 10.038209 -5.710654
  N     4.945376  9.564595 -1.936055
  S     7.311250  5.419323 -6.127162
  S     4.293391  5.869595 -3.328004
  S     6.660965  5.069156 -2.017688
  S     6.888605  9.482221 -6.265552
  S     4.154272 10.091902 -3.306677
  S     6.525944  9.022223 -2.144086
