16  
    
  C     5.550696  5.180165 -4.299464
  C     6.852920  5.137450 -3.720018
  C     5.540856  9.325661 -4.515338
  C     6.724664  8.963218 -3.747645
  N     7.820067  5.090615 -4.617815
  N     5.479429  5.184713 -5.653121
  N     5.297075  5.221435 -1.657166
  N     7.813468  8.751880 -4.482318
  N     5.728854  9.389680 -5.816977
  N     4.749022  9.147375 -2.078615
  S     7.115189  5.030861 -6.114578
  S     4.319937  5.388947 -3.049495
  S     6.892560  4.979143 -1.990116
  S     7.312975  8.966214 -6.129075
  S     4.145440  9.624254 -3.555380
  S     6.316054  8.651440 -2.037998
