16  
    
  C     5.229882  6.351930 -4.452872
  C     6.480557  6.016404 -3.825250
  C     5.503227  9.630131 -4.254274
  C     6.780861  9.309723 -3.748277
  N     7.579840  5.998304 -4.599876
  N     5.341940  6.523745 -5.799279
  N     4.661425  5.990375 -1.972370
  N     7.797464  9.340255 -4.627936
  N     5.544165  9.927753 -5.535007
  N     5.080856  9.300065 -1.782399
  S     6.923500  6.273040 -6.144135
  S     3.914483  6.408333 -3.407777
  S     6.325159  5.902521 -2.110895
  S     7.062160  9.709103 -6.097110
  S     4.196039  9.668615 -3.141632
  S     6.630943  9.014779 -2.037892
