16  
    
  C     5.536638  5.960054 -4.433432
  C     6.773655  5.687477 -3.682815
  C     5.659342  9.452349 -4.402645
  C     6.860677  9.120243 -3.665243
  N     7.784267  5.470441 -4.535837
  N     5.762956  6.104398 -5.735168
  N     4.823717  5.787311 -1.934596
  N     7.875270  9.071498 -4.542923
  N     5.678192  9.598194 -5.751175
  N     4.951952  9.507539 -1.896952
  S     7.329741  5.712712 -6.118531
  S     4.173471  6.194869 -3.415217
  S     6.525311  5.684438 -1.928896
  S     7.307118  9.350637 -6.061820
  S     4.266256  9.542543 -3.381091
  S     6.606907  9.063959 -1.934916
