16  
    
  C     5.661795  5.820536 -4.360850
  C     6.871712  5.147642 -3.910650
  C     5.762164  9.229166 -4.060574
  C     7.025638  8.753438 -3.554082
  N     7.901833  5.233144 -4.764842
  N     5.768795  6.342589 -5.597857
  N     5.377122  5.242575 -1.866920
  N     7.969582  8.772872 -4.487732
  N     5.696764  9.432483 -5.364531
  N     5.373714  8.816512 -1.524396
  S     7.278947  5.996889 -6.109141
  S     4.465064  5.892661 -3.124292
  S     6.946770  4.777822 -2.222129
  S     7.227242  9.195744 -5.920378
  S     4.549341  9.287666 -2.894252
  S     6.963834  8.287630 -1.837808
