16  
    
  C     5.376643  6.142676 -4.407321
  C     6.486897  5.562042 -3.730409
  C     5.567895  9.532627 -4.189525
  C     6.822989  9.072105 -3.562357
  N     7.594062  5.405532 -4.489178
  N     5.577406  6.298898 -5.700515
  N     4.686831  5.878871 -1.992644
  N     7.887354  8.930166 -4.393985
  N     5.783708  9.849014 -5.468395
  N     4.889245  9.420802 -1.786834
  S     7.092954  5.851343 -6.079595
  S     4.024175  6.457510 -3.446896
  S     6.300703  5.458966 -2.011306
  S     7.279307  9.420655 -5.868771
  S     4.162956  9.705768 -3.208116
  S     6.499219  8.915580 -1.811597
