16  
    
  C     5.427878  5.785241 -4.402746
  C     6.588103  5.447481 -3.714792
  C     5.255447  9.510749 -4.378142
  C     6.552240  9.239729 -3.813290
  N     7.646719  5.343170 -4.479900
  N     5.562677  5.917004 -5.709968
  N     4.724952  5.758946 -1.931602
  N     7.587176  9.018787 -4.634640
  N     5.292036  9.374673 -5.683076
  N     4.823570  9.250172 -1.830593
  S     7.158725  5.534938 -6.064620
  S     4.011313  6.122467 -3.401950
  S     6.320983  5.212427 -2.078605
  S     6.926061  9.023468 -6.153296
  S     3.970374  9.739103 -3.194208
  S     6.451999  8.968109 -2.055533
