16  
    
  C     5.112500  6.262777 -4.352271
  C     6.250530  5.699491 -3.604198
  C     5.773507  9.647131 -4.228459
  C     6.955860  9.097749 -3.623366
  N     7.349225  5.436547 -4.332323
  N     5.356360  6.485097 -5.653019
  N     4.430139  6.124705 -1.889354
  N     7.986061  8.897031 -4.397913
  N     5.835873  9.731555 -5.525645
  N     5.437378  9.521863 -1.643400
  S     6.867536  5.951886 -5.869796
  S     3.876310  6.735689 -3.286269
  S     5.906303  5.357838 -1.945502
  S     7.401718  9.246495 -5.959708
  S     4.589375  9.961172 -3.007110
  S     6.881414  8.855960 -1.888715
