16  
    
  C     5.539102  5.677651 -4.402137
  C     6.725429  5.333044 -3.781384
  C     5.441712  9.585236 -4.615425
  C     6.704546  9.330779 -3.953694
  N     7.689676  5.073961 -4.646826
  N     5.588537  5.811486 -5.721633
  N     5.086219  5.701849 -1.815022
  N     7.777997  9.300787 -4.728453
  N     5.558799  9.631844 -5.957954
  N     4.822673  9.335634 -2.120452
  S     7.184181  5.538057 -6.134530
  S     4.309927  6.071671 -3.254240
  S     6.701024  5.255753 -2.029307
  S     7.191373  9.363562 -6.309668
  S     4.055444  9.676303 -3.589793
  S     6.453141  9.006488 -2.192183
