16  
    
  C     5.618524  5.743783 -4.277964
  C     6.767616  5.117030 -3.600917
  C     5.416837  9.132643 -4.187527
  C     6.635246  8.722820 -3.542287
  N     7.709535  4.757960 -4.443139
  N     5.767251  5.873677 -5.592221
  N     5.030454  5.624021 -1.779684
  N     7.722043  8.617402 -4.340977
  N     5.550339  9.350948 -5.486424
  N     4.815881  8.972107 -1.684210
  S     7.284103  5.291349 -5.975664
  S     4.274826  6.147235 -3.171781
  S     6.510582  4.877608 -1.930783
  S     7.136323  8.955505 -5.854512
  S     4.107954  9.514559 -3.114493
  S     6.394359  8.567275 -1.795295
