16  
    
  C     5.383509  6.270656 -4.339478
  C     6.470980  5.669384 -3.610573
  C     5.499767  9.695277 -4.243463
  C     6.640573  9.200512 -3.554060
  N     7.563176  5.389952 -4.338534
  N     5.573584  6.330040 -5.662814
  N     4.614861  5.954133 -1.962478
  N     7.686014  8.797343 -4.267317
  N     5.703857  9.770950 -5.562455
  N     4.881558  9.636372 -1.728907
  S     7.057656  5.745492 -5.903158
  S     3.950003  6.544301 -3.350391
  S     6.251188  5.572867 -1.894676
  S     7.288832  9.277505 -5.815165
  S     4.241728 10.008504 -3.127095
  S     6.446115  8.950190 -1.800003
