16  
    
  C     5.437318  5.723127 -4.358159
  C     6.641682  5.407260 -3.630472
  C     5.706545  9.049372 -4.158853
  C     6.970326  8.780895 -3.514719
  N     7.722419  5.461376 -4.379766
  N     5.659481  5.952050 -5.651791
  N     4.722380  5.469267 -1.967064
  N     7.968669  8.906760 -4.374737
  N     5.707707  9.261675 -5.453502
  N     5.252886  8.726322 -1.721122
  S     7.289227  5.717286 -5.973237
  S     4.096532  6.092591 -3.356673
  S     6.400389  5.236529 -1.970419
  S     7.329719  9.115063 -5.884074
  S     4.374435  8.949535 -3.101487
  S     6.869843  8.423227 -1.832904
