16  
    
  C     5.612080  6.115978 -4.406099
  C     6.700442  5.539484 -3.689098
  C     5.294798  9.675609 -4.259465
  C     6.600717  9.372471 -3.682748
  N     7.806196  5.401105 -4.400672
  N     5.838669  6.334593 -5.688009
  N     4.812152  5.842181 -1.902052
  N     7.668316  9.232831 -4.469898
  N     5.420692  9.793323 -5.587079
  N     4.894013  9.428485 -1.719694
  S     7.399885  5.823760 -5.995296
  S     4.245564  6.340841 -3.357588
  S     6.436228  5.501625 -1.968818
  S     7.077730  9.613351 -5.951474
  S     4.046959  9.704230 -3.053384
  S     6.539310  9.056969 -1.927977
