16  
    
  C     5.549312  5.696531 -4.348040
  C     6.847359  5.319503 -3.700894
  C     5.528446  9.474385 -4.358025
  C     6.771695  9.125043 -3.708561
  N     7.901683  5.425478 -4.483594
  N     5.656023  6.048633 -5.609354
  N     5.082615  5.304186 -1.860677
  N     7.820635  9.030428 -4.556300
  N     5.562037  9.598467 -5.689455
  N     5.129045  9.465384 -1.786217
  S     7.258056  5.761433 -6.032228
  S     4.282269  5.762938 -3.239810
  S     6.676589  4.995313 -1.990302
  S     7.140993  9.333912 -6.107213
  S     4.306831  9.733002 -3.194814
  S     6.747427  8.980086 -1.958001
