16  
    
  C     5.743898  5.343457 -4.257631
  C     6.968896  4.975488 -3.581302
  C     5.703149  9.496216 -4.416904
  C     6.844548  8.953966 -3.721004
  N     8.045038  4.765886 -4.320600
  N     5.970533  5.585356 -5.541791
  N     5.137153  5.329031 -1.737893
  N     7.889036  8.721226 -4.537302
  N     5.882925  9.853702 -5.680701
  N     4.884072  9.126240 -2.007345
  S     7.530404  5.071457 -5.900436
  S     4.365095  5.607525 -3.198045
  S     6.754644  4.850852 -1.862040
  S     7.443525  9.446361 -6.045271
  S     4.276228  9.665125 -3.431532
  S     6.495826  8.683188 -2.054523
