16  
    
  C     5.873699  5.814039 -4.476935
  C     7.079839  5.428657 -3.769466
  C     5.611069  9.667599 -4.296914
  C     6.895576  9.275388 -3.743106
  N     8.206055  5.293571 -4.469772
  N     6.042235  5.911253 -5.805503
  N     5.138834  5.792456 -2.023439
  N     7.933202  9.210837 -4.578897
  N     5.618269  9.736822 -5.596138
  N     5.120245  9.183436 -1.856336
  S     7.625843  5.521605 -6.017492
  S     4.480904  6.232687 -3.462420
  S     6.771385  5.361375 -2.044198
  S     7.206939  9.497683 -6.092468
  S     4.235496  9.585055 -3.216876
  S     6.703096  8.834167 -2.099321
