16  
    
  C     5.647376  5.409674 -4.446817
  C     6.872539  5.146372 -3.670539
  C     5.522340  9.501355 -4.360326
  C     6.700482  9.057708 -3.678367
  N     7.900693  4.842611 -4.444429
  N     5.781111  5.402261 -5.763691
  N     4.966555  5.583688 -1.912409
  N     7.752469  8.862683 -4.474518
  N     5.662077  9.626781 -5.675592
  N     4.863994  9.036893 -1.925042
  S     7.388874  5.118154 -6.054934
  S     4.228813  5.635688 -3.380461
  S     6.655657  5.229207 -1.874490
  S     7.176392  9.144459 -6.026362
  S     4.204926  9.720551 -3.313901
  S     6.522266  8.827140 -1.965180
