16  
    
  C     5.612354  5.814773 -4.693822
  C     6.860283  5.645941 -4.034556
  C     5.416643  9.706783 -4.282541
  C     6.618712  9.219143 -3.695927
  N     7.886130  5.690359 -4.883560
  N     5.648097  5.924384 -6.001915
  N     5.034811  5.417826 -2.228929
  N     7.716786  9.294205 -4.462064
  N     5.629626 10.017723 -5.584948
  N     4.865082  9.168156 -1.811873
  S     7.226424  5.836077 -6.383006
  S     4.168419  5.745188 -3.627999
  S     6.643881  5.417599 -2.358733
  S     7.262851  9.847826 -5.874155
  S     4.099415  9.858174 -3.145185
  S     6.459076  8.816542 -2.044150
