16  
    
  C     5.791428  5.619296 -4.298075
  C     6.995894  5.056526 -3.646569
  C     5.514205  9.484970 -4.344033
  C     6.678214  8.868973 -3.713401
  N     8.064497  5.065713 -4.472172
  N     5.944757  5.933017 -5.583805
  N     5.128595  5.234861 -1.843964
  N     7.748752  8.664003 -4.461983
  N     5.746860  9.792764 -5.619158
  N     4.747235  8.594959 -2.107805
  S     7.524467  5.586984 -5.933351
  S     4.400520  5.786956 -3.248457
  S     6.679875  4.684065 -2.014894
  S     7.287094  9.385678 -5.975393
  S     4.180988  9.624134 -3.302550
  S     6.410535  8.312294 -2.060903
