16  
    
  C     5.731607  5.822470 -4.577653
  C     6.893970  5.341457 -3.859559
  C     5.520164  9.404809 -4.247411
  C     6.830746  9.088170 -3.716571
  N     7.958620  5.124132 -4.657313
  N     5.852328  5.999997 -5.906256
  N     5.137009  5.703537 -2.007094
  N     7.830564  9.181610 -4.550538
  N     5.509826  9.800564 -5.511150
  N     5.122172  8.962835 -1.798157
  S     7.395299  5.429148 -6.183645
  S     4.383282  6.068839 -3.447111
  S     6.811820  5.307254 -2.078707
  S     7.115986  9.677623 -6.002179
  S     4.223490  9.364271 -3.155703
  S     6.742187  8.898585 -1.984557
