16  
    
  C     5.521252  5.231144 -4.155678
  C     6.815653  5.116680 -3.551132
  C     5.417905  9.263375 -4.424285
  C     6.619322  8.773591 -3.815841
  N     7.805300  4.878150 -4.433267
  N     5.555082  5.333975 -5.485496
  N     5.029881  5.249045 -1.650042
  N     7.545336  8.409476 -4.708667
  N     5.488400  9.423945 -5.727733
  N     4.879492  9.107118 -1.949083
  S     7.170275  5.138950 -5.900275
  S     4.150262  5.103378 -3.017776
  S     6.749615  5.076385 -1.827358
  S     6.947869  8.815051 -6.166550
  S     4.117104  9.562945 -3.322029
  S     6.465495  8.628822 -2.106419
