16  
    
  C     5.561867  5.837931 -4.091102
  C     6.748686  5.357893 -3.467660
  C     5.440961  8.916373 -4.110855
  C     6.723460  8.655942 -3.481164
  N     7.766651  5.120659 -4.297274
  N     5.512612  5.867732 -5.414188
  N     5.027187  5.526087 -1.579408
  N     7.750916  8.484856 -4.281256
  N     5.481297  8.861165 -5.447117
  N     5.105796  9.048919 -1.545182
  S     7.092835  5.477014 -5.804144
  S     4.290767  5.984088 -2.958864
  S     6.544475  4.903891 -1.815564
  S     7.121004  8.591820 -5.866713
  S     4.198364  9.057240 -2.925350
  S     6.752801  8.704828 -1.743747
