16  
    
  C     5.080639  5.883119 -4.273093
  C     6.367984  5.531339 -3.623861
  C     5.446360  9.410401 -4.007418
  C     6.662823  8.866860 -3.454310
  N     7.298087  5.237835 -4.531797
  N     5.233554  5.963415 -5.586726
  N     4.566905  5.887538 -1.790147
  N     7.675883  8.654489 -4.346121
  N     5.467477  9.476844 -5.365253
  N     5.144184  9.578505 -1.427414
  S     6.802751  5.682313 -6.017534
  S     3.758635  6.245365 -3.211984
  S     6.196620  5.498182 -1.912568
  S     6.968665  8.988910 -5.871241
  S     4.290325  9.945748 -2.840333
  S     6.566291  8.740436 -1.712176
