16  
    
  C     5.632694  5.506951 -4.037886
  C     6.820918  5.051390 -3.412061
  C     5.802866  9.453846 -3.918126
  C     7.020611  9.082718 -3.254853
  N     7.828918  4.980421 -4.258436
  N     5.657298  5.704162 -5.353921
  N     5.199095  5.514284 -1.501212
  N     8.068138  8.859367 -4.031862
  N     5.952665  9.406392 -5.258864
  N     5.349834  9.154793 -1.351734
  S     7.188174  5.294026 -5.737078
  S     4.387660  5.781124 -2.908851
  S     6.775637  4.988546 -1.684618
  S     7.495935  9.012593 -5.570986
  S     4.496434  9.464213 -2.774641
  S     7.024666  8.837737 -1.540436
