16  
    
  C     5.498354  5.881486 -4.511452
  C     6.789096  5.554065 -3.857056
  C     5.652855  9.461079 -4.112866
  C     6.882309  9.019449 -3.491141
  N     7.845238  5.356593 -4.686523
  N     5.583698  5.948757 -5.840503
  N     4.948700  5.660601 -1.953927
  N     7.869091  8.752485 -4.327767
  N     5.738053  9.544851 -5.437416
  N     5.064222  8.846325 -1.616630
  S     7.192479  5.763627 -6.152956
  S     4.116606  5.976627 -3.385412
  S     6.621542  5.479850 -2.112703
  S     7.243875  9.051831 -5.875186
  S     4.255729  9.279802 -2.986866
  S     6.676331  8.772050 -1.778640
