16  
    
  C     5.264439  6.299084 -4.390528
  C     6.471248  5.788597 -3.783915
  C     5.652204  9.549012 -4.262371
  C     6.901153  9.056777 -3.671380
  N     7.464029  5.442091 -4.638818
  N     5.388122  6.569637 -5.696404
  N     4.728196  6.021002 -1.863798
  N     7.952668  8.921465 -4.468855
  N     5.849305  9.709878 -5.551190
  N     5.242799  9.496781 -1.752610
  S     6.867553  6.050252 -6.118217
  S     3.891230  6.555090 -3.210032
  S     6.296390  5.577880 -2.009042
  S     7.386656  9.263533 -6.034922
  S     4.374451  9.766750 -3.092923
  S     6.836977  8.931659 -1.915286
