16  
    
  C     5.165684  5.473776 -4.152236
  C     6.345708  4.892786 -3.546565
  C     5.469240  9.381276 -4.332385
  C     6.678798  8.916352 -3.700249
  N     7.289243  4.498600 -4.394833
  N     5.255605  5.532009 -5.482860
  N     4.653302  5.174173 -1.663347
  N     7.660165  8.709800 -4.570286
  N     5.553440  9.634576 -5.651749
  N     4.943062  9.361535 -1.827143
  S     6.784252  5.024886 -5.852017
  S     3.914840  5.756075 -3.014876
  S     6.178155  4.700021 -1.891208
  S     7.148099  9.143842 -6.067259
  S     4.130442  9.626648 -3.279921
  S     6.535018  9.034534 -1.975872
