16  
    
  C     5.392267  6.031458 -4.193577
  C     6.665997  5.561914 -3.626758
  C     5.570558  9.644850 -4.370822
  C     6.819393  9.261489 -3.735256
  N     7.638236  5.446886 -4.513301
  N     5.456248  6.249471 -5.497274
  N     5.004707  5.733737 -1.705415
  N     7.846939  8.996857 -4.518060
  N     5.707822  9.740921 -5.699643
  N     4.991387  9.571783 -1.909239
  S     6.981384  5.875463 -5.975273
  S     4.125034  6.108535 -3.008583
  S     6.594559  5.308849 -1.928834
  S     7.294194  9.218466 -6.052186
  S     4.164914  9.828807 -3.360719
  S     6.595591  9.121972 -2.013137
