16  
    
  C     5.469500  5.788292 -4.255883
  C     6.589777  5.113336 -3.659543
  C     5.537300  9.757071 -4.612132
  C     6.685971  9.209569 -3.931812
  N     7.608720  4.880729 -4.461646
  N     5.626574  5.931312 -5.556115
  N     4.786773  5.411351 -1.884060
  N     7.772306  9.175097 -4.672676
  N     5.767559 10.124568 -5.882608
  N     4.727150  9.197399 -2.206398
  S     7.186598  5.453659 -5.994155
  S     4.199865  6.164073 -3.226359
  S     6.305399  4.820279 -1.975069
  S     7.390556  9.769951 -6.158689
  S     4.116525 10.040247 -3.514320
  S     6.319057  8.664597 -2.367757
