16  
    
  C     5.194676  6.363723 -4.308054
  C     6.291241  5.722103 -3.631887
  C     5.830545  9.576131 -4.180881
  C     7.036029  9.056047 -3.561410
  N     7.342052  5.520557 -4.410473
  N     5.311529  6.478148 -5.624860
  N     4.409243  5.996448 -1.853051
  N     7.971728  8.880093 -4.479810
  N     5.913131  9.786188 -5.520463
  N     5.404841  9.611035 -1.671266
  S     6.884908  5.983592 -5.922560
  S     3.859881  6.719330 -3.270696
  S     5.935980  5.405888 -1.955357
  S     7.378249  9.204792 -5.999041
  S     4.590640  9.930101 -3.024211
  S     6.933594  8.859875 -1.817219
