16  
    
  C     5.474840  6.056964 -4.464680
  C     6.750483  5.680669 -3.868957
  C     5.361836  9.952114 -4.712541
  C     6.595837  9.666655 -4.050845
  N     7.744674  5.605086 -4.764288
  N     5.532614  6.308819 -5.753318
  N     4.949164  5.740907 -1.967204
  N     7.654485  9.644251 -4.861505
  N     5.438954 10.052646 -6.029663
  N     4.671438  9.515780 -2.226930
  S     7.131756  5.975902 -6.199256
  S     4.091316  6.112986 -3.354914
  S     6.518446  5.215431 -2.156762
  S     7.006633  9.881171 -6.386195
  S     3.995995  9.991893 -3.651414
  S     6.405780  9.382649 -2.242654
