16  
    
  C     5.449488  5.978883 -4.396959
  C     6.767685  5.615706 -3.776207
  C     5.489315  9.661474 -4.335817
  C     6.678512  9.108309 -3.665447
  N     7.766905  5.533600 -4.685393
  N     5.583870  6.214758 -5.709892
  N     5.020135  5.653309 -1.897138
  N     7.666150  8.958609 -4.511351
  N     5.572026  9.884246 -5.627381
  N     5.054837  9.505219 -1.735633
  S     7.101743  5.843306 -6.168291
  S     4.246148  6.329460 -3.241180
  S     6.673110  5.428397 -2.037807
  S     7.157969  9.522972 -6.020618
  S     4.225344  9.714320 -3.106826
  S     6.608279  8.939249 -1.961502
