16  
    
  C     5.754723  5.358658 -4.254693
  C     6.974615  4.980471 -3.560626
  C     5.700423  9.505701 -4.411493
  C     6.846050  8.957293 -3.730461
  N     8.044025  4.769960 -4.300584
  N     5.982147  5.575647 -5.551064
  N     5.125064  5.327358 -1.741075
  N     7.896198  8.734861 -4.539284
  N     5.883339  9.865642 -5.673930
  N     4.894764  9.125657 -2.011493
  S     7.540827  5.079550 -5.886622
  S     4.371279  5.617191 -3.194172
  S     6.750829  4.840393 -1.870675
  S     7.437658  9.455407 -6.044348
  S     4.273548  9.666365 -3.424494
  S     6.505281  8.674302 -2.051551
