16  
    
  C     5.519747  6.209378 -4.445331
  C     6.732753  5.522807 -3.997256
  C     5.520151  9.817027 -4.309131
  C     6.632138  9.236466 -3.627564
  N     7.669955  5.398728 -4.925068
  N     5.498274  6.480155 -5.752227
  N     5.162327  5.650386 -1.855223
  N     7.539946  8.916973 -4.543789
  N     5.627708 10.084274 -5.598715
  N     4.946883  9.765322 -1.804689
  S     6.983983  5.972083 -6.342756
  S     4.297921  6.378112 -3.146572
  S     6.740955  5.293668 -2.196063
  S     7.121357  9.550696 -6.064202
  S     4.190730 10.194933 -3.265526
  S     6.413965  9.013444 -1.880882
