16  
    
  C     5.565266  5.883278 -4.468742
  C     6.717708  5.337176 -3.797268
  C     5.551001  9.771215 -4.224054
  C     6.798218  9.246762 -3.645960
  N     7.788611  5.212825 -4.579591
  N     5.757059  6.033342 -5.776938
  N     4.890863  5.617745 -2.063337
  N     7.735903  9.028537 -4.575269
  N     5.562795  9.961850 -5.558880
  N     5.093429  9.212735 -1.683789
  S     7.297688  5.601127 -6.158330
  S     4.219893  6.194108 -3.440097
  S     6.482787  5.098452 -2.122015
  S     7.156303  9.605750 -6.032935
  S     4.217471  9.874273 -3.021367
  S     6.664734  8.746447 -2.015086
