16  
    
  C     5.619376  6.075657 -4.365121
  C     6.833451  5.518458 -3.769745
  C     5.761344  9.381069 -4.252930
  C     6.979839  8.888783 -3.686528
  N     7.863320  5.494668 -4.612168
  N     5.701273  6.524830 -5.616098
  N     5.224359  5.735104 -1.768525
  N     8.012750  8.667706 -4.520743
  N     5.911892  9.711841 -5.543099
  N     5.363281  9.143986 -1.710033
  S     7.225445  6.066331 -6.031489
  S     4.341713  6.193466 -3.156758
  S     6.770766  5.166027 -2.015933
  S     7.430970  9.236750 -5.997234
  S     4.544274  9.637891 -3.064312
  S     7.019374  8.818064 -1.955627
