16  
    
  C     5.620617  5.737004 -4.330728
  C     6.886316  5.183082 -3.814097
  C     5.694516  9.871253 -4.500549
  C     6.903162  9.401691 -3.869566
  N     7.842762  5.030966 -4.717830
  N     5.743425  6.100384 -5.601921
  N     5.251040  5.502037 -1.776651
  N     7.950894  9.286528 -4.691305
  N     5.838163 10.142613 -5.807758
  N     4.940973  8.972235 -2.215211
  S     7.218354  5.604583 -6.156978
  S     4.338815  5.946294 -3.142993
  S     6.823142  4.936123 -2.084723
  S     7.438064  9.749915 -6.150099
  S     4.253109  9.523653 -3.602646
  S     6.591792  8.885545 -2.234459
