16  
    
  C     5.565807  5.782112 -4.447205
  C     6.831160  5.458710 -3.841371
  C     5.179451  9.781310 -4.380786
  C     6.318984  9.212705 -3.678538
  N     7.802301  5.204043 -4.680614
  N     5.689820  5.937791 -5.741024
  N     5.147782  5.740678 -1.974718
  N     7.253144  8.764356 -4.509644
  N     5.267308  9.702609 -5.729118
  N     4.621226  9.756314 -1.888536
  S     7.260276  5.555304 -6.232138
  S     4.264458  5.821156 -3.350720
  S     6.738140  5.330350 -2.129722
  S     6.773269  9.020930 -6.018758
  S     3.760569 10.053441 -3.352935
  S     6.164591  9.155003 -2.008243
