16  
    
  C     5.460243  6.383664 -4.548299
  C     6.721671  5.990908 -3.929500
  C     5.687507  9.784067 -4.433857
  C     6.925830  9.414421 -3.736474
  N     7.643650  5.606642 -4.798527
  N     5.516294  6.431673 -5.864730
  N     4.891020  6.260667 -2.091760
  N     7.995376  9.302299 -4.514455
  N     5.803440  9.879775 -5.742848
  N     5.139947  9.749568 -1.912095
  S     7.045628  5.885269 -6.260646
  S     4.138757  6.786354 -3.515948
  S     6.521436  5.831665 -2.158696
  S     7.408317  9.447820 -6.102706
  S     4.327757  9.965053 -3.395461
  S     6.704335  9.260707 -1.906149
