16  
    
  C     5.450621  5.886140 -4.353646
  C     6.665893  5.578673 -3.735049
  C     5.296142  9.595870 -4.321172
  C     6.565600  9.224694 -3.748727
  N     7.761965  5.584788 -4.468628
  N     5.573699  6.289316 -5.606932
  N     4.800423  5.413589 -1.925953
  N     7.597444  9.092198 -4.578772
  N     5.416130  9.662185 -5.664672
  N     4.942610  9.440440 -1.839956
  S     7.194728  6.048327 -5.984937
  S     4.066835  6.009578 -3.297509
  S     6.445388  5.192022 -2.023998
  S     7.013045  9.440651 -6.099725
  S     3.971042  9.684209 -3.130393
  S     6.556663  9.009512 -2.056328
