16  
    
  C     5.861383  5.494187 -4.121337
  C     7.153237  5.165212 -3.587491
  C     5.417613  9.312122 -4.333729
  C     6.542407  8.710121 -3.651562
  N     8.097575  5.122145 -4.493872
  N     5.858541  5.772140 -5.417967
  N     5.438958  5.213805 -1.598410
  N     7.546655  8.323506 -4.427681
  N     5.631517  9.442265 -5.651961
  N     4.734217  9.094653 -1.904085
  S     7.425462  5.479239 -5.943733
  S     4.597140  5.595612 -2.925848
  S     7.042919  4.915719 -1.892345
  S     7.178417  8.743271 -5.949007
  S     4.174974  9.905467 -3.281379
  S     6.341988  8.573765 -1.938157
