16  
    
  C     5.607015  5.848766 -4.457007
  C     6.847863  5.447920 -3.849339
  C     5.672870  9.492546 -4.229838
  C     6.941151  9.161313 -3.649018
  N     7.836249  5.445314 -4.708725
  N     5.664796  6.061814 -5.753582
  N     5.137209  5.431774 -1.994735
  N     7.994957  9.223522 -4.494105
  N     5.750017  9.637090 -5.547732
  N     5.201443  9.210269 -1.764864
  S     7.226714  5.706342 -6.227022
  S     4.334652  6.074476 -3.318979
  S     6.761029  5.172123 -2.121981
  S     7.272359  9.458317 -5.974417
  S     4.324477  9.352876 -3.132227
  S     6.761856  8.659562 -2.017880
