16  
    
  C     5.357900  6.029562 -4.267117
  C     6.610321  5.468633 -3.646069
  C     5.554536  9.634963 -4.293653
  C     6.668167  9.074804 -3.576653
  N     7.573599  5.229005 -4.526653
  N     5.494531  6.260488 -5.573109
  N     4.871641  5.629281 -1.752111
  N     7.696953  8.897906 -4.400408
  N     5.675825  9.893602 -5.583543
  N     4.858408  9.367734 -1.846782
  S     6.974922  5.689382 -5.987042
  S     4.139200  6.266768 -3.062468
  S     6.476513  5.193225 -1.961683
  S     7.246791  9.450334 -5.881158
  S     4.159597  9.695686 -3.302518
  S     6.368128  8.762292 -1.885922
