16  
    
  C     5.627787  5.715385 -4.267312
  C     6.776837  5.154885 -3.590951
  C     5.413449  9.110950 -4.189773
  C     6.643250  8.749121 -3.530703
  N     7.724291  4.756603 -4.430555
  N     5.749151  5.844618 -5.578350
  N     5.002166  5.651095 -1.785417
  N     7.735777  8.637844 -4.307180
  N     5.549174  9.347319 -5.485560
  N     4.816914  8.985753 -1.693718
  S     7.269867  5.306823 -5.995991
  S     4.266776  6.152230 -3.169923
  S     6.500466  4.855977 -1.931004
  S     7.151372  8.980110 -5.851535
  S     4.116600  9.507628 -3.105571
  S     6.397135  8.569335 -1.803965
