16  
    
  C     5.593916  5.314113 -4.192710
  C     6.861285  5.203837 -3.548410
  C     5.677355  9.338132 -4.182007
  C     6.989313  9.186306 -3.569585
  N     7.922695  5.269168 -4.396277
  N     5.704171  5.395735 -5.530797
  N     5.076187  5.802570 -1.764758
  N     8.030074  9.203629 -4.391273
  N     5.716440  9.519435 -5.496990
  N     5.105882  8.852935 -1.734186
  S     7.302454  5.320690 -5.927738
  S     4.169610  5.788350 -3.176038
  S     6.751608  5.434882 -1.819332
  S     7.311465  9.394471 -5.923029
  S     4.317130  9.080770 -3.160544
  S     6.765163  8.858606 -1.834218
