16  
    
  C     5.228389  6.297814 -4.498394
  C     6.408820  5.731382 -3.872302
  C     5.405056  9.529045 -4.112122
  C     6.688617  9.257025 -3.464051
  N     7.429234  5.575035 -4.691753
  N     5.377860  6.565328 -5.809654
  N     4.559376  5.881450 -2.056193
  N     7.756517  9.228005 -4.244778
  N     5.514141  9.700894 -5.400202
  N     4.915369  9.283353 -1.590314
  S     6.945760  6.042314 -6.116435
  S     3.858924  6.500548 -3.445550
  S     6.211665  5.482678 -2.133246
  S     7.157324  9.529615 -5.801022
  S     4.013482  9.488123 -2.975431
  S     6.516332  8.920037 -1.788848
