16  
    
  C     5.413377  6.410028 -4.609629
  C     6.581835  5.939371 -3.960717
  C     5.785782  9.799128 -4.375534
  C     7.011748  9.460759 -3.674252
  N     7.627001  5.705654 -4.770043
  N     5.439549  6.389754 -5.944597
  N     4.892158  6.314531 -2.121860
  N     7.954445  9.174309 -4.561402
  N     5.835010  9.769713 -5.685463
  N     5.050238  9.678034 -1.887586
  S     6.954805  5.931967 -6.348297
  S     4.145268  6.767450 -3.506282
  S     6.458446  5.860424 -2.237325
  S     7.381094  9.510328 -6.092386
  S     4.393850  9.968128 -3.353486
  S     6.729478  9.241865 -1.982758
