16  
    
  C     5.637028  5.703655 -4.289403
  C     6.839314  5.311664 -3.633673
  C     5.526987  9.449155 -4.398703
  C     6.800450  9.170373 -3.765627
  N     7.860041  5.354941 -4.483807
  N     5.692757  6.070879 -5.576345
  N     5.048437  5.309860 -1.832994
  N     7.807513  9.041906 -4.576498
  N     5.635520  9.531632 -5.728595
  N     5.198851  9.399963 -1.806738
  S     7.275677  5.733697 -6.022561
  S     4.247279  5.857193 -3.218362
  S     6.700019  4.961033 -1.918535
  S     7.190190  9.262041 -6.117478
  S     4.319096  9.790969 -3.187667
  S     6.767136  8.958166 -2.016438
