16  
    
  C     5.575619  5.382353 -4.195892
  C     6.893089  5.232950 -3.549285
  C     5.683211  9.321797 -4.181828
  C     6.949568  9.122680 -3.548742
  N     7.921701  5.225994 -4.399641
  N     5.701763  5.371900 -5.511082
  N     5.116997  5.804344 -1.738787
  N     7.962682  9.158836 -4.446209
  N     5.735165  9.504991 -5.488744
  N     5.133036  8.824055 -1.714399
  S     7.271227  5.305098 -5.901122
  S     4.228156  5.764433 -3.128665
  S     6.763159  5.421899 -1.838274
  S     7.299600  9.387818 -5.907664
  S     4.289724  9.046637 -3.174148
  S     6.770030  8.900237 -1.810970
