16  
    
  C     5.583616  6.112190 -4.248963
  C     6.673352  5.446650 -3.613827
  C     5.854443  9.756552 -4.241574
  C     7.044224  9.234788 -3.588069
  N     7.622903  5.052105 -4.414280
  N     5.756826  6.204274 -5.556346
  N     5.043867  6.178182 -1.781089
  N     8.004999  8.961308 -4.452307
  N     5.940195  9.927728 -5.538997
  N     5.237892  9.319743 -1.764046
  S     7.209396  5.524442 -5.968471
  S     4.254437  6.490109 -3.243071
  S     6.461049  5.337115 -1.940903
  S     7.459812  9.258371 -5.979699
  S     4.523673  9.941164 -3.154158
  S     6.892185  9.115906 -1.832896
