16  
    
  C     5.401570  6.083821 -4.187264
  C     6.619902  5.405568 -3.662778
  C     5.503689  9.572567 -4.281069
  C     6.730580  9.054000 -3.653031
  N     7.576861  5.202100 -4.551661
  N     5.534949  6.348210 -5.466521
  N     4.917746  5.538184 -1.710746
  N     7.739056  8.897446 -4.514729
  N     5.653270  9.860284 -5.552676
  N     4.790826  9.310291 -1.821347
  S     7.049688  5.779337 -6.016353
  S     4.156394  6.243625 -3.051633
  S     6.518587  5.204141 -1.958498
  S     7.187389  9.481414 -6.022106
  S     4.028524  9.645751 -3.270696
  S     6.443505  8.807772 -1.958569
