16  
    
  C     5.499454  6.021458 -4.206887
  C     6.663170  5.446976 -3.663615
  C     5.375444  9.552417 -4.410983
  C     6.563710  9.118831 -3.757135
  N     7.664150  5.271788 -4.523655
  N     5.585866  6.447437 -5.461755
  N     4.957947  5.580354 -1.717669
  N     7.584587  9.027510 -4.553174
  N     5.450733  9.764340 -5.708678
  N     4.905915  9.156725 -1.880999
  S     7.117182  5.948764 -5.970145
  S     4.188558  6.137091 -3.117567
  S     6.539535  5.119768 -1.943967
  S     7.070891  9.452118 -6.075297
  S     4.114281  9.621757 -3.210861
  S     6.545229  8.874307 -2.077265
