16  
    
  C     5.308753  6.201897 -4.322127
  C     6.324420  5.566499 -3.608302
  C     5.484819  9.736475 -4.228673
  C     6.645445  9.098158 -3.623742
  N     7.224648  5.015776 -4.407195
  N     5.520499  6.314515 -5.634088
  N     4.487237  6.145384 -1.944122
  N     7.691857  8.885968 -4.379440
  N     5.744475 10.016724 -5.483490
  N     4.929320  9.450266 -1.701605
  S     6.915260  5.406443 -5.966637
  S     3.932729  6.757998 -3.397782
  S     5.986871  5.550841 -1.919247
  S     7.302137  9.476699 -5.833419
  S     4.084953  9.707541 -3.102059
  S     6.515338  8.828197 -1.861126
