16  
    
  C     5.435078  5.730292 -4.150236
  C     6.573190  5.109450 -3.545924
  C     5.549862  9.476125 -4.169943
  C     6.752863  8.944086 -3.545082
  N     7.556716  4.843959 -4.375655
  N     5.577553  6.086648 -5.425383
  N     4.837219  5.279622 -1.693355
  N     7.769497  8.681638 -4.373050
  N     5.683266  9.757885 -5.457482
  N     4.993541  9.035656 -1.687906
  S     7.076493  5.498419 -5.888521
  S     4.131675  5.908853 -3.003443
  S     6.442478  4.879540 -1.858655
  S     7.256336  9.313981 -5.870104
  S     4.228699  9.503290 -3.075046
  S     6.663030  8.753646 -1.809542
