16  
    
  C     5.471927  6.108197 -4.345453
  C     6.602117  5.769312 -3.599743
  C     5.622025  9.574495 -4.173194
  C     6.790199  9.042008 -3.515097
  N     7.651506  5.461654 -4.376779
  N     5.636613  6.183469 -5.649439
  N     4.668881  6.068317 -1.879058
  N     7.859541  8.895933 -4.288734
  N     5.768896  9.733534 -5.476288
  N     4.831768  9.423253 -1.745909
  S     7.228165  5.750493 -5.951926
  S     4.068527  6.476987 -3.424826
  S     6.225721  5.602498 -1.930495
  S     7.288397  9.235507 -5.823439
  S     4.192407  9.989685 -3.285223
  S     6.421135  9.017804 -1.744321
