16  
    
  C     5.850632  5.503654 -4.040748
  C     7.134210  5.102543 -3.528509
  C     5.534258  9.380267 -4.281174
  C     6.598976  8.733745 -3.558565
  N     8.156935  5.092165 -4.366855
  N     5.852096  5.748617 -5.338114
  N     5.424867  5.206990 -1.518115
  N     7.635807  8.401292 -4.326999
  N     5.661956  9.407263 -5.627164
  N     4.714401  9.167476 -1.806228
  S     7.367617  5.413990 -5.874859
  S     4.574576  5.572391 -2.917222
  S     7.055262  4.882751 -1.729844
  S     7.152160  8.817117 -5.922985
  S     4.193322  9.844607 -3.218671
  S     6.210417  8.485140 -1.902543
