16  
    
  C     5.625342  5.947252 -4.360149
  C     6.868434  5.364252 -3.759380
  C     5.579974  9.497611 -4.671809
  C     6.795063  9.171703 -3.924488
  N     7.857025  5.069564 -4.615839
  N     5.645040  5.967892 -5.702612
  N     5.250008  5.634760 -1.809664
  N     7.862122  9.251608 -4.649658
  N     5.803385  9.918980 -5.924774
  N     4.896541  9.107194 -2.204077
  S     7.207320  5.494379 -6.123597
  S     4.405482  5.965840 -3.173324
  S     6.719774  5.002138 -2.061765
  S     7.408371  9.796401 -6.208723
  S     4.144226  9.523625 -3.625122
  S     6.555615  8.948907 -2.215465
