16  
    
  C     5.298128  6.148060 -4.608519
  C     6.625654  5.802620 -4.072319
  C     5.649718  9.426622 -4.089951
  C     6.883116  8.914642 -3.532164
  N     7.627175  5.746962 -4.929927
  N     5.348163  6.455796 -5.904221
  N     4.984810  5.734776 -2.072748
  N     7.928838  8.873660 -4.409297
  N     5.830147  9.802716 -5.353453
  N     5.164381  8.874702 -1.621444
  S     6.931356  6.235420 -6.457397
  S     4.066199  6.149172 -3.395398
  S     6.613262  5.538820 -2.323523
  S     7.364514  9.430928 -5.849054
  S     4.351278  9.384150 -2.933087
  S     6.841558  8.666468 -1.809397
