16  
    
  C     5.688732  5.774820 -4.209612
  C     6.902646  5.392123 -3.624191
  C     5.720752  9.574772 -4.359675
  C     6.913315  9.056114 -3.725144
  N     7.925562  5.197867 -4.446010
  N     5.727520  5.930657 -5.519256
  N     5.162589  5.437582 -1.734819
  N     7.884147  8.926147 -4.650815
  N     5.758231  9.880481 -5.634153
  N     5.082421  8.942885 -1.958007
  S     7.313237  5.642625 -5.950268
  S     4.328998  5.688729 -3.133847
  S     6.776876  5.107090 -1.891843
  S     7.298317  9.386598 -6.093932
  S     4.286581  9.625807 -3.297351
  S     6.755562  8.808289 -2.027355
