16  
    
  C     5.335995  5.734046 -4.503491
  C     6.562921  5.368025 -3.773148
  C     5.325494  9.493038 -4.341028
  C     6.597753  9.146107 -3.722191
  N     7.693914  5.191437 -4.505803
  N     5.583978  5.851573 -5.816278
  N     4.728649  5.780727 -1.974823
  N     7.569686  8.970246 -4.593121
  N     5.309508  9.442459 -5.677912
  N     4.812039  9.312255 -1.880125
  S     7.169968  5.546307 -6.040935
  S     4.021902  6.140524 -3.461445
  S     6.286387  5.229566 -2.028026
  S     6.874374  9.028616 -6.095286
  S     3.967746  9.715494 -3.230238
  S     6.386042  8.925963 -2.072168
