16  
    
  C     5.824724  5.742258 -4.343925
  C     6.918397  5.170616 -3.716773
  C     5.656915  9.365365 -4.336142
  C     6.893075  8.835977 -3.852660
  N     7.950313  5.063470 -4.552692
  N     5.969142  6.060950 -5.623036
  N     5.106493  5.291739 -1.919790
  N     7.943154  8.905656 -4.644256
  N     5.849768 10.004793 -5.493491
  N     5.222029  8.895205 -1.838817
  S     7.509430  5.587625 -6.072242
  S     4.409986  5.839336 -3.354966
  S     6.740473  4.948875 -1.995039
  S     7.393324  9.762130 -5.991436
  S     4.370256  9.403148 -3.193972
  S     6.845149  8.586785 -2.079640
