16  
    
  C     5.481805  6.088786 -4.415334
  C     6.633929  5.456324 -3.852781
  C     5.356356  9.790050 -4.508248
  C     6.591561  9.336579 -3.894612
  N     7.592280  5.214567 -4.743265
  N     5.564072  6.207118 -5.725630
  N     4.886618  5.774725 -1.946711
  N     7.668525  9.190266 -4.651578
  N     5.543494 10.103705 -5.781709
  N     4.942869  9.644554 -1.963438
  S     7.106360  5.684899 -6.271793
  S     4.153009  6.364139 -3.306161
  S     6.510013  5.376030 -2.099632
  S     7.157150  9.693034 -6.129982
  S     4.076056  9.910153 -3.360934
  S     6.465164  9.043628 -2.181407
