16  
    
  C     5.568566  5.735732 -4.420360
  C     6.850259  5.459440 -3.874441
  C     5.533179  9.574867 -4.370591
  C     6.781694  9.179248 -3.779828
  N     7.899487  5.326865 -4.707210
  N     5.568572  5.900511 -5.739262
  N     5.202840  5.628179 -1.876582
  N     7.799721  9.103087 -4.630865
  N     5.528781  9.721205 -5.704424
  N     5.263715  9.331700 -1.734897
  S     7.135459  5.624995 -6.179214
  S     4.274575  5.964914 -3.227425
  S     6.798525  5.398396 -2.074138
  S     7.157245  9.538620 -6.121180
  S     4.314239  9.697180 -3.088946
  S     6.828693  8.907836 -2.101811
