16  
    
  C     5.627422  5.376261 -4.081356
  C     6.852272  4.982424 -3.472993
  C     5.504152  9.456090 -4.685695
  C     6.655569  8.905423 -4.011888
  N     7.841478  4.817525 -4.343229
  N     5.738295  5.631774 -5.368930
  N     5.111078  5.030937 -1.624576
  N     7.563116  8.483999 -4.844106
  N     5.606456  9.573868 -6.006356
  N     4.876912  9.375138 -2.206747
  S     7.284371  5.236535 -5.865020
  S     4.284242  5.278019 -3.042589
  S     6.795271  4.870775 -1.775224
  S     7.132822  8.940669 -6.382337
  S     4.142050  9.658234 -3.663640
  S     6.483467  8.892007 -2.241715
