16  
    
  C     5.652074  5.304001 -4.272935
  C     6.952548  5.007679 -3.667913
  C     5.580967  9.386232 -4.527188
  C     6.714347  8.928793 -3.746821
  N     7.901158  4.681615 -4.525867
  N     5.670886  5.368335 -5.598477
  N     5.227006  5.314834 -1.726406
  N     7.855678  8.741540 -4.405290
  N     5.889792  9.646191 -5.783713
  N     4.815435  9.100022 -2.107051
  S     7.253137  5.102103 -6.032119
  S     4.383138  5.445723 -3.186591
  S     6.850093  4.983628 -1.939279
  S     7.475982  9.162063 -6.013129
  S     4.173790  9.703892 -3.526318
  S     6.445935  8.711753 -2.067054
