16  
    
  C     5.555911  5.989175 -4.499164
  C     6.815484  5.589418 -3.849403
  C     5.790208  9.392551 -4.262902
  C     7.072062  9.138802 -3.635402
  N     7.858582  5.599425 -4.684752
  N     5.617208  6.182738 -5.780342
  N     4.989390  5.562852 -1.987720
  N     8.066059  9.131761 -4.531340
  N     5.869327  9.581136 -5.598037
  N     5.304249  9.307998 -1.729970
  S     7.166477  5.980838 -6.294328
  S     4.219576  5.974555 -3.397978
  S     6.614780  5.289600 -2.140459
  S     7.436893  9.271958 -6.032741
  S     4.532869  9.539314 -3.133737
  S     6.906079  8.833538 -1.934750
