16  
    
  C     5.647459  5.836436 -3.911110
  C     6.826961  5.202224 -3.452231
  C     5.662920  9.611295 -3.999576
  C     6.880919  9.061310 -3.452888
  N     7.856356  5.090865 -4.296842
  N     5.866310  6.390733 -5.102260
  N     5.142911  4.901802 -1.584560
  N     7.821370  8.920106 -4.390892
  N     5.688462  9.948220 -5.267549
  N     5.077864  8.885580 -1.586005
  S     7.312103  5.924041 -5.682221
  S     4.370781  5.848561 -2.742105
  S     6.719107  4.534099 -1.840774
  S     7.168784  9.508256 -5.776994
  S     4.353482  9.686953 -2.885628
  S     6.684306  8.514384 -1.816092
