16  
    
  C     5.222333  5.565456 -4.159761
  C     6.377333  4.837665 -3.590303
  C     5.548412  9.536678 -4.450134
  C     6.736478  9.069240 -3.750975
  N     7.371157  4.514505 -4.457671
  N     5.390619  5.835759 -5.468610
  N     4.740931  5.348584 -1.645066
  N     7.754915  8.735415 -4.523058
  N     5.675789  9.654707 -5.762511
  N     4.958549  9.188968 -1.921096
  S     6.782777  5.015589 -5.991465
  S     3.987343  6.007435 -3.021370
  S     6.277069  4.636651 -1.825564
  S     7.222596  9.088941 -6.088561
  S     4.196030  9.733844 -3.308995
  S     6.583392  8.884064 -2.076326
