16  
    
  C     5.206589  6.280757 -4.553537
  C     6.493485  5.924849 -3.992945
  C     5.544766  9.478082 -4.033425
  C     6.808421  9.071063 -3.460576
  N     7.525306  5.896802 -4.819425
  N     5.266647  6.427002 -5.905014
  N     4.819295  5.785725 -2.107194
  N     7.827255  9.198785 -4.325629
  N     5.651853  9.929299 -5.288940
  N     5.133218  9.011171 -1.530151
  S     6.794731  6.171662 -6.392942
  S     3.972833  6.449645 -3.368847
  S     6.453127  5.561489 -2.337397
  S     7.211321  9.657905 -5.781865
  S     4.253184  9.273096 -2.958512
  S     6.671159  8.549145 -1.805817
