16  
    
  C     5.635656  5.687289 -4.247189
  C     6.786928  5.279109 -3.471299
  C     5.525844  9.337219 -4.170930
  C     6.696449  8.804640 -3.541166
  N     7.809391  5.030838 -4.273772
  N     5.744378  5.638327 -5.565662
  N     4.943769  5.672529 -1.748731
  N     7.747110  8.700032 -4.379128
  N     5.643994  9.578448 -5.472916
  N     4.841856  8.969251 -1.744871
  S     7.394016  5.312532 -5.856035
  S     4.252444  6.072950 -3.193157
  S     6.462851  4.973298 -1.783555
  S     7.195071  9.110261 -5.863528
  S     4.214398  9.585077 -3.142971
  S     6.427970  8.566374 -1.788529
