16  
    
  C     5.647062  5.686644 -4.327077
  C     6.874593  5.248700 -3.712010
  C     5.223875  9.794989 -4.618465
  C     6.381501  9.165573 -4.013780
  N     7.862033  4.973542 -4.547300
  N     5.780063  5.917472 -5.634638
  N     5.181601  5.491493 -1.841511
  N     7.430616  8.937125 -4.789962
  N     5.399833  9.934836 -5.916011
  N     4.612599  9.694031 -2.114570
  S     7.301363  5.419839 -6.146179
  S     4.375341  5.956060 -3.187877
  S     6.783309  5.066198 -1.987441
  S     6.862583  9.334624 -6.322578
  S     3.926582 10.357607 -3.571635
  S     6.152952  9.161643 -2.245867
