16  
    
  C     5.444746  5.886041 -4.351764
  C     6.664666  5.580325 -3.735870
  C     5.298270  9.595900 -4.315835
  C     6.568591  9.220603 -3.739409
  N     7.753650  5.584623 -4.475053
  N     5.572184  6.286060 -5.601020
  N     4.795473  5.413934 -1.928687
  N     7.600251  9.091390 -4.584342
  N     5.420280  9.664815 -5.667180
  N     4.944538  9.442427 -1.838326
  S     7.198617  6.047482 -5.989000
  S     4.064153  6.008988 -3.301915
  S     6.445318  5.196109 -2.022844
  S     7.013386  9.441024 -6.096899
  S     3.966501  9.685056 -3.128914
  S     6.553179  9.013961 -2.054525
