16  
    
  C     5.768919  5.501744 -4.273501
  C     7.092236  5.220196 -3.695045
  C     5.489883  9.330016 -4.386507
  C     6.644587  8.769417 -3.732304
  N     8.103204  5.173586 -4.528503
  N     5.842514  5.738087 -5.564289
  N     5.331406  5.197289 -1.782117
  N     7.568785  8.341556 -4.590018
  N     5.570994  9.474820 -5.725329
  N     4.877623  9.452436 -1.892147
  S     7.413378  5.404406 -6.033518
  S     4.522570  5.570393 -3.147020
  S     6.943522  4.934864 -2.004127
  S     7.111130  8.797927 -6.119606
  S     4.151785  9.752511 -3.375866
  S     6.353141  8.715906 -2.022001
