16  
    
  C     5.375242  5.718601 -4.525208
  C     6.516521  5.227986 -3.724382
  C     5.273304  9.444596 -4.358857
  C     6.507197  9.048901 -3.710560
  N     7.563626  5.069088 -4.523160
  N     5.560998  5.804405 -5.836769
  N     4.675402  5.769810 -2.060402
  N     7.508954  8.793992 -4.546728
  N     5.352915  9.562990 -5.683571
  N     4.763896  9.436519 -1.858700
  S     7.225106  5.538772 -6.090135
  S     4.041609  6.160522 -3.521164
  S     6.261523  5.276497 -2.024492
  S     6.880968  9.081718 -6.079616
  S     4.008395  9.683733 -3.342437
  S     6.373242  8.875082 -1.945184
