16  
    
  C     5.407372  6.321473 -4.482575
  C     6.626088  5.843945 -3.790135
  C     5.663183  9.688180 -4.405189
  C     6.886737  9.237886 -3.822117
  N     7.648301  5.521139 -4.565383
  N     5.566377  6.512626 -5.784998
  N     4.871928  6.345263 -1.967457
  N     7.881246  8.862383 -4.635100
  N     5.793018  9.627160 -5.720001
  N     5.192597  9.527228 -1.862642
  S     7.076226  5.961064 -6.123435
  S     4.093332  6.616684 -3.409104
  S     6.525605  5.849672 -2.090241
  S     7.318871  9.266907 -6.166826
  S     4.362592  9.829287 -3.264142
  S     6.767348  9.150954 -2.114468
