16  
    
  C     5.617557  5.675228 -4.407435
  C     6.894730  5.378761 -3.758401
  C     5.171280  9.687706 -4.452979
  C     6.379491  9.148598 -3.848062
  N     7.858982  5.306142 -4.656281
  N     5.670572  5.741364 -5.725156
  N     5.205871  5.602302 -1.880078
  N     7.391732  8.980169 -4.684298
  N     5.261657  9.792276 -5.779295
  N     4.913748  9.668923 -1.819424
  S     7.256133  5.409383 -6.213794
  S     4.385517  5.897350 -3.287212
  S     6.833941  5.127057 -2.092471
  S     6.877164  9.388880 -6.145844
  S     4.101612 10.128866 -3.176568
  S     6.433431  9.085910 -2.092065
