16  
    
  C     5.618966  5.537185 -4.198453
  C     6.855090  5.386833 -3.545812
  C     5.587823  9.222206 -4.218114
  C     6.878441  9.041181 -3.556937
  N     7.894218  5.114569 -4.351939
  N     5.590114  5.428967 -5.545538
  N     5.196455  5.779935 -1.634087
  N     7.915717  9.033306 -4.362604
  N     5.664455  9.470684 -5.506974
  N     5.108610  8.794342 -1.725784
  S     7.227331  5.255903 -5.896974
  S     4.374212  5.698787 -3.064172
  S     6.772006  5.385401 -1.837545
  S     7.298621  9.364643 -5.912284
  S     4.268718  8.991453 -3.143464
  S     6.807693  8.965025 -1.804277
