16  
    
  C     5.268585  6.153984 -4.391035
  C     6.450282  5.573797 -3.739247
  C     5.417672  9.847619 -4.352581
  C     6.673302  9.405135 -3.776207
  N     7.472102  5.334915 -4.553748
  N     5.447306  6.317044 -5.703685
  N     4.753949  5.934048 -1.826731
  N     7.695899  9.174222 -4.642433
  N     5.486047  9.901647 -5.709707
  N     4.977543  9.353531 -1.864593
  S     6.910776  5.762529 -6.091751
  S     3.924657  6.468850 -3.264498
  S     6.278493  5.249949 -2.051731
  S     7.035895  9.539998 -6.148983
  S     4.213405 10.017691 -3.211902
  S     6.586761  9.025429 -2.043752
