16  
    
  C     5.598344  5.668794 -4.099775
  C     6.849588  5.227762 -3.526219
  C     5.533336  8.975057 -4.142899
  C     6.833030  8.975317 -3.535396
  N     7.727220  4.936233 -4.467286
  N     5.561063  5.751380 -5.422398
  N     5.204458  5.396216 -1.569203
  N     7.816982  8.989554 -4.428783
  N     5.565475  8.997643 -5.493729
  N     5.094831  9.067598 -1.650737
  S     7.093660  5.404699 -5.878355
  S     4.417722  5.875824 -2.936498
  S     6.817624  5.279171 -1.813186
  S     7.133739  8.992130 -5.910679
  S     4.212126  8.971502 -3.077060
  S     6.720347  8.786870 -1.744093
