16  
    
  C     5.482659  6.140076 -4.594106
  C     6.483195  5.416480 -3.844483
  C     5.791676  9.553421 -4.412912
  C     6.978089  9.128922 -3.715479
  N     7.677701  5.272808 -4.448752
  N     5.906471  6.543489 -5.805702
  N     4.615229  5.881227 -2.186112
  N     8.011000  8.942246 -4.511219
  N     5.978761  9.747767 -5.717156
  N     5.187145  9.237277 -1.887661
  S     7.471943  5.923256 -5.966924
  S     4.155811  6.468400 -3.618752
  S     6.047877  5.037346 -2.238142
  S     7.527356  9.317407 -6.050840
  S     4.385048  9.503387 -3.305333
  S     6.767545  8.773095 -2.029204
