16  
    
  C     5.781615  5.600260 -4.280962
  C     7.014647  5.194685 -3.649476
  C     5.523373  9.412820 -4.508803
  C     6.665653  8.843242 -3.834387
  N     8.089270  5.018287 -4.419280
  N     5.863388  5.726366 -5.613002
  N     5.132639  5.343359 -1.747458
  N     7.736082  8.682809 -4.636130
  N     5.651777  9.572957 -5.826799
  N     4.822540  9.214949 -2.030876
  S     7.450175  5.324364 -5.938927
  S     4.459823  5.924733 -3.140085
  S     6.729833  4.856791 -1.917320
  S     7.139754  9.046142 -6.188386
  S     4.085296  9.620510 -3.500366
  S     6.332140  8.569851 -2.153211
