16  
    
  C     5.439000  6.392700 -4.598406
  C     6.678829  5.966813 -3.919493
  C     5.758436  9.795867 -4.374173
  C     6.952889  9.455454 -3.688411
  N     7.642716  5.657899 -4.807864
  N     5.467117  6.405020 -5.940266
  N     4.904183  6.288209 -2.126055
  N     7.962897  9.231146 -4.549257
  N     5.834384  9.803358 -5.717056
  N     5.089660  9.713823 -1.884778
  S     6.981665  5.913633 -6.290776
  S     4.134095  6.782534 -3.512215
  S     6.490512  5.842023 -2.192986
  S     7.388671  9.486927 -6.112428
  S     4.363795  9.970192 -3.392854
  S     6.722780  9.243797 -1.926876
