16  
    
  C     5.300521  6.378069 -4.592961
  C     6.563005  5.962757 -3.930791
  C     5.743971  9.591367 -4.413749
  C     7.019543  9.253619 -3.806991
  N     7.547065  5.826809 -4.813356
  N     5.362210  6.407321 -5.907076
  N     4.795893  6.384681 -2.019800
  N     8.004786  9.101534 -4.687123
  N     5.745525  9.694141 -5.745572
  N     5.281924  9.472960 -1.883250
  S     6.938285  6.018208 -6.286732
  S     3.979280  6.808413 -3.451359
  S     6.388980  5.920125 -2.172119
  S     7.355372  9.384513 -6.180784
  S     4.435402  9.796298 -3.244672
  S     6.926717  9.074376 -2.118975
