16  
    
  C     5.307136  5.484252 -4.357070
  C     6.495955  4.935595 -3.736785
  C     5.530864  9.143481 -4.404087
  C     6.632285  8.429178 -3.813037
  N     7.505250  4.667126 -4.562810
  N     5.499126  5.755007 -5.629853
  N     4.735925  5.108422 -1.872807
  N     7.712372  8.262431 -4.596113
  N     5.806433  9.580943 -5.620040
  N     4.871481  8.741021 -1.975901
  S     7.063253  5.320215 -6.014506
  S     3.945110  5.810908 -3.237033
  S     6.294502  4.554688 -2.060676
  S     7.279615  9.064662 -6.029444
  S     4.272993  9.540683 -3.277468
  S     6.284856  7.873741 -2.251347
