16  
    
  C     5.701136  5.773656 -3.944223
  C     6.889429  5.253898 -3.353048
  C     5.492838  9.422086 -3.973084
  C     6.687915  8.922719 -3.364098
  N     7.874040  5.183824 -4.237412
  N     5.768824  6.163773 -5.204534
  N     5.009460  5.279214 -1.572925
  N     7.738459  8.797052 -4.146870
  N     5.670048  9.729295 -5.266316
  N     5.002325  9.145756 -1.463746
  S     7.379041  5.842396 -5.623380
  S     4.296931  5.906273 -2.962068
  S     6.626008  4.692114 -1.701999
  S     7.257426  9.299505 -5.623514
  S     4.272757  9.712978 -2.834907
  S     6.565657  8.542606 -1.693004
