16  
    
  C     5.559656  5.759017 -4.338234
  C     6.774010  5.483006 -3.577472
  C     5.676387  9.325170 -4.298316
  C     6.950700  9.171347 -3.596080
  N     7.853829  5.211486 -4.350363
  N     5.731019  5.684201 -5.676799
  N     4.834600  5.678956 -1.883811
  N     8.034991  9.274960 -4.318073
  N     5.783181  9.454719 -5.620787
  N     5.185493  8.972347 -1.774867
  S     7.358754  5.399202 -5.918711
  S     4.144357  5.820299 -3.381951
  S     6.458712  5.398823 -1.895220
  S     7.460867  9.453203 -5.903261
  S     4.327233  9.324639 -3.135001
  S     6.869369  8.743277 -1.934287
