16  
    
  C     5.661835  6.085888 -4.524125
  C     6.848166  5.540431 -3.854079
  C     5.568223  9.700240 -4.423976
  C     6.751685  9.160760 -3.756498
  N     7.860053  5.342540 -4.676780
  N     5.790518  6.342636 -5.831572
  N     4.967209  5.850219 -2.000636
  N     7.821221  9.081069 -4.556519
  N     5.803070 10.086518 -5.666492
  N     4.928216  9.338684 -1.973811
  S     7.344525  5.833909 -6.136641
  S     4.276619  6.153922 -3.480612
  S     6.548563  5.457541 -2.116902
  S     7.274324  9.540450 -6.058749
  S     4.223530  9.880701 -3.447356
  S     6.470622  8.952018 -1.960263
