16  
    
  C     5.498212  5.875684 -4.509731
  C     6.777718  5.552316 -3.846494
  C     5.662983  9.467575 -4.102458
  C     6.894155  9.010234 -3.482136
  N     7.831682  5.361803 -4.689625
  N     5.586872  5.966634 -5.844028
  N     4.957254  5.658597 -1.941743
  N     7.863410  8.734104 -4.320807
  N     5.747483  9.520332 -5.439693
  N     5.064562  8.825612 -1.635995
  S     7.203475  5.774435 -6.156231
  S     4.120701  5.959103 -3.386705
  S     6.617291  5.487117 -2.103400
  S     7.230946  9.053302 -5.875571
  S     4.258256  9.259128 -2.985998
  S     6.679498  8.761613 -1.776392
