16  
    
  C     5.475430  5.646825 -4.223442
  C     6.634816  5.130935 -3.587815
  C     5.527923  9.308357 -4.153927
  C     6.757053  8.904723 -3.522559
  N     7.646572  4.899667 -4.388891
  N     5.611159  5.848010 -5.542843
  N     4.886028  5.353469 -1.707128
  N     7.812489  8.825543 -4.327022
  N     5.702770  9.609468 -5.423332
  N     4.956224  9.129115 -1.669585
  S     7.166311  5.416338 -5.910472
  S     4.140719  6.072947 -3.103040
  S     6.453679  4.837507 -1.897067
  S     7.236693  9.205093 -5.864430
  S     4.184572  9.418568 -3.088864
  S     6.523150  8.671001 -1.812991
