16  
    
  C     5.474055  5.879762 -4.551835
  C     6.711950  5.546042 -3.836519
  C     5.594855  9.337021 -4.176816
  C     6.863005  8.987770 -3.529595
  N     7.783912  5.418354 -4.637793
  N     5.553743  5.887713 -5.899590
  N     4.878797  5.772478 -1.955105
  N     7.903676  8.909081 -4.337797
  N     5.681382  9.399515 -5.473984
  N     5.144571  9.416126 -1.668991
  S     7.159103  5.520811 -6.181097
  S     4.193943  6.255011 -3.390228
  S     6.531163  5.358413 -2.071684
  S     7.322937  9.317545 -5.828537
  S     4.287188  9.587168 -3.085511
  S     6.688703  8.845889 -1.796263
