16  
    
  C     5.624189  5.484885 -4.048080
  C     6.839857  5.039734 -3.418223
  C     5.800030  9.430681 -3.908206
  C     7.020934  9.068606 -3.250945
  N     7.847932  4.986121 -4.264669
  N     5.678371  5.729762 -5.373418
  N     5.191970  5.514958 -1.496950
  N     8.047221  8.840379 -4.040807
  N     5.943513  9.419168 -5.263306
  N     5.372182  9.158189 -1.359660
  S     7.177563  5.320504 -5.764100
  S     4.393850  5.810916 -2.893901
  S     6.769412  4.977074 -1.674752
  S     7.500220  9.039616 -5.559757
  S     4.506120  9.441887 -2.791465
  S     7.019283  8.827078 -1.531929
