16  
    
  C     5.460311  5.756154 -4.431359
  C     6.649151  5.462886 -3.694087
  C     5.671540  9.021331 -4.177668
  C     6.927979  8.756441 -3.524392
  N     7.777294  5.542465 -4.414169
  N     5.630769  5.965382 -5.723243
  N     4.756964  5.502052 -1.914755
  N     7.955426  8.850186 -4.332616
  N     5.743625  9.192656 -5.506667
  N     5.207912  8.756113 -1.680381
  S     7.280592  5.731605 -5.977963
  S     4.113616  6.061876 -3.350323
  S     6.404414  5.270030 -1.950345
  S     7.314564  9.148454 -5.869010
  S     4.360240  8.960322 -3.066375
  S     6.872796  8.412551 -1.834693
