16  
    
  C     5.752155  6.085306 -4.386679
  C     6.957442  5.553897 -3.698200
  C     5.833368  9.567699 -4.374715
  C     6.951417  8.936540 -3.680633
  N     8.023001  5.353996 -4.483149
  N     5.959377  6.301172 -5.709263
  N     5.120882  5.833995 -1.912076
  N     7.926721  8.643120 -4.498797
  N     5.960196  9.716236 -5.663243
  N     5.191761  9.337919 -1.865094
  S     7.562378  5.930956 -5.963675
  S     4.343771  6.114184 -3.369686
  S     6.664182  5.238892 -1.983474
  S     7.517716  9.062547 -6.043105
  S     4.505486  9.786766 -3.292955
  S     6.800262  8.847934 -1.924257
