16  
    
  C     5.606235  5.843321 -4.306664
  C     6.852650  5.453578 -3.666971
  C     5.779520  9.486912 -4.461662
  C     6.992648  9.089740 -3.743482
  N     7.835751  5.294362 -4.510528
  N     5.706640  6.081184 -5.604947
  N     4.999455  5.800640 -1.785009
  N     8.043328  9.007540 -4.528031
  N     5.935958  9.713948 -5.770930
  N     5.045065  9.294662 -1.977500
  S     7.263795  5.731052 -6.020388
  S     4.268339  6.119614 -3.245770
  S     6.577392  5.329722 -1.920187
  S     7.517590  9.286119 -6.116945
  S     4.389385  9.516716 -3.428767
  S     6.716104  9.075623 -2.015879
