16  
    
  C     5.835393  5.772872 -4.017810
  C     6.902629  4.997908 -3.418944
  C     5.630142  9.628560 -4.188208
  C     6.843038  9.003489 -3.742303
  N     7.927986  4.857811 -4.259925
  N     6.072245  6.211992 -5.266428
  N     5.181849  5.117682 -1.567086
  N     7.848913  9.075259 -4.605054
  N     5.707530 10.114246 -5.413191
  N     5.176992  8.913763 -1.792122
  S     7.607998  5.622997 -5.642344
  S     4.386320  5.784350 -2.952803
  S     6.751903  4.588375 -1.764731
  S     7.259429  9.820618 -5.912520
  S     4.398906  9.677206 -3.047588
  S     6.729763  8.453127 -2.054700
