16  
    
  C     5.543860  5.913931 -4.425263
  C     6.828532  5.641088 -3.775752
  C     5.747997  9.487734 -4.376342
  C     7.055597  9.135990 -3.727875
  N     7.837999  5.554054 -4.629345
  N     5.676146  6.060655 -5.727910
  N     5.011397  5.449290 -1.953811
  N     8.099825  8.988251 -4.497103
  N     5.882564  9.558339 -5.707506
  N     5.312392  9.381623 -1.843072
  S     7.269341  5.790365 -6.076321
  S     4.211596  6.068389 -3.329026
  S     6.632768  5.248125 -2.100830
  S     7.514003  9.343749 -6.061237
  S     4.401765  9.524561 -3.263017
  S     6.918848  9.000722 -1.984908
