16  
    
  C     5.573481  6.306604 -4.442199
  C     6.704804  5.782978 -3.775583
  C     5.554807  9.590225 -4.462112
  C     6.779549  9.166432 -3.775553
  N     7.750667  5.492884 -4.583782
  N     5.657418  6.383103 -5.797747
  N     4.867740  6.110990 -1.932611
  N     7.826450  8.961303 -4.555695
  N     5.772470  9.786823 -5.769977
  N     5.069866  9.572992 -1.912914
  S     7.226974  5.854288 -6.093521
  S     4.185651  6.538432 -3.332964
  S     6.493589  5.826632 -2.006091
  S     7.303022  9.212277 -6.103323
  S     4.291748  9.866311 -3.343255
  S     6.725914  9.114122 -2.014469
