16  
    
  C     5.452227  6.062080 -4.384160
  C     6.690713  5.846910 -3.813312
  C     5.517837  9.687589 -4.238625
  C     6.743801  9.222672 -3.644372
  N     7.706813  5.624719 -4.622496
  N     5.485408  6.057096 -5.696336
  N     4.971023  5.827856 -1.859097
  N     7.784186  9.144847 -4.501467
  N     5.570064  9.862549 -5.572542
  N     4.937722  9.539178 -1.766648
  S     7.088322  5.844667 -6.134276
  S     4.142434  6.236037 -3.244022
  S     6.561481  5.534491 -2.104837
  S     7.085340  9.448990 -6.035541
  S     4.130554  9.867073 -3.204452
  S     6.521933  8.910630 -1.991157
