16  
    
  C     5.532285  6.606872 -4.519991
  C     6.717620  6.082159 -3.892914
  C     5.628813 10.157470 -4.523525
  C     6.775106  9.500421 -3.786083
  N     7.687477  5.794299 -4.759203
  N     5.654745  6.779694 -5.872265
  N     4.988701  6.522225 -2.045800
  N     7.796324  9.217798 -4.595661
  N     5.824448 10.360124 -5.791720
  N     4.939964  9.898826 -2.076129
  S     7.197809  6.188613 -6.228065
  S     4.269667  7.079756 -3.453677
  S     6.511731  5.924570 -2.174225
  S     7.278732  9.723191 -6.138738
  S     4.221731 10.515458 -3.510547
  S     6.499619  9.591772 -2.044940
