16  
    
  C     5.749818  5.954321 -4.148481
  C     6.958377  5.240136 -3.688656
  C     5.726445  9.295590 -4.040468
  C     6.962951  8.875156 -3.456976
  N     7.896271  5.067047 -4.641882
  N     5.816353  6.224904 -5.451874
  N     5.219260  5.207990 -1.709332
  N     8.005824  8.807426 -4.264277
  N     5.844148  9.437187 -5.359764
  N     5.346807  8.818572 -1.489534
  S     7.194608  5.662122 -6.081753
  S     4.408126  5.975657 -2.960085
  S     6.845257  4.800361 -1.964822
  S     7.404543  9.168673 -5.731653
  S     4.454925  9.226336 -2.854197
  S     6.957877  8.476379 -1.809936
