16  
    
  C     5.414082  5.507080 -4.170886
  C     6.566953  5.080269 -3.434487
  C     5.622084  8.954672 -4.042142
  C     6.852184  8.538123 -3.416602
  N     7.590507  4.793971 -4.258590
  N     5.630122  5.706531 -5.479063
  N     4.772862  5.328375 -1.704088
  N     7.813437  8.260666 -4.284562
  N     5.730930  9.086224 -5.351411
  N     5.228813  8.920983 -1.453799
  S     7.218378  5.359187 -5.738366
  S     4.102476  5.835530 -3.160715
  S     6.389230  5.173087 -1.733673
  S     7.223472  8.574133 -5.777874
  S     4.370472  9.095513 -2.849095
  S     6.831457  8.423278 -1.648442
