16  
    
  C     5.692141  5.912152 -4.078647
  C     6.740787  5.088067 -3.552105
  C     5.743147  9.523602 -4.493498
  C     6.879059  8.864082 -3.938367
  N     7.602186  4.677758 -4.457515
  N     5.788818  6.147703 -5.364404
  N     5.070100  5.666746 -1.644212
  N     7.858176  8.530365 -4.788292
  N     5.952752  9.802465 -5.787087
  N     5.211793  9.440301 -1.999015
  S     7.201962  5.452485 -5.865060
  S     4.415922  6.372339 -2.968001
  S     6.426461  4.745760 -1.869205
  S     7.359702  9.136950 -6.264235
  S     4.412572  9.783983 -3.404635
  S     6.705284  8.745812 -2.224172
