16  
    
  C     5.573761  5.901727 -4.520835
  C     6.772912  5.361647 -3.819203
  C     5.581639  9.740805 -4.199239
  C     6.832001  9.253720 -3.690404
  N     7.847276  5.260777 -4.582726
  N     5.727011  6.001862 -5.828956
  N     4.885363  5.623129 -2.036686
  N     7.773986  9.063046 -4.602686
  N     5.601053  9.946444 -5.494417
  N     4.999496  9.245548 -1.816544
  S     7.309995  5.642024 -6.208527
  S     4.211457  6.215221 -3.420851
  S     6.494154  5.085816 -2.087006
  S     7.143901  9.674432 -6.038930
  S     4.258919  9.894048 -3.061601
  S     6.639668  8.758211 -2.011546
