16  
    
  C     5.074085  5.989522 -4.330307
  C     6.327831  5.572043 -3.624779
  C     5.493992  9.452064 -4.020770
  C     6.707271  9.001061 -3.410269
  N     7.428667  5.451872 -4.380769
  N     5.193594  5.985033 -5.660901
  N     4.525995  5.845556 -1.783641
  N     7.675716  8.722299 -4.292855
  N     5.505575  9.479066 -5.372797
  N     5.248605  9.602637 -1.531366
  S     6.789310  5.682492 -5.937608
  S     3.830738  6.347586 -3.232257
  S     6.119625  5.562651 -1.902614
  S     7.029129  9.010426 -5.779485
  S     4.366028  9.991969 -2.834167
  S     6.625082  8.718917 -1.779000
