16  
    
  C     5.675048  5.842524 -4.113565
  C     6.764201  5.182651 -3.371378
  C     5.525726  9.484650 -4.025460
  C     6.628187  8.816913 -3.389430
  N     7.806930  4.849916 -4.116396
  N     5.942920  5.976422 -5.427416
  N     4.922062  5.393862 -1.653603
  N     7.696967  8.620646 -4.136861
  N     5.720977  9.743546 -5.310929
  N     4.851513  9.139415 -1.563694
  S     7.471464  5.471172 -5.657313
  S     4.230122  5.934624 -3.128935
  S     6.576972  5.104846 -1.681389
  S     7.213419  9.148150 -5.660867
  S     4.157498  9.595160 -2.980419
  S     6.407627  8.584863 -1.663486
