16  
    
  C     5.447111  5.555110 -4.165349
  C     6.593651  5.089811 -3.493424
  C     5.638065  8.967809 -4.016652
  C     6.859113  8.490866 -3.393265
  N     7.650309  4.870878 -4.233823
  N     5.630695  5.801419 -5.446591
  N     4.772297  5.336666 -1.689739
  N     7.841156  8.214532 -4.260740
  N     5.681554  9.077327 -5.363832
  N     5.196337  8.896417 -1.460951
  S     7.191073  5.366751 -5.745806
  S     4.129184  5.847558 -3.109791
  S     6.389014  5.130780 -1.748307
  S     7.168285  8.552685 -5.815731
  S     4.322891  9.101200 -2.876450
  S     6.818153  8.503638 -1.648643
