16  
    
  C     5.427986  6.587515 -4.548052
  C     6.513073  5.972192 -3.780301
  C     5.511674 10.123546 -4.320564
  C     6.724124  9.756427 -3.648739
  N     7.522822  5.565710 -4.528721
  N     5.666470  6.749685 -5.818889
  N     4.799443  6.486255 -2.023397
  N     7.775978  9.740772 -4.457777
  N     5.661747 10.302118 -5.665553
  N     4.905345  9.909440 -1.876516
  S     7.131646  6.090136 -6.130787
  S     4.065632  6.842339 -3.452730
  S     6.337915  5.829075 -2.118302
  S     7.294516 10.004501 -6.002393
  S     4.094773 10.225731 -3.268385
  S     6.556542  9.453250 -2.006163
