16  
    
  C     5.529602  5.991262 -4.705436
  C     6.688768  5.550390 -4.009248
  C     5.666686  9.882288 -4.363063
  C     6.801654  9.216226 -3.732208
  N     7.828741  5.547918 -4.693558
  N     5.733519  6.309953 -5.999512
  N     4.786318  5.735821 -2.257403
  N     7.822086  9.010030 -4.559065
  N     5.823875 10.213524 -5.615415
  N     4.865193  9.247189 -1.980085
  S     7.356820  5.910262 -6.283937
  S     4.133042  6.166074 -3.702161
  S     6.416340  5.343353 -2.344126
  S     7.293555  9.690406 -6.061967
  S     4.220061  9.748708 -3.426994
  S     6.514228  8.856117 -2.047697
