16  
    
  C     5.528187  6.450852 -4.535406
  C     6.693033  5.866131 -3.838334
  C     5.685581  9.751498 -4.433645
  C     6.862670  9.436410 -3.723534
  N     7.677541  5.569734 -4.625435
  N     5.644704  6.454591 -5.849894
  N     4.882733  6.227230 -2.030578
  N     7.943617  9.299412 -4.506169
  N     5.858085  9.898354 -5.766652
  N     5.066330  9.796564 -1.937046
  S     7.114886  5.869435 -6.262872
  S     4.195066  6.749260 -3.452677
  S     6.500119  5.865157 -2.150339
  S     7.422767  9.453653 -6.054164
  S     4.305146  9.939074 -3.330873
  S     6.687337  9.312618 -2.047270
