16  
    
  C     5.537357  5.380685 -4.294989
  C     6.822102  5.287056 -3.552219
  C     5.695847  9.363607 -4.225411
  C     6.956858  9.236484 -3.537747
  N     7.893453  5.255250 -4.332615
  N     5.674881  5.441978 -5.615597
  N     4.999710  5.776192 -1.763145
  N     8.016955  9.288317 -4.348345
  N     5.749176  9.508070 -5.535828
  N     5.139740  8.904678 -1.728874
  S     7.321259  5.364299 -5.939096
  S     4.215291  5.789666 -3.270730
  S     6.643236  5.447302 -1.814565
  S     7.363719  9.407053 -5.931055
  S     4.334687  9.161878 -3.148553
  S     6.790516  8.788040 -1.884539
