16  
    
  C     5.511414  5.565841 -4.092109
  C     6.754633  5.158237 -3.524084
  C     5.470311  8.909334 -4.133211
  C     6.792238  8.879892 -3.539038
  N     7.761188  5.107153 -4.427681
  N     5.590068  5.860871 -5.403128
  N     5.084978  5.438540 -1.563203
  N     7.843151  8.791750 -4.358201
  N     5.519824  8.839476 -5.442144
  N     5.112759  9.175157 -1.574477
  S     7.126697  5.492897 -5.904798
  S     4.274919  6.055072 -2.872307
  S     6.733729  5.062429 -1.786807
  S     7.109037  8.721099 -5.890029
  S     4.169493  9.010788 -2.940010
  S     6.675535  8.687884 -1.812546
