16  
    
  C     5.632486  5.681165 -4.249940
  C     6.782134  5.281835 -3.478170
  C     5.523589  9.326662 -4.175767
  C     6.698639  8.803771 -3.540492
  N     7.806150  5.025017 -4.278411
  N     5.737166  5.638567 -5.568143
  N     4.950045  5.673463 -1.753415
  N     7.750960  8.698569 -4.381088
  N     5.642044  9.575109 -5.473602
  N     4.845719  8.972124 -1.744546
  S     7.392848  5.314093 -5.853826
  S     4.252441  6.073504 -3.193480
  S     6.463554  4.972869 -1.790724
  S     7.194618  9.112513 -5.870394
  S     4.216459  9.585558 -3.148094
  S     6.430233  8.565910 -1.792594
