16  
    
  C     5.491381  5.807580 -4.398800
  C     6.671059  5.290349 -3.722228
  C     5.725397  9.213278 -4.257003
  C     6.939116  8.902656 -3.545979
  N     7.694087  4.994934 -4.534509
  N     5.607725  5.871386 -5.719481
  N     4.851955  5.602908 -1.896584
  N     7.999603  8.581183 -4.275854
  N     5.859685  9.048095 -5.563591
  N     5.184613  9.298008 -1.701304
  S     7.128282  5.230224 -6.086632
  S     4.103239  5.975351 -3.342201
  S     6.535780  5.285605 -1.974212
  S     7.438222  8.673142 -5.900194
  S     4.350204  9.432490 -3.115889
  S     6.808068  9.001722 -1.828871
