16  
    
  C     5.622407  6.133405 -4.492696
  C     6.824268  5.642824 -3.773102
  C     5.559178  9.698399 -4.414547
  C     6.733083  9.261709 -3.764639
  N     7.912465  5.487885 -4.547109
  N     5.764711  6.211856 -5.831503
  N     4.991400  5.926158 -2.008708
  N     7.805546  8.953840 -4.491479
  N     5.797332  9.780604 -5.721963
  N     4.899456  9.364740 -1.901456
  S     7.359419  5.824268 -6.107914
  S     4.214519  6.310626 -3.460687
  S     6.585160  5.521214 -2.032776
  S     7.363174  9.478452 -6.042921
  S     4.178117  9.906499 -3.375574
  S     6.455834  8.983651 -2.074415
