16  
    
  C     5.220523  6.161308 -4.394156
  C     6.486580  5.711823 -3.763389
  C     5.522501  9.678845 -4.433432
  C     6.635806  9.200840 -3.710036
  N     7.503429  5.548077 -4.589481
  N     5.411367  6.351671 -5.695084
  N     4.812744  6.001085 -1.852693
  N     7.686803  8.982781 -4.491064
  N     5.674072  9.916195 -5.756295
  N     4.824693  9.590270 -1.956104
  S     6.933173  5.900000 -6.093096
  S     3.946851  6.432320 -3.256712
  S     6.435830  5.660700 -1.996406
  S     7.246982  9.516008 -6.043064
  S     4.113149  9.807869 -3.467770
  S     6.447919  9.105476 -2.034835
