16  
    
  C     5.519083  5.233284 -4.300379
  C     6.864570  4.999453 -3.733177
  C     5.622245  9.432004 -4.501689
  C     6.748984  8.962162 -3.745009
  N     7.885373  5.036191 -4.586841
  N     5.605207  5.274054 -5.617775
  N     5.260071  5.250313 -1.740907
  N     7.852534  8.755522 -4.479392
  N     5.770568  9.400940 -5.829139
  N     4.732923  9.140633 -2.090803
  S     7.158357  5.012765 -6.115123
  S     4.289731  5.418702 -3.042161
  S     6.921835  4.986968 -2.001202
  S     7.367700  9.036491 -6.066837
  S     4.177537  9.641392 -3.539389
  S     6.319918  8.672478 -2.065456
