16  
    
  C     5.515760  6.051250 -4.347210
  C     6.746337  5.696744 -3.694365
  C     5.657198  9.495325 -4.368814
  C     6.864393  9.111705 -3.740974
  N     7.820798  5.522234 -4.454288
  N     5.590323  6.140620 -5.653439
  N     4.934799  5.894023 -1.905282
  N     7.887099  8.935957 -4.590449
  N     5.750697  9.592770 -5.651996
  N     5.176183  9.392550 -1.841682
  S     7.115519  5.790232 -6.093999
  S     4.209658  6.377772 -3.344294
  S     6.566388  5.551499 -1.935614
  S     7.307658  9.349267 -6.065280
  S     4.314912  9.649295 -3.285073
  S     6.690639  8.870884 -2.002890
