16  
    
  C     5.675654  5.886612 -4.506756
  C     6.887388  5.437673 -3.850446
  C     5.517413  9.459234 -4.328794
  C     6.781609  9.113881 -3.692098
  N     7.880741  5.122389 -4.699216
  N     5.806055  5.953790 -5.822035
  N     5.146560  5.541008 -2.000261
  N     7.783238  9.241836 -4.518760
  N     5.602582  9.755654 -5.617036
  N     5.114657  9.025818 -1.760408
  S     7.363986  5.501278 -6.237761
  S     4.373998  6.032664 -3.401207
  S     6.752628  5.306413 -2.123562
  S     7.171735  9.624030 -6.005431
  S     4.243050  9.340408 -3.125824
  S     6.791102  8.808518 -1.937881
