16  
    
  C     5.570954  6.158845 -4.409625
  C     6.741626  5.595458 -3.791677
  C     5.440533  9.775600 -4.155924
  C     6.691962  9.319739 -3.605789
  N     7.811953  5.495955 -4.588614
  N     5.709119  6.478706 -5.710795
  N     4.945564  5.748491 -1.853678
  N     7.650709  9.025653 -4.459395
  N     5.511716  9.827623 -5.458078
  N     4.894513  9.414712 -1.652229
  S     7.282920  5.963242 -6.076415
  S     4.272297  6.355762 -3.281217
  S     6.475988  5.191254 -2.115421
  S     7.015031  9.440548 -5.971796
  S     4.148791  9.953224 -3.113939
  S     6.504145  9.064584 -1.816660
