16  
    
  C     5.563199  5.892686 -4.136975
  C     6.546388  4.970492 -3.594035
  C     5.663794  9.519854 -4.597145
  C     6.754192  8.801243 -3.949226
  N     7.527501  4.616551 -4.400945
  N     5.736992  6.193564 -5.406322
  N     5.082920  5.715604 -1.540734
  N     7.817666  8.537748 -4.685259
  N     5.883089  9.753062 -5.908174
  N     5.204947  9.411560 -2.005739
  S     7.090047  5.315341 -5.908578
  S     4.447686  6.424213 -2.944761
  S     6.352590  4.650265 -1.857432
  S     7.442104  9.186864 -6.218476
  S     4.395523  9.834745 -3.420837
  S     6.660285  8.629111 -2.195776
