16  
    
  C     5.567348  5.982299 -4.328223
  C     6.823156  5.492724 -3.779684
  C     5.795331  9.369492 -4.229122
  C     7.047307  8.876266 -3.682971
  N     7.843090  5.508601 -4.642818
  N     5.679066  6.396991 -5.605269
  N     5.206918  5.724937 -1.832097
  N     8.010615  8.715154 -4.552303
  N     5.835153  9.661876 -5.509834
  N     5.343566  9.104810 -1.686470
  S     7.239255  6.058541 -6.085817
  S     4.332189  6.177273 -3.161750
  S     6.759924  5.141564 -2.077881
  S     7.462766  9.290893 -5.996523
  S     4.497423  9.594036 -3.073439
  S     6.931254  8.810805 -1.999890
