16  
    
  C     5.169766  6.354460 -4.328737
  C     6.361743  5.827013 -3.684804
  C     5.908240  9.606723 -4.148813
  C     7.107260  9.010160 -3.554553
  N     7.410926  5.536452 -4.462774
  N     5.374637  6.579633 -5.616505
  N     4.459427  5.883744 -1.927321
  N     8.008411  8.715637 -4.491793
  N     5.886727  9.744678 -5.482263
  N     5.460526  9.641973 -1.640886
  S     6.863729  6.011388 -6.015884
  S     3.799540  6.694130 -3.222500
  S     6.069561  5.471056 -1.951788
  S     7.359691  9.217768 -5.994787
  S     4.559374  9.860916 -3.065526
  S     6.910583  8.920536 -1.857734
