16  
    
  C     5.245466  6.231633 -4.512480
  C     6.406597  5.672801 -3.891350
  C     5.448018  9.595816 -4.095202
  C     6.746281  9.354703 -3.475339
  N     7.452455  5.626432 -4.775271
  N     5.368661  6.552047 -5.800973
  N     4.599836  5.954480 -2.075276
  N     7.743782  9.499443 -4.291264
  N     5.423732  9.947481 -5.394898
  N     5.022004  9.032565 -1.592165
  S     6.896828  6.164106 -6.216767
  S     3.872373  6.427314 -3.484359
  S     6.208151  5.521014 -2.203173
  S     7.074408  9.917329 -5.766403
  S     4.199341  9.543630 -2.919561
  S     6.684797  8.873708 -1.852257
