16  
    
  C     5.244925  6.297588 -4.540871
  C     6.382207  5.732281 -3.810580
  C     5.467346  9.814264 -4.062832
  C     6.784335  9.494856 -3.488193
  N     7.403043  5.491478 -4.556876
  N     5.491310  6.592138 -5.812135
  N     4.530325  6.112758 -2.055656
  N     7.719977  9.603166 -4.447455
  N     5.450526 10.102809 -5.345991
  N     5.028310  9.206465 -1.599562
  S     7.014096  6.124067 -6.139945
  S     3.827045  6.382687 -3.507158
  S     6.092091  5.469295 -2.133156
  S     7.027025 10.047214 -5.902936
  S     4.096071  9.640552 -2.958652
  S     6.668216  9.123770 -1.807636
