16  
    
  C     5.868811  5.796209 -4.480699
  C     7.067388  5.424324 -3.774070
  C     5.607277  9.667230 -4.307103
  C     6.890286  9.277213 -3.740380
  N     8.201103  5.298628 -4.473743
  N     6.039639  5.906675 -5.812342
  N     5.147016  5.812790 -2.022492
  N     7.928975  9.220058 -4.567781
  N     5.624431  9.746241 -5.593911
  N     5.119810  9.174572 -1.847267
  S     7.624223  5.512740 -6.024612
  S     4.483318  6.233604 -3.465300
  S     6.773798  5.352601 -2.037396
  S     7.195058  9.503949 -6.086381
  S     4.228210  9.571955 -3.209789
  S     6.704539  8.837202 -2.108905
