16  
    
  C     5.280820  6.338537 -4.352243
  C     6.349435  5.705253 -3.726620
  C     5.558992  9.599188 -4.394788
  C     6.766532  9.283951 -3.678049
  N     7.369481  5.481904 -4.529514
  N     5.416527  6.520742 -5.646010
  N     4.687963  6.076756 -1.898120
  N     7.808048  9.155030 -4.499140
  N     5.635259  9.649551 -5.737388
  N     4.990693  9.473235 -1.948990
  S     6.914822  5.828313 -6.067181
  S     4.040139  6.844324 -3.264327
  S     6.213130  5.511184 -1.984783
  S     7.267589  9.399306 -6.032264
  S     4.207880  9.802390 -3.345147
  S     6.540371  8.874801 -1.971436
