16  
    
  C     5.521252  5.689916 -4.294357
  C     6.731901  5.375351 -3.626832
  C     5.430063  9.302993 -4.337191
  C     6.668391  8.963207 -3.710534
  N     7.803982  5.265666 -4.405726
  N     5.544946  5.890556 -5.620686
  N     4.953418  5.579918 -1.738309
  N     7.746802  8.964268 -4.505396
  N     5.556512  9.429758 -5.667089
  N     5.033346  9.275555 -1.747116
  S     7.159406  5.512729 -5.966159
  S     4.205698  5.881636 -3.143078
  S     6.563779  5.182771 -1.885858
  S     7.186372  9.263347 -6.041750
  S     4.203792  9.596930 -3.178381
  S     6.585093  8.668912 -1.957493
