16  
    
  C     5.226921  6.355055 -4.506449
  C     6.469762  5.984644 -3.877597
  C     5.481798  9.649857 -4.213779
  C     6.815732  9.330259 -3.706934
  N     7.525068  6.005320 -4.694211
  N     5.277111  6.531900 -5.806373
  N     4.656873  5.952293 -1.979216
  N     7.798008  9.277832 -4.642140
  N     5.473032  9.901848 -5.532782
  N     5.009077  9.307155 -1.760424
  S     6.914997  6.299404 -6.155281
  S     3.871882  6.391155 -3.406375
  S     6.294085  5.911743 -2.085202
  S     7.037587  9.738971 -6.090302
  S     4.181859  9.641089 -3.125349
  S     6.669472  8.981418 -2.011624
