16  
    
  C     5.530857  6.036961 -4.459876
  C     6.731669  5.521357 -3.874029
  C     5.411355  9.813012 -4.467218
  C     6.620660  9.280896 -3.872062
  N     7.658294  5.326059 -4.776018
  N     5.529195  6.134813 -5.754234
  N     5.079052  5.854024 -1.931034
  N     7.704487  9.137115 -4.681656
  N     5.616952 10.172802 -5.762081
  N     4.793670  9.594318 -2.010866
  S     7.086830  5.696821 -6.258709
  S     4.313186  6.345815 -3.320790
  S     6.679123  5.350510 -2.212541
  S     7.177846  9.702519 -6.153662
  S     4.044828 10.019749 -3.449118
  S     6.363321  9.060525 -2.147252
