16  
    
  C     5.635691  6.581893 -4.521368
  C     6.847486  6.138782 -3.905133
  C     5.590967 10.173571 -4.654530
  C     6.667459  9.618240 -3.913726
  N     7.825550  5.909325 -4.794065
  N     5.711204  6.691853 -5.866985
  N     5.059888  6.443248 -2.052327
  N     7.726747  9.255512 -4.680130
  N     5.707888 10.188281 -6.012208
  N     5.044859 10.092948 -2.053182
  S     7.268752  6.200063 -6.273244
  S     4.313322  7.057706 -3.417953
  S     6.553268  5.751158 -2.223897
  S     7.245445  9.585983 -6.253176
  S     4.252318 10.534594 -3.484706
  S     6.522114  9.439726 -2.189975
