16  
    
  C     5.581681  5.985990 -4.264279
  C     6.707263  5.311427 -3.623898
  C     5.930314  9.151312 -3.986774
  C     7.209125  8.768983 -3.422411
  N     7.697852  5.052104 -4.451163
  N     5.782933  6.212868 -5.539016
  N     4.895909  5.654367 -1.809317
  N     8.249670  8.736350 -4.295479
  N     6.004205  9.375463 -5.298435
  N     5.451946  9.006305 -1.545616
  S     7.194251  5.498274 -5.964734
  S     4.217251  6.201940 -3.201547
  S     6.491497  5.201696 -1.969151
  S     7.522678  9.193938 -5.760541
  S     4.568606  9.129460 -2.915773
  S     7.042148  8.445036 -1.689616
