16  
    
  C     5.633830  5.775856 -4.102566
  C     6.830364  5.224069 -3.575245
  C     5.827066  9.155001 -3.936519
  C     7.077448  8.755186 -3.352588
  N     7.840884  4.986539 -4.392759
  N     5.683773  5.949667 -5.430573
  N     5.218348  5.286779 -1.607329
  N     8.083812  8.750470 -4.236586
  N     5.887747  9.487086 -5.233147
  N     5.296920  9.030370 -1.398615
  S     7.200174  5.489417 -5.855316
  S     4.451136  5.983808 -2.889493
  S     6.799148  4.871478 -1.887021
  S     7.482054  9.244960 -5.710422
  S     4.466956  9.285605 -2.836327
  S     6.925147  8.686290 -1.580367
