16  
    
  C     5.174669  6.354182 -4.312444
  C     6.353916  5.824560 -3.687389
  C     5.903319  9.600745 -4.137339
  C     7.106346  9.014645 -3.564641
  N     7.398760  5.540637 -4.461993
  N     5.368737  6.565864 -5.599147
  N     4.443694  5.892041 -1.924801
  N     8.024515  8.722278 -4.503825
  N     5.888724  9.753399 -5.485897
  N     5.455104  9.644988 -1.630059
  S     6.874671  6.008584 -6.018820
  S     3.798379  6.698968 -3.223322
  S     6.059014  5.464600 -1.950038
  S     7.358781  9.214093 -5.994870
  S     4.557986  9.869172 -3.068335
  S     6.916038  8.913927 -1.846653
