16  
    
  C     5.106989  6.316897 -4.510080
  C     6.374656  5.942768 -3.911002
  C     5.380814  9.606061 -4.214253
  C     6.643041  9.269078 -3.633609
  N     7.435973  5.968463 -4.748268
  N     5.169306  6.535618 -5.862469
  N     4.593782  5.994966 -1.996227
  N     7.654350  9.315382 -4.474443
  N     5.402726  9.994882 -5.492833
  N     5.044424  9.240272 -1.695943
  S     6.782317  6.352917 -6.206712
  S     3.761421  6.370898 -3.426768
  S     6.227528  5.788752 -2.221112
  S     7.014486  9.661738 -5.966752
  S     4.139222  9.512087 -2.962895
  S     6.677491  8.967664 -1.961632
