16  
    
  C     5.507598  6.023734 -4.377490
  C     6.735174  5.681458 -3.760032
  C     5.566984  9.374470 -4.473641
  C     6.838962  9.165412 -3.806374
  N     7.725104  5.460606 -4.600288
  N     5.577449  6.121679 -5.693362
  N     4.966621  5.762362 -1.929576
  N     7.885111  9.154537 -4.621328
  N     5.684202  9.529637 -5.780916
  N     5.028673  9.325686 -1.971793
  S     7.173978  5.755268 -6.071172
  S     4.164416  6.170006 -3.323651
  S     6.621079  5.607262 -2.080099
  S     7.332349  9.349393 -6.154395
  S     4.133860  9.436337 -3.359141
  S     6.675792  8.939112 -2.103925
