16  
    
  C     5.637199  5.552125 -4.152538
  C     6.911539  5.264015 -3.662356
  C     5.503317  9.482376 -4.500491
  C     6.590402  8.798581 -3.858809
  N     7.835169  5.169937 -4.591175
  N     5.576949  5.792592 -5.437287
  N     5.382782  5.244273 -1.606877
  N     7.635526  8.510644 -4.611292
  N     5.798522  9.718054 -5.787662
  N     4.879761  9.221221 -2.054175
  S     7.079594  5.487631 -6.062719
  S     4.375182  5.452777 -2.941613
  S     6.979857  5.077269 -1.971775
  S     7.359865  9.114739 -6.050324
  S     4.087047  9.602050 -3.509472
  S     6.307528  8.418734 -2.151265
