16  
    
  C     5.546243  5.784181 -4.355185
  C     6.787493  5.299090 -3.829958
  C     5.291385  9.950255 -4.653962
  C     6.420025  9.309226 -4.042605
  N     7.798389  5.120443 -4.641786
  N     5.619420  5.947091 -5.677808
  N     5.191825  5.535299 -1.853089
  N     7.398129  8.856397 -4.847673
  N     5.404488  9.940411 -5.984823
  N     4.870056  9.766057 -2.050771
  S     7.142029  5.565982 -6.202593
  S     4.374528  6.060444 -3.174468
  S     6.727123  4.962698 -2.156871
  S     6.919564  9.312267 -6.356137
  S     4.134497 10.373044 -3.506416
  S     6.354077  9.091783 -2.312994
