16  
    
  C     5.077596  6.293481 -4.529283
  C     6.323067  5.940735 -3.950448
  C     5.342982  9.595812 -4.158278
  C     6.680065  9.273227 -3.642163
  N     7.361635  5.985507 -4.747621
  N     5.157858  6.532398 -5.810569
  N     4.593332  6.029106 -2.049558
  N     7.724248  9.297985 -4.466211
  N     5.436348  9.932699 -5.443058
  N     5.031772  9.180921 -1.571303
  S     6.771995  6.324896 -6.204412
  S     3.778243  6.396143 -3.422049
  S     6.203669  5.698483 -2.244873
  S     7.004266  9.647204 -5.920875
  S     4.072527  9.492949 -2.945590
  S     6.642739  8.986526 -1.947470
