16  
    
  C     5.333889  5.840477 -4.484428
  C     6.591220  5.516979 -3.864751
  C     5.235870  9.920688 -4.719481
  C     6.483700  9.545629 -4.059612
  N     7.657396  5.529866 -4.719867
  N     5.421523  6.059692 -5.799752
  N     4.955360  5.635716 -1.919003
  N     7.586177  9.531862 -4.779427
  N     5.447640 10.098901 -6.024170
  N     4.697057  9.613883 -2.129341
  S     7.073996  5.895373 -6.143224
  S     4.037161  5.888621 -3.298111
  S     6.509683  5.147383 -2.149983
  S     7.044163  9.976076 -6.269354
  S     3.925761 10.080978 -3.574855
  S     6.342777  9.222014 -2.354395
