16  
    
  C     5.713797  5.536636 -4.277555
  C     6.935445  5.239156 -3.576084
  C     5.180979  9.823864 -4.672072
  C     6.294379  9.272177 -3.949930
  N     7.975151  5.152389 -4.400387
  N     5.806872  5.532008 -5.643796
  N     5.108712  5.674872 -1.734304
  N     7.342363  8.983315 -4.705697
  N     5.391655 10.025618 -5.960025
  N     4.534291  9.814288 -2.157398
  S     7.458834  5.248227 -5.894822
  S     4.346522  5.719376 -3.200364
  S     6.748661  5.287574 -1.840518
  S     6.866204  9.353419 -6.247007
  S     3.779588 10.257695 -3.558890
  S     6.018287  9.146404 -2.273913
