16  
    
  C     5.546751  5.969541 -4.406896
  C     6.687331  5.715510 -3.680333
  C     5.621930  9.605034 -4.371194
  C     6.754746  9.183059 -3.611599
  N     7.808404  5.521237 -4.349998
  N     5.769246  6.019157 -5.700036
  N     4.796897  6.052382 -1.985287
  N     7.836457  8.939295 -4.304308
  N     5.798854  9.646305 -5.702101
  N     4.879892  9.471924 -1.826179
  S     7.350337  5.743979 -5.938217
  S     4.150940  6.314545 -3.482534
  S     6.427921  5.622106 -2.002138
  S     7.434842  9.239611 -5.854272
  S     4.154317  9.703887 -3.265271
  S     6.555075  9.072004 -1.927904
