16  
    
  C     5.374747  5.942156 -4.347174
  C     6.497275  5.460545 -3.660685
  C     5.719246  9.651381 -4.160995
  C     6.810523  8.965466 -3.492824
  N     7.502291  5.127363 -4.440465
  N     5.542551  6.152441 -5.635103
  N     4.706338  5.766617 -1.863856
  N     7.882130  8.744611 -4.335648
  N     5.935735  9.928583 -5.449687
  N     4.913732  9.361757 -1.829489
  S     7.142510  5.650938 -5.976822
  S     3.952619  6.222875 -3.317259
  S     6.293241  5.314181 -1.940371
  S     7.408585  9.269944 -5.803460
  S     4.318428 10.050204 -3.178076
  S     6.484884  8.795597 -1.771872
