16  
    
  C     5.609704  5.563236 -4.207377
  C     6.870617  5.403100 -3.542018
  C     5.572843  9.199328 -4.233171
  C     6.860173  9.033121 -3.557967
  N     7.876377  5.106251 -4.360056
  N     5.585993  5.457980 -5.544186
  N     5.197266  5.772470 -1.620515
  N     7.925531  9.012927 -4.347829
  N     5.646670  9.461386 -5.511952
  N     5.105854  8.794235 -1.724052
  S     7.222785  5.241447 -5.902079
  S     4.384701  5.690677 -3.051954
  S     6.783949  5.377484 -1.826822
  S     7.297572  9.355600 -5.910318
  S     4.266085  8.982659 -3.130071
  S     6.807359  8.972202 -1.810399
