16  
    
  C     5.473118  5.630132 -4.361106
  C     6.615331  5.067608 -3.695729
  C     5.526275  9.702706 -4.600558
  C     6.675431  9.121294 -3.953772
  N     7.717359  4.884223 -4.437577
  N     5.690326  5.900143 -5.652905
  N     4.800795  5.465978 -1.851857
  N     7.727692  9.163997 -4.740003
  N     5.626766 10.089077 -5.883875
  N     4.814230  9.318134 -2.179311
  S     7.224843  5.433118 -5.947612
  S     4.157646  6.062056 -3.314675
  S     6.337001  4.757337 -1.977163
  S     7.255089  9.801396 -6.229329
  S     4.199621 10.004967 -3.557074
  S     6.353848  8.757175 -2.266032
