16  
    
  C     5.590297  5.292329 -4.168542
  C     6.801242  4.989592 -3.472497
  C     5.379862  9.366851 -4.391154
  C     6.562374  8.782718 -3.800628
  N     7.820570  5.011727 -4.325750
  N     5.585119  5.399051 -5.485116
  N     4.992096  5.196373 -1.661338
  N     7.547047  8.453735 -4.623214
  N     5.413589  9.342904 -5.719999
  N     4.915926  9.053592 -1.838243
  S     7.170822  5.114241 -5.897640
  S     4.227322  5.296623 -3.112021
  S     6.634775  4.999440 -1.723995
  S     6.931539  8.794482 -6.182003
  S     4.141277  9.657147 -3.216861
  S     6.479999  8.528647 -2.078420
