16  
    
  C     5.506742  6.150844 -4.427685
  C     6.724408  5.555719 -3.951762
  C     5.477912  9.836764 -4.262087
  C     6.634322  9.169506 -3.652245
  N     7.680931  5.381943 -4.882408
  N     5.569753  6.526251 -5.720738
  N     5.100092  5.631232 -1.947565
  N     7.594562  8.849572 -4.524070
  N     5.615517 10.043969 -5.581073
  N     4.985199  9.830742 -1.774186
  S     6.970014  6.000239 -6.290629
  S     4.353517  6.358433 -3.160122
  S     6.697962  5.294412 -2.190944
  S     7.120796  9.543382 -6.017931
  S     4.173312 10.159633 -3.214192
  S     6.435747  9.030942 -1.869783
