16  
    
  C     5.295298  6.159554 -4.342720
  C     6.468989  5.704430 -3.761200
  C     5.497484  9.660336 -4.434666
  C     6.670777  9.201391 -3.744862
  N     7.499067  5.552290 -4.598656
  N     5.386168  6.305452 -5.674085
  N     4.835222  5.996283 -1.849061
  N     7.713385  8.979431 -4.496873
  N     5.664684  9.926853 -5.709359
  N     4.804019  9.545569 -1.962282
  S     6.962886  5.912686 -6.103703
  S     3.944470  6.393967 -3.259320
  S     6.436599  5.674735 -2.019703
  S     7.230005  9.505572 -6.027379
  S     4.123592  9.837755 -3.443364
  S     6.432760  9.122835 -2.041805
