16  
    
  C     5.222996  6.271145 -4.557041
  C     6.514335  5.933176 -3.994331
  C     5.575934  9.480365 -4.034066
  C     6.798495  9.054004 -3.453323
  N     7.532072  5.899609 -4.816303
  N     5.259326  6.432320 -5.900303
  N     4.830546  5.783560 -2.107380
  N     7.821250  9.179369 -4.330327
  N     5.659767  9.926349 -5.289297
  N     5.132105  9.012442 -1.537695
  S     6.786786  6.172497 -6.395964
  S     3.979031  6.441791 -3.374474
  S     6.456792  5.563663 -2.343421
  S     7.210681  9.647952 -5.775889
  S     4.267489  9.267140 -2.962380
  S     6.674420  8.547474 -1.806644
