16  
    
  C     5.227250  6.360416 -4.715235
  C     6.473953  6.011956 -4.078145
  C     5.808248  9.766360 -4.313222
  C     7.079041  9.305338 -3.787706
  N     7.482160  5.743042 -4.882166
  N     5.308179  6.550947 -6.028506
  N     4.734372  6.415565 -2.150117
  N     8.012515  9.064027 -4.698028
  N     5.828893  9.831858 -5.626678
  N     5.242395  9.474722 -1.887063
  S     6.814649  6.066549 -6.418330
  S     3.941054  6.652680 -3.583444
  S     6.315854  6.000459 -2.315002
  S     7.320509  9.527972 -6.143934
  S     4.512371  9.843194 -3.248105
  S     6.875838  9.128945 -2.065807
