16  
    
  C     5.524741  5.886573 -4.329434
  C     6.727357  5.273159 -3.782449
  C     5.673839  9.238308 -4.423601
  C     6.865279  8.788522 -3.748374
  N     7.630025  5.013309 -4.712180
  N     5.473774  5.888952 -5.679588
  N     5.061819  5.494540 -1.770189
  N     7.941932  8.624859 -4.480679
  N     5.848652  9.325456 -5.745706
  N     5.116406  9.100075 -1.901604
  S     7.051267  5.402291 -6.193527
  S     4.309891  6.175468 -3.121749
  S     6.589477  4.938693 -2.091500
  S     7.452099  8.861461 -6.034714
  S     4.352644  9.411673 -3.332293
  S     6.716739  8.721195 -2.008725
