16  
    
  C     5.201811  6.257506 -4.377312
  C     6.333940  5.591017 -3.634524
  C     5.624023  9.628274 -4.201459
  C     6.791291  9.024022 -3.566313
  N     7.414900  5.352963 -4.403646
  N     5.473415  6.529054 -5.678611
  N     4.558893  6.214201 -1.854397
  N     7.696746  8.669717 -4.414093
  N     5.736338  9.791069 -5.497911
  N     5.180982  9.491427 -1.653823
  S     6.953347  5.853572 -5.954552
  S     3.864469  6.580130 -3.330683
  S     6.114991  5.589036 -1.900258
  S     7.228418  9.204768 -5.907604
  S     4.341554  9.844197 -3.052106
  S     6.813017  8.950085 -1.809002
