16  
    
  C     5.629638  5.786760 -4.131353
  C     6.838298  5.238550 -3.545492
  C     5.762817  9.163701 -3.991049
  C     7.029550  8.804865 -3.371235
  N     7.816880  5.036400 -4.418513
  N     5.674328  6.074290 -5.422391
  N     5.240687  5.244565 -1.644264
  N     8.057316  8.736235 -4.236997
  N     5.832469  9.485563 -5.260067
  N     5.313837  8.980934 -1.460797
  S     7.207853  5.489842 -5.887463
  S     4.471209  5.990612 -2.915978
  S     6.809262  4.857543 -1.926906
  S     7.486850  9.240489 -5.698055
  S     4.473865  9.267807 -2.846354
  S     6.949713  8.637944 -1.611864
