16  
    
  C     5.382309  6.004212 -4.243459
  C     6.608727  5.494469 -3.689089
  C     5.523207  9.599501 -4.445939
  C     6.708469  9.220799 -3.744236
  N     7.643697  5.364378 -4.546461
  N     5.417283  6.241858 -5.571922
  N     4.995567  5.691949 -1.674330
  N     7.740633  8.936149 -4.510128
  N     5.707274  9.715981 -5.755265
  N     5.018281  9.690875 -1.874034
  S     7.001107  5.917731 -5.958740
  S     4.109607  6.073217 -3.046487
  S     6.591160  5.346851 -1.910840
  S     7.215666  9.219332 -6.053333
  S     4.158318  9.736904 -3.300750
  S     6.626713  9.171982 -2.077875
