16  
    
  C     5.521420  5.578167 -4.092936
  C     6.754516  5.168764 -3.526563
  C     5.465433  8.903253 -4.123004
  C     6.786890  8.871242 -3.540663
  N     7.756066  5.121115 -4.421685
  N     5.591454  5.865154 -5.394617
  N     5.082653  5.447377 -1.557451
  N     7.827519  8.767410 -4.367310
  N     5.529518  8.836572 -5.447465
  N     5.116792  9.169869 -1.573591
  S     7.122876  5.490852 -5.892905
  S     4.278374  6.053368 -2.875709
  S     6.713289  5.049131 -1.797979
  S     7.112763  8.708180 -5.883166
  S     4.162109  9.015103 -2.932083
  S     6.680382  8.687313 -1.810184
