16  
    
  C     5.562610  5.333973 -4.146124
  C     6.825105  5.104731 -3.468769
  C     5.717587  9.184137 -4.009112
  C     6.980153  8.849933 -3.391110
  N     7.838366  5.031873 -4.304010
  N     5.595716  5.492454 -5.470761
  N     5.040973  5.246814 -1.608786
  N     7.971783  8.694785 -4.242934
  N     5.761522  9.310596 -5.349045
  N     5.307815  9.189384 -1.514378
  S     7.180398  5.149908 -5.848323
  S     4.300656  5.552957 -3.039055
  S     6.686130  5.073114 -1.737451
  S     7.387488  9.061404 -5.730374
  S     4.474938  9.604287 -2.937073
  S     6.899921  8.740938 -1.621018
