16  
    
  C     5.378741  6.165489 -4.426987
  C     6.522193  5.567569 -3.775452
  C     5.569800  9.520675 -4.193894
  C     6.782268  9.073687 -3.538127
  N     7.560730  5.393660 -4.586079
  N     5.550096  6.380986 -5.729838
  N     4.639990  5.869279 -1.975701
  N     7.862363  8.998600 -4.315982
  N     5.709902  9.859613 -5.451237
  N     4.946860  9.417919 -1.720875
  S     7.102043  5.863993 -6.051555
  S     4.000355  6.452070 -3.435278
  S     6.251740  5.486647 -2.043352
  S     7.235297  9.429214 -5.832797
  S     4.143118  9.647732 -3.196365
  S     6.475460  8.920015 -1.790111
