16  
    
  C     5.539304  5.840738 -4.386866
  C     6.614040  5.165156 -3.706808
  C     5.683823  9.152025 -4.276611
  C     6.923413  8.822666 -3.609418
  N     7.709099  4.899927 -4.436239
  N     5.808989  6.198388 -5.666013
  N     4.752892  5.667022 -1.939748
  N     7.983765  8.751228 -4.392660
  N     5.849078  9.491074 -5.543769
  N     5.217099  8.923133 -1.743427
  S     7.279583  5.468032 -5.945067
  S     4.027113  5.972094 -3.388061
  S     6.286447  5.007484 -1.969390
  S     7.391413  9.196024 -5.894195
  S     4.368238  9.190938 -3.144792
  S     6.905038  8.698018 -1.888894
