16  
    
  C     5.796971  5.501518 -3.970154
  C     7.055845  5.193175 -3.390932
  C     5.500231  9.341668 -4.217809
  C     6.606467  8.778657 -3.499929
  N     7.994544  4.963938 -4.280418
  N     5.844923  5.587292 -5.289226
  N     5.363555  5.165583 -1.475060
  N     7.627677  8.513376 -4.322176
  N     5.687668  9.535104 -5.527520
  N     4.780298  9.319242 -1.744284
  S     7.415440  5.338030 -5.747989
  S     4.476965  5.510278 -2.855635
  S     6.995490  4.858627 -1.610893
  S     7.174358  8.899962 -5.853522
  S     4.132060  9.781868 -3.237753
  S     6.196596  8.398098 -1.814226
