16  
    
  C     5.535982  5.659415 -4.512899
  C     6.835214  5.437698 -3.858030
  C     5.417484  9.602388 -4.235298
  C     6.647627  9.151807 -3.628382
  N     7.853617  5.533316 -4.668866
  N     5.603980  5.920210 -5.806212
  N     5.124126  5.414918 -1.992490
  N     7.698167  9.014697 -4.464653
  N     5.500298  9.919423 -5.535738
  N     4.975182  9.305058 -1.708302
  S     7.242147  5.875850 -6.205380
  S     4.188859  5.490809 -3.349333
  S     6.774802  5.092449 -2.122240
  S     7.106253  9.546554 -5.972548
  S     4.100161  9.643262 -3.079587
  S     6.633332  9.043546 -1.925574
