16  
    
  C     5.525179  6.367955 -4.438173
  C     6.718172  5.788898 -3.743465
  C     5.655400  9.685065 -4.420615
  C     6.855177  9.362928 -3.738633
  N     7.759073  5.580313 -4.518060
  N     5.679665  6.443722 -5.726879
  N     4.868542  6.293034 -1.992382
  N     7.891574  9.313595 -4.565276
  N     5.798221  9.960608 -5.707603
  N     5.030142  9.592557 -1.896960
  S     7.204527  6.020594 -6.074527
  S     4.153224  6.677347 -3.439789
  S     6.502764  5.826268 -2.005930
  S     7.308436  9.536800 -6.142282
  S     4.283865  9.859622 -3.425215
  S     6.645402  9.313877 -1.944225
