16  
    
  C     5.710362  5.885526 -4.389630
  C     6.950578  5.404966 -3.841693
  C     5.839792  9.568347 -3.881418
  C     7.076464  8.924722 -3.495266
  N     7.969068  5.329680 -4.708184
  N     5.751949  6.116772 -5.714884
  N     5.198740  5.246725 -1.930853
  N     7.974660  8.751902 -4.463373
  N     5.767436  9.824945 -5.168005
  N     5.422197  8.844133 -1.511351
  S     7.302650  5.731866 -6.224088
  S     4.354671  5.783660 -3.268501
  S     6.832896  4.997701 -2.215445
  S     7.205299  9.278926 -5.851325
  S     4.541439  9.491849 -2.796491
  S     7.010008  8.364746 -1.839547
