16  
    
  C     5.796605  5.730360 -4.400742
  C     6.997574  5.111574 -3.749875
  C     5.702006  9.418600 -4.338602
  C     6.903381  8.854234 -3.736610
  N     8.069980  4.979398 -4.530933
  N     6.036586  6.137826 -5.645534
  N     5.076143  5.262221 -1.928657
  N     7.921586  8.888326 -4.592967
  N     5.782047  9.959886 -5.553739
  N     5.179633  8.971723 -1.852608
  S     7.552312  5.573872 -5.999904
  S     4.386471  5.819520 -3.382864
  S     6.682024  4.890848 -1.992607
  S     7.363273  9.745802 -5.980930
  S     4.373203  9.389431 -3.221624
  S     6.739862  8.447788 -2.058806
