16  
    
  C     5.451205  5.196874 -4.218797
  C     6.742974  5.043581 -3.617859
  C     5.412412  9.208423 -4.510767
  C     6.570899  8.641352 -3.837951
  N     7.787499  5.000982 -4.437532
  N     5.518469  5.240280 -5.567282
  N     5.151172  5.272220 -1.631161
  N     7.579455  8.419041 -4.672003
  N     5.521519  9.409898 -5.819980
  N     4.816468  9.086445 -1.944050
  S     7.097023  5.139114 -5.991220
  S     4.267667  5.118980 -2.993911
  S     6.782265  5.089955 -1.872052
  S     7.070813  8.875889 -6.210067
  S     4.071838  9.544741 -3.393728
  S     6.454859  8.728027 -2.080802
