16  
    
  C     5.437471  5.623282 -4.283969
  C     6.621280  5.074721 -3.567929
  C     5.890057  9.122637 -3.954557
  C     7.134131  8.655874 -3.383796
  N     7.705371  4.900645 -4.310362
  N     5.664828  5.822082 -5.579829
  N     4.877653  5.829812 -1.733489
  N     8.171349  8.488690 -4.238953
  N     5.980954  9.462651 -5.237810
  N     5.416407  8.370445 -1.506532
  S     7.191006  5.296556 -5.857975
  S     4.155428  6.119758 -3.221082
  S     6.384483  5.166680 -1.832438
  S     7.543199  9.051254 -5.731098
  S     4.530703  9.016297 -2.767956
  S     7.079404  8.413552 -1.707268
