16  
    
  C     5.289916  6.250162 -4.335582
  C     6.475401  5.658132 -3.778367
  C     5.733259  9.533432 -4.246207
  C     6.942002  9.170564 -3.629359
  N     7.448269  5.561614 -4.675375
  N     5.357313  6.484846 -5.641325
  N     4.782276  6.129652 -1.829209
  N     7.938470  8.972268 -4.525040
  N     5.728821  9.671634 -5.599253
  N     5.144732  9.370375 -1.761291
  S     6.936342  5.990358 -6.166385
  S     3.987439  6.525586 -3.233259
  S     6.361355  5.576867 -2.044507
  S     7.289261  9.365863 -6.000135
  S     4.339448  9.732281 -3.192170
  S     6.682423  8.945008 -1.938638
