16  
    
  C     5.263368  5.671044 -4.321600
  C     6.566776  5.309383 -3.666027
  C     5.457587  9.375189 -4.191242
  C     6.675235  8.935513 -3.563481
  N     7.621858  5.215909 -4.478770
  N     5.363312  5.868539 -5.633843
  N     4.815374  5.634130 -1.774997
  N     7.620040  8.707185 -4.450982
  N     5.458051  9.471347 -5.522268
  N     4.954410  9.347015 -1.661335
  S     6.952461  5.521366 -6.010504
  S     4.036257  6.030850 -3.172505
  S     6.410558  5.208793 -1.922910
  S     6.983418  9.079565 -5.979482
  S     4.138395  9.592277 -3.090761
  S     6.502153  8.774148 -1.867229
