16  
    
  C     5.537820  5.949032 -4.280550
  C     6.750289  5.466842 -3.627144
  C     5.705819  9.532313 -4.495910
  C     6.942303  9.195036 -3.720810
  N     7.750054  5.245821 -4.532334
  N     5.690217  6.168490 -5.591701
  N     5.079843  5.987711 -1.789196
  N     8.030603  9.012119 -4.486313
  N     5.848492  9.557718 -5.797486
  N     5.030691  9.222445 -2.023750
  S     7.240784  5.709381 -5.950973
  S     4.200713  6.174059 -3.249271
  S     6.635846  5.424419 -1.884661
  S     7.499104  9.298482 -6.068155
  S     4.276528  9.585002 -3.490909
  S     6.678694  8.919667 -2.057929
