16  
    
  C     5.505247  5.863384 -4.292730
  C     6.578924  5.146204 -3.649739
  C     5.523896  9.895335 -4.601138
  C     6.642839  9.287251 -3.922145
  N     7.597454  4.893180 -4.463550
  N     5.644118  6.049420 -5.602861
  N     4.778634  5.477622 -1.775289
  N     7.769465  9.124658 -4.623825
  N     5.769575 10.180755 -5.861195
  N     4.721078  9.121514 -2.234683
  S     7.134275  5.454337 -5.994271
  S     4.189043  6.192369 -3.188125
  S     6.328202  4.841021 -1.966597
  S     7.446157  9.739325 -6.112806
  S     4.165305 10.026989 -3.530680
  S     6.294913  8.637795 -2.365841
