16  
    
  C     5.348801  5.796318 -4.485566
  C     6.627156  5.511849 -3.864481
  C     5.276560  9.936277 -4.729871
  C     6.463699  9.528843 -4.029418
  N     7.652283  5.495192 -4.697660
  N     5.418073  6.049305 -5.796937
  N     4.952630  5.623306 -1.915011
  N     7.546290  9.506378 -4.780994
  N     5.438341 10.115412 -6.031495
  N     4.736003  9.623463 -2.123553
  S     7.057676  5.887899 -6.151460
  S     4.017698  5.870641 -3.291573
  S     6.509901  5.152683 -2.133522
  S     7.047798  9.981045 -6.272077
  S     3.921732 10.094630 -3.571250
  S     6.328845  9.205726 -2.339645
