16  
    
  C     5.662193  5.786444 -4.304631
  C     6.887642  5.275375 -3.753994
  C     5.619387  9.779168 -4.555481
  C     6.863834  9.327041 -3.937023
  N     7.790619  5.042418 -4.715095
  N     5.736628  6.033487 -5.617164
  N     5.223463  5.555413 -1.785621
  N     7.961477  9.263287 -4.686062
  N     5.811098 10.074994 -5.821061
  N     4.909055  9.009651 -2.184163
  S     7.224475  5.565292 -6.147592
  S     4.362449  5.957906 -3.143819
  S     6.786388  4.967786 -2.111108
  S     7.430092  9.763601 -6.164176
  S     4.209008  9.507762 -3.638927
  S     6.586376  8.908915 -2.222776
