16  
    
  C     5.358313  5.732579 -4.379423
  C     6.629640  5.373535 -3.818542
  C     5.253660  9.971405 -4.644398
  C     6.487895  9.462828 -4.036375
  N     7.666169  5.383312 -4.639670
  N     5.445497  5.966212 -5.677184
  N     4.870407  5.608675 -1.867531
  N     7.541912  9.367943 -4.832684
  N     5.413453 10.304575 -5.882411
  N     4.683955  9.724413 -2.179907
  S     6.994710  5.806602 -6.179547
  S     4.053079  5.741790 -3.286005
  S     6.515686  5.221502 -2.070998
  S     7.037190  9.924948 -6.317454
  S     3.977217 10.172338 -3.534131
  S     6.275213  9.136693 -2.275063
