16  
    
  C     5.397583  6.411892 -4.613408
  C     6.570429  5.933341 -3.979331
  C     5.783491  9.799179 -4.370218
  C     7.017088  9.458246 -3.684495
  N     7.614052  5.717101 -4.765090
  N     5.433201  6.389180 -5.939484
  N     4.884336  6.321919 -2.114877
  N     7.964438  9.162205 -4.560523
  N     5.827693  9.769320 -5.680556
  N     5.051660  9.666546 -1.888739
  S     6.953330  5.935280 -6.360718
  S     4.146253  6.763802 -3.505428
  S     6.451197  5.865049 -2.248469
  S     7.382342  9.512713 -6.085733
  S     4.399606  9.967229 -3.343376
  S     6.729762  9.242494 -1.996310
