16  
    
  C     5.635405  5.660387 -4.453247
  C     6.891831  5.355555 -3.825441
  C     5.297857  9.708144 -4.421965
  C     6.525339  9.218966 -3.853624
  N     7.949219  5.174386 -4.632700
  N     5.695446  5.731731 -5.794367
  N     5.187439  5.460224 -1.893944
  N     7.524335  9.039941 -4.727919
  N     5.324144  9.898238 -5.728137
  N     4.965381  9.727059 -1.815983
  S     7.271769  5.408057 -6.136937
  S     4.323715  5.912358 -3.245755
  S     6.756282  5.118209 -2.067128
  S     6.864392  9.427650 -6.248440
  S     4.114253 10.123518 -3.197819
  S     6.456426  9.050545 -2.120710
