16  
    
  C     5.725564  5.935996 -4.142215
  C     6.928089  5.243243 -3.680317
  C     5.731160  9.286800 -4.055143
  C     6.950730  8.872003 -3.429597
  N     7.890537  5.080034 -4.627827
  N     5.810348  6.222935 -5.441966
  N     5.215763  5.206916 -1.704583
  N     7.997252  8.792744 -4.245111
  N     5.853153  9.437874 -5.369156
  N     5.357526  8.829981 -1.495517
  S     7.197525  5.627561 -6.058101
  S     4.411716  5.982834 -2.953644
  S     6.848373  4.802262 -1.953240
  S     7.407806  9.181204 -5.710994
  S     4.458997  9.229305 -2.856833
  S     6.963808  8.495265 -1.793072
