16  
    
  C     5.527153  5.864437 -4.323396
  C     6.734768  5.229134 -3.736990
  C     5.702203  9.333759 -4.367173
  C     6.921455  8.893100 -3.740925
  N     7.670421  4.938566 -4.624590
  N     5.627821  6.118895 -5.624069
  N     5.049475  5.354577 -1.883648
  N     7.926213  8.557252 -4.573809
  N     5.784761  9.431120 -5.679206
  N     5.069761  9.071695 -1.939574
  S     7.029852  5.320326 -6.084587
  S     4.277551  6.119201 -3.161147
  S     6.627628  4.956567 -2.069743
  S     7.301790  8.951440 -6.140520
  S     4.312899  9.396300 -3.358914
  S     6.696509  8.691787 -2.000810
