16  
    
  C     5.438904  5.599142 -4.256611
  C     6.650906  5.258454 -3.471427
  C     5.811773  8.856155 -3.954189
  C     7.078099  8.518364 -3.363732
  N     7.715588  4.975197 -4.207193
  N     5.587633  5.503544 -5.582543
  N     4.735508  5.733023 -1.737586
  N     8.069268  8.508425 -4.249289
  N     5.818018  9.114701 -5.266169
  N     5.353946  8.632803 -1.444051
  S     7.186101  5.044584 -5.797023
  S     4.083841  5.892417 -3.249261
  S     6.301028  5.092142 -1.742577
  S     7.422144  8.916759 -5.742682
  S     4.554679  9.144983 -2.839990
  S     6.933105  8.160817 -1.633922
