16  
    
  C     5.690223  5.877045 -3.915136
  C     6.844599  5.207110 -3.444291
  C     5.602514  9.606451 -3.956001
  C     6.821089  9.009812 -3.408673
  N     7.910044  5.254976 -4.237203
  N     5.767814  6.295837 -5.183806
  N     5.056001  5.026509 -1.533674
  N     7.851543  8.903102 -4.252306
  N     5.679543  9.789417 -5.249201
  N     5.029300  8.965758 -1.532416
  S     7.352821  5.883103 -5.660524
  S     4.343042  5.862014 -2.750432
  S     6.644060  4.589505 -1.851553
  S     7.224551  9.393641 -5.780066
  S     4.279925  9.721431 -2.804868
  S     6.627018  8.516930 -1.724713
