16  
    
  C     5.572700  5.921058 -4.486578
  C     6.682110  5.308783 -3.801323
  C     5.478148  9.656740 -4.210890
  C     6.675351  9.085116 -3.632396
  N     7.727144  4.987520 -4.518887
  N     5.759822  6.138730 -5.798337
  N     4.836863  5.652940 -2.028608
  N     7.662340  9.012546 -4.504392
  N     5.587642 10.026636 -5.497218
  N     5.099804  9.258507 -1.694110
  S     7.280888  5.548873 -6.084068
  S     4.189977  6.134650 -3.465651
  S     6.445109  5.121022 -2.091646
  S     7.071837  9.404782 -5.993347
  S     4.265667  9.748243 -2.925688
  S     6.697924  8.759613 -2.000294
