16  
    
  C     5.602445  5.595173 -4.385361
  C     6.885942  5.222938 -3.770584
  C     5.747159  9.545567 -4.003059
  C     6.943497  8.934847 -3.450152
  N     7.934638  5.188708 -4.601815
  N     5.716367  5.771245 -5.680910
  N     5.110565  5.515568 -1.916595
  N     7.923034  8.838859 -4.336182
  N     5.777031  9.848013 -5.308735
  N     5.305506  8.791271 -1.519539
  S     7.302955  5.522412 -6.144585
  S     4.291483  5.892034 -3.328557
  S     6.802817  5.223353 -2.016303
  S     7.406441  9.416981 -5.797349
  S     4.519369  9.644728 -2.740291
  S     6.893292  8.473103 -1.796950
