16  
    
  C     5.209799  5.479140 -4.142151
  C     6.343726  4.887626 -3.541885
  C     5.474104  9.417355 -4.349290
  C     6.675636  8.922275 -3.721614
  N     7.277921  4.504047 -4.414188
  N     5.264724  5.555361 -5.481477
  N     4.658144  5.194229 -1.660062
  N     7.671969  8.717879 -4.577161
  N     5.588465  9.634562 -5.646564
  N     4.943641  9.344678 -1.840891
  S     6.781877  5.021582 -5.857247
  S     3.922388  5.783765 -3.013550
  S     6.184899  4.697379 -1.910283
  S     7.155675  9.133919 -6.059403
  S     4.136825  9.631829 -3.277775
  S     6.539998  9.024718 -1.999160
