16  
    
  C     5.308197  6.181135 -4.442133
  C     6.322629  5.529503 -3.718140
  C     5.424914  9.621710 -4.253617
  C     6.592669  9.081242 -3.555545
  N     7.394770  5.042028 -4.384635
  N     5.454944  6.113265 -5.790745
  N     4.470934  6.140523 -1.962175
  N     7.658846  8.965925 -4.276366
  N     5.637113  9.985080 -5.477833
  N     4.833090  9.438067 -1.685492
  S     6.923543  5.431760 -5.980841
  S     4.000187  6.735853 -3.413529
  S     6.058687  5.560278 -1.930762
  S     7.222900  9.543478 -5.818737
  S     4.117280  9.699956 -3.140630
  S     6.362600  8.807958 -1.839225
