16  
    
  C     5.538639  5.846719 -4.368667
  C     6.614696  5.169958 -3.702897
  C     5.677919  9.150474 -4.265242
  C     6.913701  8.808934 -3.616193
  N     7.697111  4.888204 -4.444234
  N     5.805053  6.179780 -5.655733
  N     4.751550  5.667946 -1.950426
  N     8.001611  8.747726 -4.385857
  N     5.858352  9.489247 -5.523058
  N     5.209644  8.940039 -1.735648
  S     7.286316  5.459978 -5.945328
  S     4.030591  5.981391 -3.390217
  S     6.296240  5.001282 -1.986227
  S     7.387029  9.201211 -5.899664
  S     4.366276  9.219081 -3.155924
  S     6.896892  8.711202 -1.896843
