16  
    
  C     5.253557  6.286621 -4.382122
  C     6.483548  5.764951 -3.798687
  C     5.664189  9.550412 -4.264402
  C     6.927281  9.072304 -3.656741
  N     7.477520  5.459166 -4.670331
  N     5.386460  6.552935 -5.677644
  N     4.738468  6.052161 -1.860910
  N     7.939276  8.939206 -4.480637
  N     5.835355  9.689041 -5.536247
  N     5.206642  9.473347 -1.783008
  S     6.886724  6.038435 -6.135217
  S     3.899078  6.548787 -3.207132
  S     6.315434  5.575939 -2.006109
  S     7.367839  9.285891 -6.035757
  S     4.367667  9.758701 -3.101934
  S     6.799403  8.935766 -1.927214
