16  
    
  C     5.470830  6.021058 -4.491391
  C     6.677738  5.449296 -3.869398
  C     5.373464  9.836942 -4.532997
  C     6.533829  9.329785 -3.861463
  N     7.659596  5.232069 -4.736084
  N     5.556328  6.225227 -5.794331
  N     4.997431  5.776886 -1.987586
  N     7.577921  9.151655 -4.661243
  N     5.576791 10.094389 -5.847376
  N     4.882115  9.683603 -2.008428
  S     7.111901  5.668974 -6.243068
  S     4.178055  6.368476 -3.304827
  S     6.585117  5.376720 -2.112943
  S     7.209551  9.729946 -6.134220
  S     4.046504  9.915735 -3.373365
  S     6.473460  9.033485 -2.167664
