16  
    
  C     5.542300  5.761733 -4.358504
  C     6.790937  5.330135 -3.825234
  C     5.357906  9.944602 -4.656920
  C     6.494834  9.259016 -4.032737
  N     7.769730  5.152255 -4.707396
  N     5.590149  5.980223 -5.688091
  N     5.191939  5.549084 -1.871345
  N     7.431140  8.868206 -4.872134
  N     5.432450  9.970230 -5.986819
  N     4.877337  9.800579 -2.061910
  S     7.127868  5.582481 -6.217595
  S     4.367192  6.075037 -3.168014
  S     6.713077  4.956507 -2.152009
  S     6.895039  9.307972 -6.361328
  S     4.148889 10.374456 -3.490995
  S     6.392454  9.083442 -2.330284
