16  
    
  C     5.348199  5.497925 -4.393155
  C     6.467775  4.844039 -3.753375
  C     5.571757  9.313665 -4.385503
  C     6.626810  8.492244 -3.808394
  N     7.533971  4.796873 -4.538060
  N     5.509987  5.859562 -5.665361
  N     4.696045  5.097725 -1.846717
  N     7.676815  8.281156 -4.615736
  N     5.763253  9.578023 -5.674253
  N     4.833656  8.551338 -1.970348
  S     7.060078  5.294730 -6.070162
  S     4.043416  5.622933 -3.238471
  S     6.291743  4.633714 -2.019955
  S     7.361492  9.007431 -6.052589
  S     4.310825  9.604024 -3.224691
  S     6.394759  7.987671 -2.131479
