16  
    
  C     5.226464  6.280643 -4.367179
  C     6.320198  5.573392 -3.685627
  C     5.628827  9.589614 -4.221575
  C     6.786189  9.039520 -3.557766
  N     7.399160  5.338344 -4.433541
  N     5.496696  6.516188 -5.656958
  N     4.567104  6.251079 -1.872360
  N     7.715035  8.698584 -4.405955
  N     5.743928  9.784626 -5.528260
  N     5.184125  9.489316 -1.674769
  S     6.966806  5.871679 -5.966650
  S     3.860553  6.607764 -3.322171
  S     6.129107  5.579899 -1.900211
  S     7.240091  9.229551 -5.938492
  S     4.328145  9.840192 -3.047892
  S     6.776097  8.950875 -1.835431
