16  
    
  C     5.348016  5.620230 -4.457595
  C     6.458704  5.037358 -3.700095
  C     5.531661  9.165645 -4.284072
  C     6.741830  8.744552 -3.637484
  N     7.591743  4.857337 -4.409132
  N     5.653974  5.821347 -5.750467
  N     4.628876  5.489876 -1.900377
  N     7.710073  8.503441 -4.541617
  N     5.522666  9.162445 -5.610569
  N     4.921912  8.874136 -1.766936
  S     7.142871  5.221733 -6.014161
  S     3.935361  5.845485 -3.416537
  S     6.203781  4.958979 -1.931259
  S     7.099877  8.785511 -6.032282
  S     4.206213  9.361983 -3.178405
  S     6.552659  8.666307 -1.854201
