16  
    
  C     5.596785  5.464174 -4.255257
  C     6.778447  5.104474 -3.510005
  C     5.362093  9.209655 -4.286828
  C     6.560506  8.637910 -3.690650
  N     7.836709  4.972308 -4.299249
  N     5.739628  5.642948 -5.574952
  N     5.037382  5.391009 -1.689365
  N     7.492600  8.309585 -4.600090
  N     5.448368  9.404647 -5.591805
  N     4.924789  9.100532 -1.750317
  S     7.315484  5.167005 -5.843748
  S     4.309000  5.861986 -3.129321
  S     6.546110  4.829097 -1.836807
  S     6.953724  8.859593 -6.028667
  S     4.155958  9.675191 -3.123781
  S     6.434725  8.459006 -1.914506
