16  
    
  C     5.560594  5.637158 -4.116469
  C     6.778214  5.161659 -3.538822
  C     5.535541  8.983057 -4.142012
  C     6.819045  8.929914 -3.514361
  N     7.739788  4.940427 -4.440971
  N     5.528311  5.752083 -5.455923
  N     5.185441  5.367533 -1.578605
  N     7.797258  8.973698 -4.419512
  N     5.533031  8.912069 -5.446978
  N     5.062547  9.142694 -1.642523
  S     7.116512  5.478790 -5.911171
  S     4.358630  5.965935 -2.906128
  S     6.822853  5.216644 -1.754511
  S     7.111910  8.889380 -5.910024
  S     4.237689  8.979257 -3.039215
  S     6.691459  8.731530 -1.767982
