16  
    
  C     5.247129  6.338136 -4.715072
  C     6.516674  5.978941 -4.087279
  C     5.685429  9.710146 -4.421666
  C     6.882710  9.292286 -3.751662
  N     7.517953  5.705303 -4.890951
  N     5.357476  6.436135 -6.033187
  N     4.853541  6.395284 -2.127982
  N     7.933854  9.219516 -4.542519
  N     5.876362  9.940304 -5.746416
  N     5.204523  9.509711 -1.881754
  S     6.915010  6.016199 -6.400039
  S     3.957688  6.736414 -3.512469
  S     6.421057  5.916268 -2.306387
  S     7.431430  9.456651 -6.079658
  S     4.371691  9.957605 -3.227794
  S     6.877174  9.202384 -2.038050
