16  
    
  C     5.329951  5.584867 -4.416622
  C     6.446729  5.081553 -3.669822
  C     5.476202  9.129279 -4.308157
  C     6.692358  8.659280 -3.676060
  N     7.477707  4.786113 -4.418861
  N     5.549046  5.839623 -5.692703
  N     4.605677  5.327620 -1.957642
  N     7.668825  8.378990 -4.523386
  N     5.567356  9.336609 -5.626680
  N     4.912325  8.810603 -1.849766
  S     7.130267  5.204623 -5.945915
  S     3.994247  5.880415 -3.395437
  S     6.229062  4.907097 -1.998210
  S     7.122068  8.845250 -6.055030
  S     4.169935  9.367132 -3.236971
  S     6.527998  8.525216 -1.882058
