16  
    
  C     5.578384  5.747450 -4.396941
  C     6.882711  5.443172 -3.842669
  C     5.548490  9.586765 -4.346361
  C     6.812246  9.226262 -3.788895
  N     7.891012  5.314835 -4.703285
  N     5.572406  5.870028 -5.720240
  N     5.207204  5.628065 -1.858106
  N     7.824140  9.135092 -4.659623
  N     5.540065  9.737455 -5.659836
  N     5.273648  9.307721 -1.749658
  S     7.130272  5.631423 -6.187992
  S     4.289976  5.964445 -3.229432
  S     6.808854  5.376394 -2.081846
  S     7.172721  9.537719 -6.107298
  S     4.331354  9.677886 -3.095419
  S     6.838947  8.875876 -2.111222
