16  
    
  C     5.560045  5.706519 -4.413097
  C     6.854389  5.445850 -3.769593
  C     5.520535  9.498720 -4.217370
  C     6.776230  9.106620 -3.679252
  N     7.851925  5.439227 -4.626214
  N     5.655744  5.893839 -5.722169
  N     5.086533  5.354341 -1.862915
  N     7.766307  8.992581 -4.616875
  N     5.577014  9.761174 -5.517461
  N     5.074277  9.433076 -1.736717
  S     7.268890  5.856731 -6.081213
  S     4.208170  5.590241 -3.272795
  S     6.719733  5.051014 -2.145455
  S     7.088955  9.461283 -6.037059
  S     4.183637  9.656938 -3.147191
  S     6.630916  9.046525 -1.934131
