16  
    
  C     5.371559  6.064872 -4.593942
  C     6.649576  5.626034 -4.059544
  C     5.717199  9.412964 -4.164766
  C     6.968043  9.004111 -3.528072
  N     7.673951  5.661346 -4.885453
  N     5.474122  6.415658 -5.864895
  N     5.063288  5.722336 -2.055666
  N     7.989426  8.915503 -4.406624
  N     5.793003  9.695741 -5.474711
  N     5.275109  8.893380 -1.621235
  S     7.030548  6.193299 -6.329624
  S     4.118164  6.024112 -3.414722
  S     6.652328  5.484502 -2.381421
  S     7.380080  9.342092 -5.889036
  S     4.466338  9.491910 -2.990154
  S     6.871699  8.727429 -1.859335
