16  
    
  C     5.653121  5.715265 -4.231668
  C     6.893434  5.263546 -3.607680
  C     5.688577  9.670685 -4.361717
  C     6.921220  9.156201 -3.781341
  N     7.887002  5.275910 -4.486914
  N     5.782543  5.967743 -5.538666
  N     5.211091  5.376510 -1.716851
  N     7.883676  8.907307 -4.637348
  N     5.824839  9.988312 -5.671295
  N     5.119731  8.966394 -1.992858
  S     7.337576  5.678336 -5.956695
  S     4.396634  5.667368 -3.112124
  S     6.797204  5.079663 -1.915568
  S     7.341165  9.418393 -6.123873
  S     4.367121  9.615596 -3.293801
  S     6.763190  8.810999 -2.029983
