16  
    
  C     5.418181  6.069400 -4.161826
  C     6.692366  5.670952 -3.633273
  C     5.720371  9.670554 -4.397956
  C     6.851734  9.241291 -3.646083
  N     7.695082  5.526725 -4.502165
  N     5.438691  6.251605 -5.473869
  N     5.009931  5.712836 -1.596049
  N     7.867116  9.053042 -4.467599
  N     5.817270  9.703647 -5.748545
  N     4.880246  9.394657 -1.973163
  S     6.979742  5.800760 -5.981493
  S     4.146154  6.203149 -3.000731
  S     6.595511  5.246382 -1.903171
  S     7.345466  9.311354 -6.071594
  S     4.288738  9.918009 -3.423545
  S     6.510707  9.048701 -1.925110
