16  
    
  C     5.172776  6.267373 -4.502368
  C     6.380029  5.826607 -3.839348
  C     5.398690  9.486292 -4.044718
  C     6.675560  9.209207 -3.473505
  N     7.457961  5.632070 -4.640501
  N     5.338371  6.551755 -5.781517
  N     4.575678  5.893447 -2.081514
  N     7.732803  9.323853 -4.291034
  N     5.488135  9.730440 -5.357535
  N     4.842132  9.206972 -1.594177
  S     6.854943  6.123063 -6.187023
  S     3.866778  6.506732 -3.428951
  S     6.159200  5.497152 -2.187025
  S     7.093660  9.541350 -5.810749
  S     4.063124  9.491177 -2.976236
  S     6.539169  8.943245 -1.785756
