16  
    
  C     5.244555  6.401198 -4.696780
  C     6.455363  6.005419 -4.041767
  C     5.830064  9.710513 -4.311065
  C     7.066589  9.288654 -3.767003
  N     7.478535  5.770961 -4.855535
  N     5.313554  6.533937 -5.999020
  N     4.717626  6.395840 -2.169341
  N     8.021481  9.110805 -4.703345
  N     5.834777  9.864969 -5.633218
  N     5.263393  9.463789 -1.870621
  S     6.831619  6.061535 -6.466017
  S     3.918418  6.669029 -3.556419
  S     6.319835  6.003625 -2.297955
  S     7.304001  9.503222 -6.168245
  S     4.499277  9.837218 -3.272701
  S     6.906130  9.110105 -2.055935
