16  
    
  C     5.581800  5.490297 -4.257032
  C     6.779800  5.111127 -3.514175
  C     5.373394  9.207171 -4.284077
  C     6.566161  8.632425 -3.676427
  N     7.845511  4.928298 -4.289857
  N     5.764017  5.674997 -5.565018
  N     5.027919  5.402265 -1.687552
  N     7.493378  8.301214 -4.562302
  N     5.459205  9.440800 -5.593618
  N     4.932396  9.106325 -1.735797
  S     7.302693  5.184618 -5.868406
  S     4.335807  5.881285 -3.149158
  S     6.546019  4.838551 -1.830444
  S     6.959462  8.845807 -6.030964
  S     4.137522  9.660802 -3.117847
  S     6.430263  8.461369 -1.909433
