16  
    
  C     5.344005  6.078323 -4.365142
  C     6.552562  5.466214 -3.823227
  C     5.426513  9.182107 -4.358607
  C     6.669134  8.906913 -3.642506
  N     7.538511  5.274281 -4.698358
  N     5.425216  6.357377 -5.684788
  N     4.752323  5.545443 -1.923285
  N     7.674933  8.715285 -4.477470
  N     5.564194  9.275129 -5.675080
  N     4.941009  9.297875 -1.854035
  S     6.990399  5.839424 -6.127268
  S     4.013843  6.183212 -3.206528
  S     6.382993  5.348906 -2.074257
  S     7.193202  9.112423 -5.984737
  S     4.036083  9.208245 -3.191891
  S     6.582231  8.761887 -1.980438
