16  
    
  C     5.682489  5.674578 -4.125417
  C     6.856001  5.232088 -3.375041
  C     5.498558  9.491075 -4.071148
  C     6.671094  8.962942 -3.429614
  N     7.899322  5.022859 -4.178567
  N     5.861946  5.913887 -5.435558
  N     4.889910  5.518672 -1.720498
  N     7.669315  8.584917 -4.189147
  N     5.708948  9.684104 -5.361269
  N     4.819599  8.982041 -1.616049
  S     7.408338  5.305557 -5.710028
  S     4.282436  5.996965 -3.170361
  S     6.472568  5.078331 -1.738893
  S     7.245965  9.094283 -5.731763
  S     4.088418  9.598112 -3.036235
  S     6.436488  8.572407 -1.754901
