16  
    
  C     5.619645  6.412285 -4.534108
  C     6.793340  5.810457 -3.895405
  C     5.472877  9.950021 -4.690696
  C     6.696907  9.551460 -4.031806
  N     7.796595  5.571371 -4.757565
  N     5.757156  6.682775 -5.815081
  N     5.027384  6.077456 -2.012661
  N     7.629822  9.333558 -4.892399
  N     5.527441 10.058098 -6.010416
  N     4.922145  9.909616 -2.169210
  S     7.288210  6.171036 -6.225154
  S     4.259521  6.675881 -3.398567
  S     6.632918  5.627517 -2.180969
  S     7.115334  9.742058 -6.402622
  S     4.164739 10.217870 -3.546268
  S     6.559429  9.531491 -2.267224
