16  
    
  C     5.659278  5.743916 -4.302251
  C     6.856791  5.215986 -3.840978
  C     5.804357  9.828900 -4.462149
  C     6.998446  9.309560 -3.821482
  N     7.806259  5.010568 -4.754038
  N     5.713401  6.112772 -5.581934
  N     5.299621  5.323261 -1.772974
  N     8.023896  9.373124 -4.636142
  N     5.883799 10.150313 -5.758485
  N     5.042953  8.917258 -2.164066
  S     7.242617  5.764618 -6.090619
  S     4.449341  5.770340 -3.121856
  S     6.831690  4.801671 -2.146603
  S     7.512766  9.813247 -6.097607
  S     4.338078  9.818249 -3.425717
  S     6.733066  8.793367 -2.202338
