16  
    
  C     5.539027  5.263521 -4.157114
  C     6.811785  4.995558 -3.470172
  C     5.392828  9.376997 -4.408942
  C     6.583383  8.800514 -3.815882
  N     7.832330  4.985715 -4.323656
  N     5.614856  5.405962 -5.481557
  N     5.022877  5.202235 -1.643795
  N     7.557643  8.422128 -4.641206
  N     5.412734  9.357831 -5.726081
  N     4.919806  9.066561 -1.848300
  S     7.148183  5.114740 -5.917674
  S     4.193392  5.225087 -3.105360
  S     6.670816  5.030320 -1.739240
  S     6.931503  8.798929 -6.170992
  S     4.131757  9.625035 -3.254966
  S     6.476987  8.551227 -2.091496
