16  
    
  C     5.582522  5.885829 -4.264762
  C     6.798479  5.410967 -3.632426
  C     5.748237  9.508203 -4.449065
  C     6.963953  9.172802 -3.763479
  N     7.877006  5.238441 -4.443214
  N     5.697904  6.101125 -5.570061
  N     4.988482  5.897707 -1.822047
  N     8.034046  8.989457 -4.582355
  N     5.967584  9.648214 -5.731635
  N     5.023555  9.267047 -1.990928
  S     7.229302  5.743231 -6.028439
  S     4.270820  6.126284 -3.250538
  S     6.605259  5.353662 -1.902431
  S     7.523971  9.289057 -6.115450
  S     4.338631  9.535499 -3.461608
  S     6.699024  9.031727 -2.009090
