16  
    
  C     5.521389  6.039678 -4.576029
  C     6.517201  5.328371 -3.835911
  C     5.773254  9.591127 -4.397281
  C     6.975698  9.119337 -3.715809
  N     7.700277  5.271640 -4.420250
  N     5.887849  6.492843 -5.758970
  N     4.636246  5.844506 -2.191033
  N     8.053982  8.902109 -4.444741
  N     5.963889  9.779881 -5.714417
  N     5.189330  9.212913 -1.847542
  S     7.474994  5.906257 -5.985237
  S     4.087005  6.463281 -3.618004
  S     6.082681  5.049515 -2.185756
  S     7.533619  9.302791 -6.042182
  S     4.382173  9.462864 -3.284833
  S     6.796532  8.795488 -2.049932
