16  
    
  C     5.559145  6.622700 -4.559919
  C     6.723076  6.090014 -3.905246
  C     5.649402 10.147561 -4.525555
  C     6.788239  9.509864 -3.793239
  N     7.695572  5.821641 -4.759565
  N     5.633678  6.765659 -5.889480
  N     4.992827  6.514002 -2.042813
  N     7.775498  9.197720 -4.612304
  N     5.832472 10.339811 -5.814316
  N     4.932447  9.921538 -2.077987
  S     7.209343  6.190998 -6.211426
  S     4.288298  7.086633 -3.442686
  S     6.521686  5.912326 -2.191917
  S     7.275397  9.708054 -6.147159
  S     4.227212 10.530212 -3.502504
  S     6.498419  9.585555 -2.076553
