16  
    
  C     5.492124  5.771911 -4.371015
  C     6.703394  5.298530 -3.829642
  C     5.434173  9.723574 -4.615856
  C     6.657138  9.375712 -3.929785
  N     7.728704  5.173125 -4.687500
  N     5.559942  5.952544 -5.688326
  N     5.061730  5.686968 -1.907928
  N     7.645100  9.000158 -4.734195
  N     5.525440  9.746657 -5.927029
  N     4.829568  9.356951 -2.112795
  S     7.052127  5.485210 -6.180566
  S     4.165621  6.050151 -3.238072
  S     6.676400  5.312045 -2.084656
  S     7.105157  9.216439 -6.244152
  S     4.040142  9.713759 -3.530169
  S     6.444871  9.145162 -2.233448
