16  
    
  C     5.614783  6.076387 -4.153774
  C     6.772071  5.520002 -3.562518
  C     5.822920  9.551005 -4.251276
  C     7.050157  9.082853 -3.657109
  N     7.769017  5.298686 -4.395186
  N     5.720858  6.133632 -5.480097
  N     4.998771  5.932138 -1.688279
  N     8.048466  8.905713 -4.487364
  N     5.893862  9.679304 -5.548614
  N     5.509441  9.658419 -1.676774
  S     7.292187  5.755830 -5.935839
  S     4.383440  6.608143 -3.079758
  S     6.551313  5.313330 -1.874241
  S     7.490110  9.391420 -5.965416
  S     4.613634  9.997615 -3.044655
  S     6.969517  8.963376 -1.942407
