16  
    
  C     5.496232  6.331983 -4.431249
  C     6.691660  5.779140 -3.770652
  C     5.561220  9.591969 -4.488706
  C     6.784279  9.171653 -3.799545
  N     7.687194  5.511720 -4.632719
  N     5.679419  6.422566 -5.755162
  N     4.895215  6.154015 -1.923796
  N     7.850667  8.946969 -4.569541
  N     5.743044  9.805373 -5.796019
  N     5.096093  9.557975 -1.938067
  S     7.222609  5.868540 -6.121338
  S     4.128731  6.564374 -3.345114
  S     6.503486  5.840833 -2.010221
  S     7.331156  9.192167 -6.092529
  S     4.269231  9.868025 -3.301444
  S     6.784117  9.124776 -2.036257
