16  
    
  C     5.519386  5.809000 -4.472052
  C     6.660375  5.181922 -3.725476
  C     5.696511  9.326047 -4.264644
  C     6.927368  8.930859 -3.617261
  N     7.721496  4.927213 -4.488382
  N     5.713267  5.978534 -5.789372
  N     4.776652  5.500482 -1.980949
  N     7.967473  8.709554 -4.422639
  N     5.863067  9.508392 -5.584325
  N     5.106968  9.156496 -1.719499
  S     7.271075  5.424368 -5.997102
  S     4.214102  6.174935 -3.373014
  S     6.363087  4.965816 -1.983631
  S     7.399149  9.179537 -5.974396
  S     4.379377  9.527039 -3.142229
  S     6.719710  8.751456 -1.815094
