16  
    
  C     5.253619  6.281323 -4.300648
  C     6.364305  5.585100 -3.626722
  C     5.529312  9.684217 -4.206499
  C     6.734995  9.092421 -3.550690
  N     7.410355  5.277344 -4.429292
  N     5.444431  6.375039 -5.620458
  N     4.535718  5.888189 -1.825795
  N     7.668414  8.853983 -4.441013
  N     5.647269  9.998357 -5.476992
  N     5.040931  9.846892 -1.736429
  S     6.916160  5.825745 -5.952680
  S     3.914010  6.560936 -3.179291
  S     6.099589  5.491346 -1.927434
  S     7.088648  9.366274 -5.942891
  S     4.195047 10.005039 -3.099226
  S     6.486356  8.959252 -1.878443
