16  
    
  C     5.385797  6.214944 -4.347633
  C     6.591788  5.713409 -3.607259
  C     5.564125  9.641643 -4.201764
  C     6.710760  9.120813 -3.458754
  N     7.641984  5.390889 -4.358769
  N     5.557242  6.284744 -5.657117
  N     4.603790  6.008319 -1.922463
  N     7.721444  8.842340 -4.257829
  N     5.742816  9.733456 -5.501019
  N     4.850331  9.532770 -1.724149
  S     7.115658  5.749154 -5.887739
  S     4.010479  6.517001 -3.399574
  S     6.248498  5.588879 -1.927294
  S     7.289213  9.265883 -5.833167
  S     4.235404 10.010446 -3.197445
  S     6.426359  8.982936 -1.801364
