16  
    
  C     5.197863  6.312452 -4.500009
  C     6.453106  5.997959 -3.851167
  C     5.505090  9.687190 -4.251367
  C     6.812325  9.335572 -3.691609
  N     7.453789  5.982713 -4.738249
  N     5.262684  6.538112 -5.820226
  N     4.645164  5.940200 -2.012401
  N     7.736971  9.244138 -4.625566
  N     5.429890  9.884763 -5.551980
  N     5.008782  9.299429 -1.714426
  S     6.901595  6.332451 -6.207082
  S     3.827971  6.377854 -3.398699
  S     6.276262  5.903357 -2.083378
  S     7.012739  9.751817 -6.061455
  S     4.155934  9.613675 -3.112396
  S     6.701640  8.954250 -1.970290
