16  
    
  C     5.628217  5.488422 -4.046844
  C     6.836460  5.040340 -3.417508
  C     5.798970  9.437298 -3.908509
  C     7.019403  9.071894 -3.253147
  N     7.842815  4.986242 -4.261881
  N     5.675170  5.725389 -5.371634
  N     5.193039  5.515561 -1.497862
  N     8.050477  8.844488 -4.037995
  N     5.947529  9.415719 -5.264219
  N     5.368216  9.157601 -1.357390
  S     7.178140  5.315155 -5.757639
  S     4.393566  5.804694 -2.896725
  S     6.770532  4.979436 -1.676499
  S     7.499051  9.034142 -5.561306
  S     4.504299  9.446297 -2.788648
  S     7.021436  8.829073 -1.533126
