16  
    
  C     5.593248  5.295568 -4.168473
  C     6.800456  4.994272 -3.478078
  C     5.379573  9.360346 -4.387153
  C     6.562801  8.779298 -3.796528
  N     7.820065  5.012420 -4.328537
  N     5.582039  5.396558 -5.484557
  N     4.985777  5.196566 -1.664103
  N     7.543013  8.459242 -4.623449
  N     5.414651  9.342369 -5.721308
  N     4.914128  9.052400 -1.838564
  S     7.175411  5.114848 -5.893417
  S     4.231722  5.307516 -3.111842
  S     6.630473  4.994215 -1.722766
  S     6.931555  8.793991 -6.181906
  S     4.142581  9.661940 -3.210737
  S     6.480076  8.525839 -2.076909
