16  
    
  C     5.424190  5.283135 -4.339884
  C     6.679838  5.053657 -3.660965
  C     5.681746  9.316065 -4.202829
  C     6.850779  8.739704 -3.582249
  N     7.761555  5.020186 -4.431549
  N     5.581570  5.498824 -5.662239
  N     4.932216  5.343917 -1.713293
  N     7.795868  8.408382 -4.453416
  N     5.832067  9.585132 -5.514580
  N     5.223833  9.170924 -1.658064
  S     7.167794  5.255439 -5.990576
  S     4.144174  5.421058 -3.117887
  S     6.532919  4.895812 -1.910560
  S     7.359682  8.973749 -5.918536
  S     4.356315  9.455753 -3.062855
  S     6.706515  8.461793 -1.838114
