16  
    
  C     5.394218  5.547174 -4.450074
  C     6.620613  5.304523 -3.685977
  C     5.625116  8.975061 -4.101565
  C     6.938739  8.895403 -3.538728
  N     7.703234  5.087381 -4.407949
  N     5.634059  5.566627 -5.767744
  N     4.703157  5.582178 -1.929933
  N     7.905406  8.676719 -4.449188
  N     5.596615  8.910340 -5.443489
  N     5.161834  9.358681 -1.640979
  S     7.233917  5.226887 -6.035768
  S     4.006894  6.020490 -3.404024
  S     6.318888  5.259173 -1.964771
  S     7.186408  8.727894 -5.914634
  S     4.307757  9.306793 -3.036147
  S     6.777262  9.084973 -1.767869
