16  
    
  C     5.545561  5.995063 -4.356222
  C     6.774575  5.590368 -3.790458
  C     5.496413  9.629402 -4.283086
  C     6.671298  9.094442 -3.721454
  N     7.733691  5.460677 -4.681029
  N     5.562174  6.241397 -5.643014
  N     5.008673  5.644211 -1.913201
  N     7.712613  8.937532 -4.525767
  N     5.586224  9.900667 -5.589512
  N     5.075475  9.475233 -1.699571
  S     7.126021  5.857098 -6.173523
  S     4.278012  6.331895 -3.233765
  S     6.666836  5.411606 -2.074174
  S     7.154437  9.504855 -5.982501
  S     4.215852  9.695858 -3.122363
  S     6.638804  8.953658 -2.003178
