16  
    
  C     5.561977  6.156233 -4.409789
  C     6.738894  5.602987 -3.792669
  C     5.444638  9.781090 -4.163670
  C     6.689202  9.316863 -3.609496
  N     7.804695  5.495866 -4.595854
  N     5.705732  6.483864 -5.703022
  N     4.952241  5.740860 -1.854041
  N     7.643544  9.021264 -4.459740
  N     5.509086  9.830762 -5.463062
  N     4.892396  9.423551 -1.650786
  S     7.284643  5.963002 -6.083391
  S     4.274522  6.355454 -3.277645
  S     6.475891  5.191183 -2.117903
  S     7.020485  9.439109 -5.969984
  S     4.147711  9.956799 -3.113222
  S     6.508774  9.062492 -1.813455
