16  
    
  C     5.370134  5.745551 -4.459218
  C     6.592405  5.408887 -3.724174
  C     5.279459  9.517771 -4.337550
  C     6.573656  9.190736 -3.768870
  N     7.661675  5.273083 -4.495651
  N     5.591657  5.885299 -5.755298
  N     4.723268  5.774108 -1.939170
  N     7.597374  9.001303 -4.637941
  N     5.281527  9.405493 -5.665977
  N     4.816503  9.275593 -1.861421
  S     7.161894  5.538487 -6.051459
  S     4.015096  6.132909 -3.435516
  S     6.303914  5.218830 -2.066543
  S     6.913520  9.017899 -6.123457
  S     3.962072  9.728421 -3.203809
  S     6.413581  8.946562 -2.071856
