16  
    
  C     5.714339  5.852224 -4.397366
  C     7.010827  5.438986 -3.897434
  C     5.809330  9.420716 -3.988315
  C     7.048827  8.873459 -3.512252
  N     7.989753  5.421846 -4.801138
  N     5.797381  6.220662 -5.672885
  N     5.260136  5.194880 -2.019328
  N     7.884178  8.664206 -4.499077
  N     5.780918  9.759448 -5.287931
  N     5.456690  8.860300 -1.512494
  S     7.254080  5.812057 -6.225823
  S     4.350992  5.794122 -3.303608
  S     6.872458  4.879871 -2.185111
  S     7.195945  9.302380 -5.880468
  S     4.577675  9.437406 -2.761224
  S     7.016458  8.359131 -1.835695
