16  
    
  C     5.607367  5.631989 -4.203937
  C     6.898598  5.412208 -3.550309
  C     5.558056  9.136992 -4.223588
  C     6.840035  9.004639 -3.565604
  N     7.835257  5.105754 -4.415371
  N     5.619628  5.564244 -5.523511
  N     5.195991  5.740193 -1.602938
  N     7.914544  8.981620 -4.349040
  N     5.633617  9.419893 -5.550577
  N     5.125905  8.806509 -1.691720
  S     7.206936  5.195492 -5.925497
  S     4.362491  5.679548 -3.013788
  S     6.837906  5.355692 -1.781566
  S     7.289925  9.317643 -5.890658
  S     4.250679  8.961164 -3.090825
  S     6.779477  8.981810 -1.840559
