16  
    
  C     5.108370  6.309781 -4.524561
  C     6.355767  5.902281 -3.939893
  C     5.382275  9.584847 -4.116093
  C     6.701600  9.307958 -3.494455
  N     7.399614  5.883700 -4.776373
  N     5.181165  6.498031 -5.874457
  N     4.549933  5.976216 -1.999297
  N     7.658208  9.236464 -4.384347
  N     5.371701  9.727872 -5.402844
  N     4.909927  9.115527 -1.666454
  S     6.798772  6.272413 -6.242423
  S     3.757233  6.486298 -3.403468
  S     6.170459  5.536519 -2.176945
  S     6.999551  9.657653 -5.882222
  S     4.108104  9.490041 -2.985618
  S     6.614109  8.968032 -1.741407
