16  
    
  C     5.514636  6.339526 -4.513283
  C     6.723017  5.864815 -3.817650
  C     5.665550  9.840185 -4.441137
  C     6.867015  9.474989 -3.737863
  N     7.671744  5.503401 -4.653612
  N     5.686970  6.512598 -5.824202
  N     4.882149  6.225630 -1.984815
  N     7.930163  9.166071 -4.505214
  N     5.764505  9.819167 -5.792848
  N     5.082278  9.733917 -1.901502
  S     7.234004  5.903572 -6.142650
  S     4.211829  6.723093 -3.422206
  S     6.489542  5.870526 -2.058667
  S     7.428068  9.540693 -6.060007
  S     4.249233  9.903617 -3.368581
  S     6.680042  9.353810 -2.053601
