16  
    
  C     5.158641  6.326041 -4.500284
  C     6.378262  5.841229 -3.892304
  C     5.422689  9.504466 -4.101994
  C     6.670632  9.257434 -3.472192
  N     7.406149  5.792177 -4.738111
  N     5.244212  6.487170 -5.789861
  N     4.537145  5.933639 -2.033506
  N     7.699323  9.301175 -4.337573
  N     5.419082  9.745680 -5.441996
  N     4.946399  9.107903 -1.580199
  S     6.824871  6.211605 -6.232571
  S     3.820268  6.502208 -3.401209
  S     6.136836  5.512885 -2.199464
  S     6.990700  9.598345 -5.816210
  S     4.108192  9.501733 -3.027712
  S     6.555225  8.958351 -1.713357
