16  
    
  C     5.742272  5.767700 -4.386892
  C     6.973939  5.338090 -3.763732
  C     5.702988  9.518027 -4.307968
  C     6.936050  8.941983 -3.831445
  N     8.016332  5.098421 -4.592069
  N     5.807432  5.954803 -5.719657
  N     5.225236  5.412579 -1.868130
  N     7.964899  8.937774 -4.640361
  N     5.815437 10.009600 -5.547253
  N     5.287740  8.799634 -1.876407
  S     7.389492  5.590985 -6.060123
  S     4.378141  5.882931 -3.237647
  S     6.792111  5.009845 -2.053194
  S     7.390527  9.731984 -6.016786
  S     4.383606  9.424326 -3.149949
  S     6.948373  8.728272 -2.117119
