16  
    
  C     5.473924  6.066899 -4.315880
  C     6.596347  5.494886 -3.611839
  C     5.693852  9.695957 -4.238561
  C     6.796896  9.025494 -3.552707
  N     7.603194  5.217828 -4.402433
  N     5.684798  6.291144 -5.581864
  N     4.686107  5.671289 -1.936024
  N     7.814780  8.709664 -4.382607
  N     5.899963  9.921133 -5.551388
  N     5.206156  9.568483 -1.726689
  S     7.237596  5.666021 -5.968799
  S     4.052932  6.274818 -3.390935
  S     6.268742  5.196791 -1.908235
  S     7.389511  9.247971 -5.870402
  S     4.406796  9.922746 -3.134080
  S     6.652696  8.819858 -1.841495
