16  
    
  C     5.453260  5.603089 -4.158352
  C     6.620534  5.091200 -3.477089
  C     5.641887  8.966423 -3.996470
  C     6.874649  8.473552 -3.401620
  N     7.711639  4.924370 -4.231812
  N     5.623968  5.858906 -5.440295
  N     4.768645  5.353834 -1.677939
  N     7.842384  8.196168 -4.257939
  N     5.644069  9.065835 -5.345827
  N     5.178625  8.884264 -1.472810
  S     7.177376  5.366857 -5.760645
  S     4.128387  5.861519 -3.080439
  S     6.401961  5.094461 -1.756809
  S     7.145274  8.541560 -5.832597
  S     4.301088  9.104165 -2.892648
  S     6.801132  8.551041 -1.654807
