16  
    
  C     5.519980  5.966526 -4.312771
  C     6.715478  5.528165 -3.671481
  C     5.670147  9.502971 -4.454506
  C     6.880786  9.169484 -3.783879
  N     7.742171  5.247101 -4.500716
  N     5.683021  6.183806 -5.595073
  N     5.051534  5.995332 -1.786169
  N     8.006188  9.062448 -4.471763
  N     5.852544  9.551565 -5.798294
  N     4.995580  9.222740 -2.052268
  S     7.245991  5.700730 -5.957247
  S     4.199542  6.190705 -3.217436
  S     6.638125  5.447868 -1.902278
  S     7.488469  9.293294 -6.052745
  S     4.307550  9.598126 -3.466428
  S     6.671171  8.893513 -2.072033
