16  
    
  C     5.463411  5.768766 -4.442190
  C     6.659582  5.478070 -3.704632
  C     5.655047  9.011553 -4.178579
  C     6.914010  8.756429 -3.529971
  N     7.790038  5.551046 -4.420974
  N     5.626907  5.966183 -5.745020
  N     4.768998  5.513549 -1.906445
  N     7.964744  8.835481 -4.337255
  N     5.749314  9.180338 -5.513736
  N     5.198632  8.763571 -1.665293
  S     7.275493  5.736891 -5.978333
  S     4.115038  6.052343 -3.350077
  S     6.405184  5.276603 -1.947142
  S     7.315640  9.155665 -5.864954
  S     4.356488  8.963351 -3.057689
  S     6.868670  8.412108 -1.835205
