16  
    
  C     5.053443  6.271105 -4.512545
  C     6.304207  5.954396 -3.930820
  C     5.352237  9.609997 -4.148750
  C     6.685877  9.280248 -3.635052
  N     7.355110  5.969300 -4.715920
  N     5.178492  6.533209 -5.819263
  N     4.596221  6.032024 -2.066163
  N     7.717643  9.284483 -4.469105
  N     5.452792  9.885443 -5.421687
  N     5.034829  9.161622 -1.548647
  S     6.766062  6.323138 -6.232194
  S     3.780688  6.408845 -3.418477
  S     6.200561  5.668124 -2.241084
  S     7.000151  9.652149 -5.912884
  S     4.056699  9.490192 -2.951330
  S     6.632311  8.988247 -1.923465
