16  
    
  C     5.700861  5.899532 -4.135253
  C     6.895351  5.250635 -3.669891
  C     5.735131  9.264211 -4.058952
  C     6.947861  8.870006 -3.403403
  N     7.868897  5.094181 -4.598664
  N     5.787297  6.220954 -5.427450
  N     5.216972  5.206741 -1.698213
  N     7.990542  8.772346 -4.222705
  N     5.851478  9.445647 -5.377496
  N     5.366241  8.849313 -1.506058
  S     7.204823  5.583681 -6.023293
  S     4.422380  5.990348 -2.947800
  S     6.848325  4.807439 -1.943557
  S     7.417648  9.197056 -5.692040
  S     4.464478  9.234724 -2.858486
  S     6.969156  8.520440 -1.763445
