16  
    
  C     5.418187  5.510802 -4.168348
  C     6.567905  5.082888 -3.443365
  C     5.623429  8.956826 -4.042649
  C     6.851121  8.532426 -3.412635
  N     7.594232  4.802390 -4.256388
  N     5.631789  5.717777 -5.474756
  N     4.774755  5.327493 -1.702109
  N     7.817167  8.254125 -4.282125
  N     5.727088  9.085348 -5.353093
  N     5.223650  8.918045 -1.454072
  S     7.215143  5.361017 -5.738372
  S     4.107671  5.836446 -3.155070
  S     6.387782  5.168907 -1.735521
  S     7.215540  8.571117 -5.782535
  S     4.364449  9.096115 -2.852327
  S     6.830910  8.433303 -1.647455
