16  
    
  C     5.531044  5.700419 -4.397483
  C     6.743292  5.328057 -3.789481
  C     5.477842  9.536542 -4.618326
  C     6.719035  9.312167 -3.917421
  N     7.705299  5.075721 -4.646330
  N     5.610099  5.793230 -5.707704
  N     5.086625  5.710607 -1.821980
  N     7.765610  9.317105 -4.736600
  N     5.545712  9.618313 -5.977623
  N     4.842268  9.334156 -2.144548
  S     7.189899  5.537603 -6.125044
  S     4.330615  6.067217 -3.246697
  S     6.694216  5.242792 -2.031194
  S     7.209910  9.402587 -6.297386
  S     4.050382  9.675065 -3.599357
  S     6.459985  8.992667 -2.193027
