16  
    
  C     5.386591  5.977828 -4.549659
  C     6.525239  5.463508 -3.772808
  C     5.275756  9.455146 -4.402141
  C     6.408681  8.811542 -3.764569
  N     7.504659  5.064206 -4.588242
  N     5.605133  5.951534 -5.880826
  N     4.657832  5.679263 -2.052549
  N     7.457806  8.534747 -4.507017
  N     5.504316  9.715888 -5.658358
  N     4.745791  9.485320 -1.894397
  S     7.117933  5.364671 -6.156365
  S     3.992987  6.161019 -3.534335
  S     6.254374  5.235311 -2.080054
  S     7.066742  9.072415 -5.977729
  S     3.986686  9.807700 -3.359300
  S     6.302109  8.901028 -2.026255
