16  
    
  C     5.729029  6.272568 -4.176436
  C     6.918790  5.661019 -3.658213
  C     5.886047  9.582885 -4.189913
  C     7.120348  9.023343 -3.668117
  N     7.867913  5.362511 -4.565903
  N     5.799436  6.546884 -5.486162
  N     5.148947  5.668533 -1.739132
  N     8.020048  8.712927 -4.559797
  N     5.863234  9.719012 -5.494999
  N     5.470350  9.400667 -1.657891
  S     7.292701  6.024548 -5.995470
  S     4.342021  6.281574 -3.059453
  S     6.715525  5.301053 -1.988459
  S     7.400976  9.147894 -6.041627
  S     4.625508  9.732183 -3.055349
  S     7.014341  8.792863 -1.906979
