16  
    
  C     5.770776  5.696081 -4.253381
  C     6.965744  5.211348 -3.667982
  C     5.180148  9.869117 -4.655592
  C     6.317742  9.313563 -3.943402
  N     7.958956  4.961202 -4.549557
  N     5.833190  5.813416 -5.618067
  N     5.151282  5.582021 -1.776501
  N     7.321592  8.892413 -4.739319
  N     5.346688  9.924084 -5.969338
  N     4.490589  9.734172 -2.222786
  S     7.374940  5.311083 -5.989997
  S     4.408274  5.819043 -3.244328
  S     6.775082  5.180960 -1.898072
  S     6.845383  9.363575 -6.248644
  S     3.880430 10.225505 -3.631896
  S     6.067595  9.160296 -2.172572
