16  
    
  C     5.558580  5.193582 -4.308491
  C     6.852835  5.078610 -3.707957
  C     5.552234  9.377930 -4.506420
  C     6.739314  8.970748 -3.761698
  N     7.835459  5.088361 -4.590630
  N     5.522218  5.223526 -5.658517
  N     5.289768  5.230306 -1.681996
  N     7.841968  8.751221 -4.466335
  N     5.739447  9.387022 -5.818475
  N     4.739379  9.148348 -2.089089
  S     7.128359  5.017216 -6.125274
  S     4.301472  5.401904 -3.041286
  S     6.908456  4.981435 -1.998610
  S     7.332439  8.990790 -6.115480
  S     4.165755  9.626761 -3.549506
  S     6.310140  8.655738 -2.040266
