16  
    
  C     5.581687  6.011910 -4.444984
  C     6.761179  5.642702 -3.754675
  C     5.603813  9.444688 -4.432226
  C     6.834845  9.188415 -3.775543
  N     7.839080  5.453400 -4.493339
  N     5.678033  6.131376 -5.772191
  N     4.898994  5.740900 -1.942289
  N     7.896565  9.049588 -4.565549
  N     5.680289  9.505046 -5.732237
  N     5.005535  9.446867 -1.925422
  S     7.235337  5.724807 -6.102694
  S     4.169899  6.164093 -3.359991
  S     6.554745  5.677591 -1.984905
  S     7.265694  9.402326 -6.107331
  S     4.298702  9.489251 -3.408378
  S     6.607874  9.022867 -1.980935
