16  
    
  C     5.845253  5.522565 -4.029692
  C     7.138535  5.109770 -3.458633
  C     5.528235  9.394000 -4.261729
  C     6.598267  8.741055 -3.546954
  N     8.126543  5.060359 -4.339333
  N     5.831633  5.715572 -5.345793
  N     5.397222  5.205444 -1.511976
  N     7.656769  8.430538 -4.331314
  N     5.628998  9.436436 -5.588897
  N     4.720302  9.201535 -1.778642
  S     7.375372  5.402381 -5.861749
  S     4.548000  5.563222 -2.911083
  S     7.072856  4.868703 -1.689543
  S     7.169391  8.826905 -5.916046
  S     4.194861  9.825209 -3.226507
  S     6.191990  8.460677 -1.880310
