16  
    
  C     5.780233  5.851720 -3.862087
  C     6.900017  5.054112 -3.497401
  C     5.606630  9.621778 -4.088594
  C     6.814090  8.977572 -3.615204
  N     7.835236  4.896250 -4.454930
  N     5.903123  6.400497 -5.059823
  N     5.136354  4.967336 -1.533256
  N     7.785063  8.957932 -4.511683
  N     5.734883 10.129599 -5.331622
  N     5.168146  8.898848 -1.654586
  S     7.359019  5.898123 -5.661625
  S     4.429459  5.791562 -2.842148
  S     6.743414  4.559289 -1.769681
  S     7.263040  9.657017 -5.868920
  S     4.303407  9.632624 -2.886785
  S     6.768806  8.506194 -1.944459
