16  
    
  C     5.460040  6.045283 -4.356154
  C     6.552314  5.410179 -3.659762
  C     5.706518  9.727362 -4.187426
  C     6.801058  9.047056 -3.523450
  N     7.622566  5.155031 -4.415057
  N     5.655698  6.263580 -5.652088
  N     4.625082  5.730462 -1.890758
  N     7.842814  8.641642 -4.314726
  N     5.964271  9.908502 -5.491623
  N     5.013148  9.473775 -1.646439
  S     7.131213  5.649265 -5.941323
  S     4.020022  6.200973 -3.334946
  S     6.236462  5.296387 -1.945848
  S     7.444933  9.256351 -5.868423
  S     4.360166  9.995820 -3.134045
  S     6.555702  8.823512 -1.852810
