16  
    
  C     5.572376  5.281235 -4.165412
  C     6.805580  4.983752 -3.461933
  C     5.382922  9.379031 -4.402324
  C     6.565923  8.792091 -3.810508
  N     7.824409  5.004953 -4.321033
  N     5.597559  5.404390 -5.486029
  N     5.008989  5.197355 -1.652810
  N     7.556193  8.438069 -4.627019
  N     5.411441  9.346947 -5.718293
  N     4.919739  9.058105 -1.839579
  S     7.158738  5.113472 -5.908592
  S     4.213102  5.264899 -3.111199
  S     6.649035  5.013928 -1.729326
  S     6.931434  8.796253 -6.179447
  S     4.137321  9.642963 -3.234469
  S     6.479128  8.537691 -2.083406
