16  
    
  C     5.442769  6.041196 -4.231620
  C     6.698048  5.447445 -3.658287
  C     5.365439  9.544908 -4.382849
  C     6.536165  9.091971 -3.741539
  N     7.668197  5.215782 -4.539057
  N     5.601889  6.442940 -5.492880
  N     4.952257  5.573339 -1.720666
  N     7.603013  9.024231 -4.527125
  N     5.473915  9.808821 -5.720495
  N     4.923770  9.162037 -1.885619
  S     7.089184  5.941567 -5.968903
  S     4.182168  6.154770 -3.104742
  S     6.552945  5.127111 -1.916315
  S     7.096052  9.446765 -6.071591
  S     4.113007  9.614814 -3.211942
  S     6.526611  8.872143 -2.068935
