16  
    
  C     5.718944  6.277620 -4.180269
  C     6.925086  5.665618 -3.659983
  C     5.903938  9.592556 -4.190157
  C     7.145361  9.055368 -3.654536
  N     7.889596  5.354208 -4.556276
  N     5.804366  6.555942 -5.502733
  N     5.146855  5.653950 -1.735409
  N     8.041716  8.716838 -4.560776
  N     5.872034  9.707468 -5.489446
  N     5.464542  9.439393 -1.646822
  S     7.287955  6.010929 -5.980279
  S     4.337668  6.300100 -3.056082
  S     6.715177  5.308317 -1.970633
  S     7.390153  9.151700 -6.046654
  S     4.630344  9.741450 -3.045352
  S     7.003107  8.789204 -1.920129
