16  
    
  C     5.351688  5.587230 -4.440533
  C     6.442064  5.054221 -3.679652
  C     5.487413  9.155941 -4.288450
  C     6.729608  8.704128 -3.673619
  N     7.521173  4.833347 -4.399327
  N     5.605544  5.851850 -5.739750
  N     4.621621  5.404207 -1.921814
  N     7.681735  8.438193 -4.546998
  N     5.527424  9.247731 -5.615352
  N     4.919517  8.835280 -1.817675
  S     7.135125  5.206601 -5.982572
  S     3.964932  5.860920 -3.407669
  S     6.217639  4.934686 -1.963307
  S     7.116924  8.813760 -6.043624
  S     4.195256  9.363128 -3.210391
  S     6.535099  8.598735 -1.851965
