16  
    
  C     5.472898  6.059166 -4.415332
  C     6.717095  5.689699 -3.782037
  C     5.476323  9.645755 -4.313261
  C     6.717927  9.225184 -3.715447
  N     7.744389  5.623864 -4.633119
  N     5.476065  6.103054 -5.759825
  N     4.996732  5.733348 -1.885277
  N     7.710898  9.047866 -4.570037
  N     5.572644  9.879369 -5.590417
  N     5.037552  9.541934 -1.738857
  S     7.110646  5.835419 -6.160395
  S     4.190332  6.284269 -3.227914
  S     6.635190  5.480943 -2.054806
  S     7.142709  9.493831 -6.050814
  S     4.147924  9.794132 -3.152527
  S     6.555617  8.899207 -1.893793
