16  
    
  C     5.494546  6.259637 -4.410970
  C     6.695345  5.921280 -3.739466
  C     5.638570  9.740919 -4.358518
  C     6.897807  9.363817 -3.733451
  N     7.720495  5.726526 -4.556032
  N     5.621159  6.483597 -5.720023
  N     4.866792  6.312620 -1.929455
  N     7.966592  9.283381 -4.582930
  N     5.690228  9.933961 -5.696527
  N     4.954657  9.512784 -1.900107
  S     7.206477  6.054543 -6.054889
  S     4.149604  6.616228 -3.391143
  S     6.410247  5.811832 -2.016607
  S     7.272611  9.565069 -6.114147
  S     4.271146  9.812269 -3.352398
  S     6.629353  9.261758 -2.036213
