16  
    
  C     5.725143  5.318887 -4.262787
  C     6.950567  4.947043 -3.614627
  C     5.694299  9.482907 -4.428579
  C     6.832564  8.935666 -3.727767
  N     8.035158  4.757005 -4.388276
  N     5.930587  5.597638 -5.534757
  N     5.178510  5.329864 -1.734212
  N     7.865673  8.702309 -4.534682
  N     5.889359  9.814337 -5.699239
  N     4.864667  9.120920 -1.994974
  S     7.496089  5.055889 -5.937536
  S     4.352731  5.577731 -3.209102
  S     6.763973  4.882971 -1.835997
  S     7.462432  9.412161 -6.039577
  S     4.280651  9.664337 -3.453569
  S     6.470111  8.705878 -2.056154
