16  
    
  C     5.478662  6.019373 -4.286353
  C     6.643392  5.552035 -3.710764
  C     5.341467  9.513877 -4.394788
  C     6.603042  9.221077 -3.774680
  N     7.719586  5.581156 -4.476378
  N     5.585505  6.264329 -5.582117
  N     4.861289  5.487235 -1.840856
  N     7.580099  9.187233 -4.650291
  N     5.351793  9.699702 -5.733285
  N     4.953233  9.334021 -1.764784
  S     7.237091  6.058023 -5.958360
  S     4.126487  6.023178 -3.224662
  S     6.487259  5.082852 -2.008048
  S     6.942960  9.411854 -6.113888
  S     4.117620  9.664353 -3.211721
  S     6.525810  8.933373 -2.049092
