16  
    
  C     5.610980  5.760808 -4.322162
  C     6.758791  5.156888 -3.696178
  C     5.521250  9.233084 -4.412503
  C     6.749423  8.826418 -3.767026
  N     7.651632  4.720338 -4.590328
  N     5.693456  5.989036 -5.643784
  N     4.959634  5.439299 -1.796322
  N     7.817170  8.655170 -4.513400
  N     5.725762  9.498192 -5.707624
  N     5.055962  9.158434 -1.819368
  S     7.159384  5.408001 -6.092653
  S     4.261512  6.014043 -3.194418
  S     6.564419  5.019868 -1.913653
  S     7.293465  9.040595 -6.065490
  S     4.279779  9.469561 -3.245735
  S     6.653155  8.630240 -2.040680
