16  
    
  C     5.400085  5.994461 -4.390529
  C     6.646754  5.615904 -3.742952
  C     5.762748  9.736368 -4.427908
  C     6.901380  9.105466 -3.804358
  N     7.643056  5.437154 -4.657026
  N     5.466972  6.167434 -5.729446
  N     4.955263  5.882409 -1.879249
  N     7.915010  8.856663 -4.650191
  N     5.855023  9.886689 -5.757689
  N     5.109643  9.543916 -1.918818
  S     7.054802  5.738599 -6.088869
  S     4.087736  6.331042 -3.263161
  S     6.501182  5.329591 -2.022006
  S     7.332668  9.291953 -6.191773
  S     4.383285 10.104954 -3.401112
  S     6.620808  8.832944 -2.123141
