16  
    
  C     5.204751  6.360489 -4.692670
  C     6.463364  6.000867 -4.067318
  C     5.817704  9.784572 -4.350470
  C     7.046316  9.325619 -3.781397
  N     7.471229  5.729573 -4.942710
  N     5.295563  6.540990 -6.038821
  N     4.757215  6.430364 -2.138653
  N     8.006128  9.038974 -4.668226
  N     5.783039  9.839404 -5.665306
  N     5.282441  9.465883 -1.859220
  S     6.824842  6.065978 -6.375355
  S     3.957209  6.644760 -3.610590
  S     6.327817  5.991626 -2.336090
  S     7.355529  9.535420 -6.129350
  S     4.485403  9.861936 -3.239844
  S     6.859064  9.143603 -2.058608
