16  
    
  C     5.526697  6.087675 -4.317095
  C     6.734574  5.615322 -3.737042
  C     5.628238  9.385722 -4.464087
  C     6.861962  9.103216 -3.796521
  N     7.752997  5.388294 -4.514036
  N     5.649829  6.156222 -5.645178
  N     4.996492  5.914298 -1.762828
  N     8.002174  9.080692 -4.512567
  N     5.782054  9.557217 -5.764142
  N     5.022125  9.259507 -1.907259
  S     7.221737  5.709263 -6.019458
  S     4.191214  6.279854 -3.200130
  S     6.557709  5.536362 -1.942352
  S     7.449450  9.332967 -6.099769
  S     4.280832  9.667001 -3.360099
  S     6.636855  8.835054 -2.037184
