16  
    
  C     5.487989  6.180091 -4.608269
  C     6.491871  5.453699 -3.853165
  C     5.792252  9.536041 -4.409738
  C     6.970349  9.128608 -3.716082
  N     7.658493  5.270180 -4.466954
  N     5.916568  6.551512 -5.822094
  N     4.609496  5.886201 -2.177907
  N     8.007364  8.958457 -4.546224
  N     5.974482  9.733047 -5.710849
  N     5.176371  9.244795 -1.907152
  S     7.467941  5.930052 -5.957335
  S     4.170176  6.474494 -3.620370
  S     6.036893  5.034007 -2.252640
  S     7.526103  9.325430 -6.052441
  S     4.389184  9.522297 -3.316264
  S     6.758937  8.764689 -2.019533
