16  
    
  C     5.616301  5.673571 -4.360079
  C     6.714637  5.130063 -3.693848
  C     5.425944  9.908422 -4.498009
  C     6.621786  9.286101 -3.993656
  N     7.755894  4.874748 -4.469909
  N     5.775170  5.904428 -5.657631
  N     4.962498  5.661857 -1.865606
  N     7.636965  9.068566 -4.814527
  N     5.562450 10.184092 -5.782924
  N     4.911272  9.310260 -2.046990
  S     7.321128  5.413654 -6.029422
  S     4.171332  5.810288 -3.357059
  S     6.445440  4.867193 -2.027840
  S     7.126099  9.578663 -6.299817
  S     4.097359 10.038466 -3.321947
  S     6.524492  8.997775 -2.265223
