16  
    
  C     5.448752  5.960600 -4.368906
  C     6.702745  5.517608 -3.662853
  C     5.287957  9.563818 -4.383092
  C     6.551931  9.252601 -3.768668
  N     7.798821  5.594532 -4.444656
  N     5.605221  6.292410 -5.665024
  N     4.842536  5.428716 -1.888000
  N     7.581520  9.121912 -4.576925
  N     5.359732  9.672090 -5.692020
  N     4.942999  9.400461 -1.796739
  S     7.172757  6.057521 -5.950799
  S     4.101673  6.012114 -3.253430
  S     6.452017  5.147800 -2.033573
  S     6.991684  9.428751 -6.109816
  S     4.046411  9.673495 -3.171916
  S     6.562747  8.966943 -2.066423
