16  
    
  C     5.226250  6.156741 -4.312850
  C     6.380664  5.582125 -3.704895
  C     5.434382  9.756542 -4.307589
  C     6.666222  9.271204 -3.748583
  N     7.365335  5.360596 -4.550387
  N     5.304347  6.304312 -5.624196
  N     4.671852  5.978858 -1.816050
  N     7.703499  9.114413 -4.600643
  N     5.526319  9.977754 -5.647822
  N     5.042277  9.410764 -1.773704
  S     6.931615  5.816548 -6.056047
  S     3.941611  6.485099 -3.173474
  S     6.130322  5.293149 -2.032832
  S     7.067235  9.444985 -6.066990
  S     4.166781 10.045196 -3.095788
  S     6.608812  9.048472 -2.087807
