16  
    
  C     5.359354  6.079392 -4.367249
  C     6.607783  5.729842 -3.743351
  C     5.448947  9.763477 -4.401331
  C     6.652196  9.370112 -3.706419
  N     7.613353  5.712668 -4.621310
  N     5.412469  6.198930 -5.694669
  N     4.885862  5.954498 -1.885487
  N     7.672215  9.102519 -4.476524
  N     5.577577  9.833301 -5.724590
  N     4.838665  9.370366 -1.844863
  S     7.027859  5.858953 -6.153913
  S     4.051444  6.226423 -3.312209
  S     6.526749  5.637590 -1.995990
  S     7.197065  9.422226 -6.019402
  S     4.127989  9.952696 -3.247334
  S     6.489734  8.998032 -1.966470
