16  
    
  C     5.591972  6.096230 -4.339965
  C     6.775348  5.482915 -3.675465
  C     5.590812  9.545627 -4.261572
  C     6.886615  9.098847 -3.682351
  N     7.752532  5.254945 -4.540997
  N     5.737571  6.329049 -5.634789
  N     4.907974  5.745347 -1.887222
  N     7.873282  9.039137 -4.535005
  N     5.675534  9.679781 -5.584475
  N     5.212116  9.331255 -1.713104
  S     7.314011  5.861066 -6.044427
  S     4.282517  6.439817 -3.308282
  S     6.429763  5.074072 -2.030053
  S     7.242268  9.296610 -5.994098
  S     4.305806  9.799931 -3.098126
  S     6.827567  8.835126 -1.976682
