16  
    
  C     5.474076  5.669372 -4.216782
  C     6.637248  5.120450 -3.587120
  C     5.536811  9.326285 -4.151461
  C     6.756402  8.896692 -3.525557
  N     7.637886  4.891661 -4.404086
  N     5.606573  5.848080 -5.539337
  N     4.886185  5.335448 -1.699693
  N     7.812811  8.826742 -4.342325
  N     5.709567  9.624306 -5.422430
  N     4.963691  9.121173 -1.660608
  S     7.167304  5.424157 -5.902080
  S     4.125706  6.066382 -3.094966
  S     6.454661  4.842558 -1.896321
  S     7.236106  9.210191 -5.861541
  S     4.190119  9.419612 -3.088482
  S     6.525809  8.681830 -1.816100
