16  
    
  C     5.635915  5.655750 -4.452020
  C     6.887977  5.363913 -3.831139
  C     5.297430  9.704550 -4.424813
  C     6.514050  9.211401 -3.847502
  N     7.948237  5.181423 -4.630327
  N     5.693851  5.733662 -5.790983
  N     5.192132  5.467129 -1.896335
  N     7.513713  9.040112 -4.722967
  N     5.312042  9.894761 -5.734523
  N     4.962499  9.728141 -1.813872
  S     7.270233  5.407085 -6.140424
  S     4.327089  5.912389 -3.246314
  S     6.760727  5.117952 -2.066855
  S     6.868434  9.424898 -6.244635
  S     4.116416 10.122805 -3.194502
  S     6.454296  9.052698 -2.121523
