16  
    
  C     5.115231  5.974264 -4.318750
  C     6.300798  5.639582 -3.600813
  C     5.487963  9.530968 -4.066625
  C     6.716181  9.041249 -3.472034
  N     7.376180  5.546325 -4.387882
  N     5.246537  6.047275 -5.649905
  N     4.483981  5.828654 -1.820852
  N     7.688838  8.727271 -4.269715
  N     5.553663  9.504591 -5.368627
  N     5.254702  9.572459 -1.518680
  S     6.816559  5.665645 -5.922982
  S     3.846940  6.389888 -3.223985
  S     6.104366  5.581434 -1.897332
  S     7.057806  9.011506 -5.814110
  S     4.376167  9.994321 -2.855865
  S     6.676325  8.724298 -1.721668
