16  
    
  C     5.710876  6.279634 -4.186942
  C     6.925557  5.665645 -3.661172
  C     5.917301  9.596511 -4.187907
  C     7.157668  9.075637 -3.641205
  N     7.899434  5.353374 -4.548643
  N     5.807414  6.560246 -5.508867
  N     5.142384  5.645631 -1.734246
  N     8.056360  8.721667 -4.561628
  N     5.881957  9.699627 -5.492791
  N     5.462943  9.464433 -1.641337
  S     7.285266  6.000779 -5.970855
  S     4.336871  6.312720 -3.055020
  S     6.716942  5.312107 -1.958077
  S     7.381620  9.155466 -6.049101
  S     4.632488  9.748146 -3.038155
  S     6.995777  8.787002 -1.928701
