16  
    
  C     5.441265  5.937183 -4.415387
  C     6.674413  5.549147 -3.860206
  C     5.439516  9.648683 -4.603513
  C     6.562083  9.119794 -3.859252
  N     7.641828  5.142026 -4.710439
  N     5.415164  5.999755 -5.761193
  N     5.012545  5.708480 -1.832387
  N     7.529800  8.804705 -4.690363
  N     5.556553  9.781707 -5.901537
  N     4.797709  9.437320 -2.090727
  S     6.959890  5.482724 -6.221343
  S     4.169319  5.996954 -3.262422
  S     6.603645  5.283055 -2.090560
  S     7.034321  9.195053 -6.254757
  S     4.011673  9.819345 -3.544083
  S     6.508000  9.240983 -2.166127
