16  
    
  C     5.183573  6.299043 -4.490324
  C     6.444549  6.006226 -3.843671
  C     5.504081  9.694386 -4.253655
  C     6.794913  9.334878 -3.689094
  N     7.441959  5.972854 -4.735747
  N     5.266147  6.538617 -5.823038
  N     4.638782  5.941055 -2.021956
  N     7.721040  9.242017 -4.621813
  N     5.428731  9.883660 -5.558164
  N     5.022485  9.294787 -1.703329
  S     6.894700  6.341212 -6.224094
  S     3.819209  6.375084 -3.397398
  S     6.274365  5.898525 -2.087288
  S     7.007638  9.751542 -6.053126
  S     4.151375  9.606743 -3.110164
  S     6.705538  8.949914 -1.959494
