16  
    
  C     5.514893  5.706779 -4.078186
  C     6.762614  5.232840 -3.516326
  C     5.462499  8.897743 -4.111034
  C     6.752042  8.793138 -3.503197
  N     7.764010  5.147621 -4.369562
  N     5.563621  5.868493 -5.387616
  N     5.080386  5.485474 -1.541970
  N     7.743089  8.647003 -4.386888
  N     5.538441  8.831404 -5.453911
  N     5.110482  9.129194 -1.579049
  S     7.102096  5.484617 -5.834023
  S     4.312996  6.023445 -2.911649
  S     6.609455  4.988220 -1.838133
  S     7.132970  8.649607 -5.861001
  S     4.150802  9.036427 -2.905746
  S     6.718613  8.690986 -1.790249
