16  
    
  C     5.670791  5.789111 -4.213160
  C     6.949206  5.427130 -3.591841
  C     5.675466  9.538412 -4.303810
  C     6.887088  9.028418 -3.739012
  N     7.946630  5.176738 -4.436110
  N     5.707187  5.930711 -5.534928
  N     5.119720  5.464800 -1.736243
  N     7.904642  8.923349 -4.632067
  N     5.751969  9.810093 -5.624228
  N     5.059303  8.948780 -1.930596
  S     7.295405  5.622577 -5.953221
  S     4.289378  5.704405 -3.139976
  S     6.774779  5.114883 -1.883575
  S     7.279405  9.381230 -6.093789
  S     4.269953  9.628395 -3.295124
  S     6.743675  8.802883 -2.032306
