16  
    
  C     5.433636  5.589548 -4.251914
  C     6.645434  5.253354 -3.470020
  C     5.813134  8.851796 -3.951247
  C     7.082436  8.519108 -3.364156
  N     7.717911  4.975710 -4.209335
  N     5.590433  5.509248 -5.578350
  N     4.729907  5.727486 -1.737244
  N     8.060708  8.508547 -4.253594
  N     5.819128  9.109243 -5.263856
  N     5.355297  8.646248 -1.442204
  S     7.187781  5.042605 -5.796556
  S     4.085879  5.887321 -3.245977
  S     6.298317  5.096613 -1.745990
  S     7.420148  8.911081 -5.742330
  S     4.547758  9.146034 -2.839348
  S     6.928856  8.157122 -1.637111
