16  
    
  C     5.465692  5.910080 -4.403394
  C     6.730329  5.430019 -3.906018
  C     5.495086  9.961581 -4.662598
  C     6.648318  9.222555 -4.111344
  N     7.647885  5.162538 -4.869270
  N     5.472139  6.167067 -5.680016
  N     5.145438  5.531914 -1.899741
  N     7.535415  8.792437 -4.975683
  N     5.536893 10.009401 -5.993336
  N     5.128342  9.826604 -2.061070
  S     6.995580  5.689819 -6.200484
  S     4.271099  6.134908 -3.183510
  S     6.695781  5.141078 -2.177844
  S     7.011465  9.359660 -6.441525
  S     4.395784 10.310526 -3.428886
  S     6.635421  9.019296 -2.337111
