16  
    
  C     5.658228  5.267549 -4.285722
  C     6.954150  5.025291 -3.665836
  C     5.566919  9.383877 -4.504501
  C     6.720701  8.962884 -3.758835
  N     7.889295  4.736946 -4.560663
  N     5.630218  5.351028 -5.603347
  N     5.266761  5.295294 -1.721875
  N     7.853788  8.741728 -4.427093
  N     5.876507  9.585676 -5.775744
  N     4.801460  9.100558 -2.092004
  S     7.233990  5.084410 -6.036277
  S     4.344237  5.440821 -3.157537
  S     6.857167  4.989620 -1.975636
  S     7.461335  9.128878 -6.012635
  S     4.172043  9.699101 -3.544336
  S     6.418088  8.705101 -2.080654
