16  
    
  C     5.593035  5.700704 -4.427983
  C     6.874672  5.353613 -3.833112
  C     5.265682  9.722065 -4.352494
  C     6.423281  9.148541 -3.706288
  N     7.839929  5.196447 -4.734828
  N     5.668309  5.833453 -5.741220
  N     5.236905  5.728585 -1.879565
  N     7.353816  8.823977 -4.613693
  N     5.283120  9.797929 -5.672167
  N     4.633415  9.494896 -1.861080
  S     7.239334  5.534202 -6.252923
  S     4.349187  5.846926 -3.284585
  S     6.826073  5.292889 -2.112995
  S     6.704758  9.167036 -6.115724
  S     3.941289 10.075602 -3.273598
  S     6.218143  9.181596 -1.954092
