16  
    
  C     5.378413  6.036524 -4.401011
  C     6.601014  5.616614 -3.758283
  C     5.668127  9.676585 -4.401374
  C     6.820944  9.097639 -3.743487
  N     7.677648  5.480379 -4.477724
  N     5.520047  6.120037 -5.717005
  N     4.863415  5.943816 -1.864239
  N     7.875558  8.871776 -4.539095
  N     5.903246  9.919041 -5.692092
  N     5.070758  9.466610 -1.939420
  S     7.088217  5.760391 -6.120406
  S     4.094064  6.368861 -3.248725
  S     6.420661  5.348314 -2.042841
  S     7.402339  9.270776 -6.076293
  S     4.346278 10.011522 -3.331097
  S     6.612148  8.856146 -2.091298
