16  
    
  C     5.566034  5.585555 -4.548555
  C     6.853339  5.438989 -3.969700
  C     5.374738  9.692836 -4.220410
  C     6.578898  9.263762 -3.588832
  N     7.878410  5.617060 -4.769373
  N     5.573109  5.928713 -5.803427
  N     5.107217  5.428094 -2.002097
  N     7.618631  9.160447 -4.423601
  N     5.522466  9.969250 -5.534359
  N     4.939684  9.199840 -1.698197
  S     7.159446  5.860205 -6.263867
  S     4.301215  5.450486 -3.482870
  S     6.735762  5.196840 -2.218142
  S     7.084144  9.637416 -5.895929
  S     4.080900  9.672690 -3.060611
  S     6.557732  8.964781 -1.906734
