16  
    
  C     5.505292  5.622574 -4.289820
  C     6.722093  5.193764 -3.599201
  C     5.536789  9.215773 -4.242765
  C     6.746136  8.790327 -3.584839
  N     7.823175  4.959886 -4.308720
  N     5.729765  5.721896 -5.600661
  N     5.002847  5.662140 -1.761771
  N     7.776844  8.651812 -4.392168
  N     5.644052  9.485312 -5.543989
  N     4.890873  9.051506 -1.745327
  S     7.315950  5.330854 -5.835331
  S     4.260655  6.062065 -3.211201
  S     6.493992  4.987553 -1.925106
  S     7.204360  9.154079 -5.955855
  S     4.200072  9.590632 -3.189817
  S     6.504667  8.559238 -1.881228
