16  
    
  C     5.178828  6.335652 -4.328202
  C     6.270482  5.730287 -3.653848
  C     5.827041  9.589864 -4.186015
  C     7.003218  9.061746 -3.535823
  N     7.362710  5.488417 -4.375377
  N     5.322141  6.479216 -5.644933
  N     4.418484  6.029140 -1.858068
  N     7.964021  8.895866 -4.449125
  N     5.892840  9.778518 -5.543753
  N     5.428062  9.581787 -1.672376
  S     6.867822  5.979277 -5.896783
  S     3.871863  6.721953 -3.277030
  S     5.920926  5.390275 -1.947994
  S     7.384990  9.214191 -5.997686
  S     4.593762  9.938910 -3.017294
  S     6.918132  8.859760 -1.837127
