16  
    
  C     5.570754  5.523374 -4.327619
  C     6.756780  5.370090 -3.582305
  C     5.666617  9.377632 -4.232126
  C     6.932613  9.224472 -3.579019
  N     7.860926  5.225641 -4.340531
  N     5.688072  5.476620 -5.672950
  N     4.935200  5.747682 -1.804584
  N     7.963608  9.322686 -4.388122
  N     5.805422  9.480439 -5.566159
  N     5.194505  8.929916 -1.713538
  S     7.317250  5.390525 -5.910007
  S     4.262430  5.782508 -3.302046
  S     6.552861  5.440059 -1.836120
  S     7.410165  9.418270 -5.900498
  S     4.323110  9.221780 -3.157635
  S     6.820183  8.757734 -1.896406
