16  
    
  C     5.492539  5.825790 -4.359092
  C     6.663737  5.303270 -3.620655
  C     5.767512  9.197593 -4.169687
  C     7.031448  8.912796 -3.547781
  N     7.722144  5.091533 -4.412037
  N     5.648445  5.990458 -5.677829
  N     4.700459  5.533047 -1.955657
  N     8.061025  8.834690 -4.421554
  N     5.832887  9.370392 -5.506116
  N     5.175362  8.750758 -1.636350
  S     7.261887  5.659295 -5.895387
  S     4.073511  6.028478 -3.402263
  S     6.318295  5.120192 -1.928738
  S     7.357636  9.137125 -5.978739
  S     4.386813  8.951740 -3.064994
  S     6.851027  8.523809 -1.883549
