16  
    
  C     5.574143  6.168974 -4.369277
  C     6.802226  5.534214 -3.817990
  C     5.541942  9.553266 -4.256634
  C     6.785202  9.080477 -3.679197
  N     7.783139  5.272786 -4.703550
  N     5.646800  6.323343 -5.693957
  N     5.056972  5.657497 -1.880420
  N     7.750758  8.932334 -4.546290
  N     5.636792  9.923064 -5.516205
  N     5.113008  9.389588 -1.784880
  S     7.136287  5.883765 -6.130585
  S     4.297020  6.329076 -3.216695
  S     6.645607  5.326437 -2.085008
  S     7.143967  9.451253 -6.016938
  S     4.168488  9.672834 -3.114755
  S     6.717488  8.950759 -1.990081
