16  
    
  C     5.658127  5.717067 -4.438205
  C     6.942027  5.373430 -3.860296
  C     5.185427  9.606264 -4.395665
  C     6.408696  9.146510 -3.771757
  N     7.957484  5.279770 -4.730167
  N     5.647173  5.730789 -5.775757
  N     5.262159  5.675609 -1.855407
  N     7.381468  8.866202 -4.611919
  N     5.291987  9.758913 -5.732098
  N     4.814253  9.561751 -1.860098
  S     7.200836  5.460618 -6.198156
  S     4.363778  5.883724 -3.284972
  S     6.826516  5.168098 -2.068671
  S     6.804156  9.350577 -6.125555
  S     3.983098 10.165577 -3.196405
  S     6.414896  9.115404 -2.074709
