16  
    
  C     5.108130  5.452731 -4.170610
  C     6.337331  4.897151 -3.562089
  C     5.456158  9.331085 -4.326141
  C     6.675447  8.914458 -3.676602
  N     7.315863  4.499356 -4.356387
  N     5.240556  5.507446 -5.477459
  N     4.632954  5.146509 -1.663583
  N     7.653293  8.695106 -4.551556
  N     5.509776  9.620849 -5.651909
  N     4.930257  9.388425 -1.808425
  S     6.790994  5.027944 -5.853779
  S     3.894287  5.714120 -3.018869
  S     6.179616  4.698997 -1.846621
  S     7.127487  9.162258 -6.077962
  S     4.122247  9.620697 -3.279731
  S     6.531414  9.044535 -1.934689
