16  
    
  C     5.561696  6.672656 -4.562319
  C     6.741239  6.144114 -3.915599
  C     5.572872 10.203749 -4.583034
  C     6.733480  9.616012 -3.892269
  N     7.794574  5.888106 -4.663104
  N     5.712297  6.666483 -5.888374
  N     5.045247  6.470057 -2.043642
  N     7.690352  9.187929 -4.668423
  N     5.751645 10.218577 -5.880006
  N     4.921455 10.051821 -2.028394
  S     7.236213  6.215178 -6.280067
  S     4.336846  7.085289 -3.415207
  S     6.551216  5.817749 -2.247149
  S     7.307651  9.613762 -6.221769
  S     4.292970 10.543588 -3.477973
  S     6.512027  9.503002 -2.192047
