16  
    
  C     5.371822  6.056153 -4.582977
  C     6.648283  5.654325 -4.061872
  C     5.713344  9.411060 -4.182711
  C     6.954479  8.961801 -3.518844
  N     7.642655  5.690766 -4.942504
  N     5.450693  6.443079 -5.893547
  N     5.047896  5.726309 -2.055875
  N     7.994283  8.909601 -4.381910
  N     5.781664  9.741481 -5.482784
  N     5.276153  8.870784 -1.608449
  S     7.024845  6.193048 -6.329047
  S     4.104346  6.042179 -3.405174
  S     6.647789  5.498558 -2.384832
  S     7.374321  9.349927 -5.881135
  S     4.456026  9.473840 -2.969912
  S     6.851257  8.724776 -1.852428
