16  
    
  C     5.384910  5.964163 -4.396167
  C     6.554476  5.451419 -3.780870
  C     5.463143  9.255445 -4.181832
  C     6.700524  8.963177 -3.586018
  N     7.594665  5.312362 -4.605104
  N     5.450595  6.196653 -5.728356
  N     4.698049  5.573356 -1.985717
  N     7.707371  8.859369 -4.486468
  N     5.456055  9.324365 -5.508164
  N     4.881893  9.241620 -1.703045
  S     7.047384  5.752160 -6.059244
  S     4.049727  6.212299 -3.332202
  S     6.309478  5.176133 -2.071671
  S     7.000355  9.031042 -5.982384
  S     4.182080  9.388229 -3.127908
  S     6.532567  8.726257 -1.819655
