16  
    
  C     5.230400  6.272374 -4.310639
  C     6.384825  5.763782 -3.585775
  C     5.650112  9.584979 -4.040856
  C     6.843373  9.019141 -3.492710
  N     7.426001  5.448346 -4.363343
  N     5.358130  6.185043 -5.630355
  N     4.459015  5.944909 -1.862734
  N     7.800472  8.619884 -4.378217
  N     5.756502  9.756596 -5.368813
  N     5.203944  9.483272 -1.550492
  S     6.910960  5.770909 -5.916058
  S     3.782658  6.493625 -3.272486
  S     6.091315  5.606477 -1.892894
  S     7.130182  9.064484 -5.901367
  S     4.415028  9.893743 -2.895462
  S     6.706673  8.938318 -1.781865
