16  
    
  C     5.923067  5.580264 -4.081602
  C     7.022905  5.011046 -3.390460
  C     5.640528  9.645788 -4.237681
  C     6.880795  9.078578 -3.746876
  N     8.106451  4.920524 -4.151836
  N     6.061484  5.823412 -5.385116
  N     5.079762  5.151566 -1.710213
  N     7.930433  9.142747 -4.564392
  N     5.748598 10.013211 -5.514850
  N     5.064941  8.894014 -1.876199
  S     7.680094  5.438773 -5.667611
  S     4.497716  5.836321 -3.087642
  S     6.623351  4.628629 -1.758255
  S     7.328222  9.779586 -6.007814
  S     4.348453  9.739802 -3.109503
  S     6.686516  8.447217 -2.110198
