16  
    
  C     5.506483  5.866061 -4.471381
  C     6.772507  5.555328 -3.855198
  C     5.593885  9.405165 -4.113669
  C     6.832479  9.038983 -3.509260
  N     7.814856  5.384891 -4.649652
  N     5.584385  5.918517 -5.803334
  N     4.947793  5.672789 -2.002906
  N     7.875953  8.813051 -4.353792
  N     5.701764  9.607987 -5.435492
  N     5.048835  8.934648 -1.576978
  S     7.176350  5.714113 -6.173064
  S     4.130732  6.032024 -3.391288
  S     6.616580  5.454593 -2.143095
  S     7.287491  9.059022 -5.864391
  S     4.256053  9.350023 -3.009535
  S     6.694996  8.793389 -1.780685
