16  
    
  C     5.396802  5.704495 -4.258125
  C     6.596507  5.320881 -3.648758
  C     5.410526  9.281099 -4.181165
  C     6.703714  8.952585 -3.647042
  N     7.618425  5.194739 -4.485227
  N     5.435920  5.731754 -5.589354
  N     4.876296  5.621322 -1.777850
  N     7.734699  8.825802 -4.508634
  N     5.466251  9.442268 -5.524652
  N     5.014305  9.377110 -1.763899
  S     7.056817  5.561574 -6.000432
  S     4.030751  6.012829 -3.168383
  S     6.481786  5.189890 -1.926452
  S     7.032993  9.132667 -5.960023
  S     4.120190  9.597147 -3.136672
  S     6.508332  8.704389 -1.908850
