16  
    
  C     5.494493  6.005739 -4.443269
  C     6.729370  5.652243 -3.829863
  C     5.459340  9.650781 -4.289197
  C     6.673490  9.186503 -3.687527
  N     7.770352  5.597852 -4.634162
  N     5.530252  6.159546 -5.766298
  N     5.021487  5.690306 -1.884170
  N     7.680891  8.996853 -4.549014
  N     5.574861  9.881040 -5.644086
  N     5.052877  9.529270 -1.758630
  S     7.090252  5.835531 -6.157007
  S     4.201048  6.312188 -3.232873
  S     6.663235  5.452662 -2.022018
  S     7.159203  9.516501 -6.051586
  S     4.194135  9.754854 -3.123203
  S     6.575828  8.914420 -1.901772
