16  
    
  C     5.671001  6.198164 -4.166367
  C     6.802165  5.583995 -3.566787
  C     5.893952  9.629536 -4.200063
  C     7.140898  9.131164 -3.656112
  N     7.787072  5.462795 -4.432026
  N     5.804158  6.490987 -5.466250
  N     5.058228  5.634771 -1.784277
  N     8.103376  8.912403 -4.549152
  N     5.899142  9.693838 -5.499570
  N     5.581755  9.628338 -1.670151
  S     7.300163  5.884865 -5.948037
  S     4.402983  6.448373 -3.072780
  S     6.729178  5.333666 -1.871783
  S     7.393815  9.185164 -6.034118
  S     4.638139  9.846553 -3.017387
  S     6.958784  8.787490 -1.916667
