16  
    
  C     5.600362  6.074137 -4.351742
  C     6.786419  5.634996 -3.661044
  C     5.332058  9.678062 -4.198979
  C     6.604938  9.293112 -3.622985
  N     7.785660  5.400172 -4.491706
  N     5.766479  6.316208 -5.627416
  N     4.949691  5.855290 -1.967716
  N     7.683063  9.248234 -4.468065
  N     5.442777  9.836809 -5.528688
  N     4.904897  9.307490 -1.679163
  S     7.381807  5.939754 -5.999965
  S     4.186188  6.398164 -3.408946
  S     6.482965  5.284265 -1.993350
  S     7.028289  9.484378 -5.942550
  S     4.083205  9.839382 -3.080636
  S     6.548935  9.070130 -1.866012
