16  
    
  C     5.519922  5.959434 -4.756905
  C     6.729623  5.603920 -4.023024
  C     5.615957  9.829166 -4.311986
  C     6.756679  9.214255 -3.727736
  N     7.818935  5.622199 -4.786240
  N     5.704800  6.203036 -6.041459
  N     4.886842  5.683745 -2.255262
  N     7.746750  9.081753 -4.616821
  N     5.772806 10.213902 -5.585724
  N     4.851273  9.215306 -1.956614
  S     7.305083  5.884582 -6.303478
  S     4.201972  6.037820 -3.705199
  S     6.446308  5.361128 -2.294814
  S     7.298619  9.740881 -6.014165
  S     4.197476  9.782314 -3.387037
  S     6.494279  8.860468 -2.008110
