16  
    
  C     5.175226  6.264821 -4.490799
  C     6.374511  5.835145 -3.835224
  C     5.403769  9.485878 -4.060252
  C     6.686111  9.204564 -3.465398
  N     7.451405  5.647445 -4.635313
  N     5.332091  6.545095 -5.783886
  N     4.577914  5.896201 -2.081760
  N     7.720689  9.332014 -4.299044
  N     5.484919  9.734798 -5.363197
  N     4.848618  9.191491 -1.585472
  S     6.844742  6.136689 -6.200584
  S     3.865213  6.506847 -3.424544
  S     6.150607  5.500515 -2.195668
  S     7.077030  9.545538 -5.808120
  S     4.069801  9.492837 -2.982660
  S     6.540363  8.946459 -1.779659
