16  
    
  C     5.424570  6.587361 -4.548383
  C     6.510318  5.967211 -3.786405
  C     5.511150 10.114474 -4.319099
  C     6.719462  9.759718 -3.652549
  N     7.525607  5.566312 -4.519324
  N     5.664706  6.744288 -5.819711
  N     4.792545  6.478523 -2.023625
  N     7.772348  9.753587 -4.458004
  N     5.661576 10.302909 -5.657058
  N     4.911305  9.908389 -1.871550
  S     7.131980  6.087923 -6.128661
  S     4.058806  6.841317 -3.451245
  S     6.336128  5.823623 -2.116484
  S     7.289290 10.009578 -6.000226
  S     4.092575 10.222151 -3.268484
  S     6.559754  9.449145 -2.000724
