16  
    
  C     5.185014  5.220303 -4.038922
  C     6.415425  4.852161 -3.372102
  C     5.311985  9.329835 -4.218383
  C     6.591053  9.049615 -3.620164
  N     7.474006  4.700143 -4.173715
  N     5.259855  5.415821 -5.346222
  N     4.563297  5.087163 -1.582196
  N     7.652756  8.908653 -4.395595
  N     5.392186  9.419727 -5.551393
  N     4.846238  9.347605 -1.745382
  S     6.841682  5.068460 -5.717109
  S     3.806058  5.405379 -3.002459
  S     6.143252  4.716925 -1.681564
  S     7.034127  9.089788 -5.939405
  S     4.030971  9.645230 -3.164141
  S     6.440721  8.940117 -1.921867
