16  
    
  C     5.635260  5.691428 -4.430401
  C     6.970164  5.404021 -3.834135
  C     5.203278  9.634423 -4.332071
  C     6.440574  9.112930 -3.751777
  N     7.948377  5.218883 -4.738946
  N     5.645108  5.751369 -5.765428
  N     5.260822  5.705049 -1.902676
  N     7.400413  8.835424 -4.638225
  N     5.242679  9.776415 -5.628876
  N     4.709689  9.515563 -1.880854
  S     7.201565  5.500364 -6.229585
  S     4.360061  5.873551 -3.261146
  S     6.815640  5.211031 -2.082556
  S     6.786441  9.284233 -6.124901
  S     3.942164 10.153631 -3.225278
  S     6.363914  9.145414 -2.045981
