16  
    
  C     5.357068  6.062252 -4.397254
  C     6.579894  5.797813 -3.785963
  C     5.479370  9.728262 -4.407940
  C     6.655928  9.224163 -3.710342
  N     7.637784  5.559385 -4.606857
  N     5.413983  6.225751 -5.735283
  N     4.842419  5.984105 -1.844717
  N     7.708627  9.084302 -4.482949
  N     5.662391  9.874072 -5.696521
  N     4.800471  9.360201 -1.894212
  S     6.957795  5.923691 -6.106242
  S     4.036409  6.260998 -3.266560
  S     6.450653  5.679016 -2.016984
  S     7.231570  9.434126 -6.075469
  S     4.064590  9.956837 -3.291124
  S     6.462976  9.086145 -1.991966
