16  
    
  C     5.629104  5.899116 -4.094196
  C     6.635736  5.047632 -3.580499
  C     5.698595  9.497023 -4.578221
  C     6.801647  8.818047 -3.928674
  N     7.558094  4.605541 -4.448871
  N     5.755932  6.166792 -5.399401
  N     5.084676  5.712316 -1.552400
  N     7.800184  8.519574 -4.755673
  N     5.879876  9.819644 -5.849418
  N     5.223667  9.453827 -2.008001
  S     7.126606  5.381243 -5.866708
  S     4.477934  6.388513 -2.952182
  S     6.345659  4.706823 -1.880607
  S     7.455003  9.156696 -6.235657
  S     4.393558  9.804753 -3.400902
  S     6.674271  8.671369 -2.229380
