16  
    
  C     5.386263  6.080096 -4.435028
  C     6.564658  5.595889 -3.694689
  C     5.659900  9.574930 -4.222477
  C     6.802829  9.073965 -3.553954
  N     7.595093  5.409252 -4.440283
  N     5.562603  6.246824 -5.727230
  N     4.716426  5.902704 -2.007675
  N     7.817120  8.874023 -4.410498
  N     5.783888  9.828206 -5.514272
  N     4.879338  9.407027 -1.794589
  S     7.093135  5.837432 -6.077599
  S     4.036346  6.457457 -3.411341
  S     6.328713  5.428780 -1.992982
  S     7.350907  9.413000 -5.923659
  S     4.197449  9.762066 -3.238440
  S     6.532001  8.907063 -1.853225
