16  
    
  C     5.720923  5.596435 -4.260622
  C     6.943736  5.289203 -3.583660
  C     5.143212  9.883569 -4.637027
  C     6.251119  9.304547 -3.956039
  N     8.009240  5.000209 -4.326549
  N     5.877235  5.667592 -5.608207
  N     5.189466  5.657203 -1.807609
  N     7.315489  8.971857 -4.690609
  N     5.362450  9.979441 -5.925540
  N     4.474402  9.776293 -2.124354
  S     7.414752  5.274937 -5.984643
  S     4.350241  5.756104 -3.240624
  S     6.792758  5.233780 -1.846897
  S     6.913111  9.315661 -6.274876
  S     3.770947 10.217674 -3.604572
  S     6.045920  9.150609 -2.249081
