16  
    
  C     5.610549  5.651521 -4.241133
  C     6.931896  5.214016 -3.692004
  C     5.553338  9.397310 -4.461444
  C     6.627644  8.706441 -3.788099
  N     7.932070  5.140844 -4.587258
  N     5.662208  5.914780 -5.547022
  N     5.274724  5.212586 -1.675985
  N     7.686626  8.467220 -4.541526
  N     5.808227  9.836817 -5.701849
  N     4.732158  9.023245 -2.027212
  S     7.223311  5.508784 -6.013577
  S     4.367457  5.551833 -2.999756
  S     6.933521  4.959402 -1.962646
  S     7.301776  9.227695 -6.060774
  S     4.139865  9.574404 -3.450614
  S     6.300421  8.415701 -2.132274
