16  
    
  C     5.383776  6.063434 -4.597619
  C     6.648222  5.607495 -4.054658
  C     5.734076  9.420045 -4.135826
  C     6.990306  9.060421 -3.579591
  N     7.714917  5.625328 -4.831004
  N     5.490107  6.385403 -5.837659
  N     5.068784  5.717090 -2.061442
  N     7.977888  8.924779 -4.429726
  N     5.812177  9.631843 -5.454860
  N     5.257316  8.935808 -1.652518
  S     7.042919  6.190871 -6.331595
  S     4.133462  6.005546 -3.423526
  S     6.659747  5.463135 -2.362660
  S     7.385574  9.335049 -5.899267
  S     4.471067  9.511272 -3.011666
  S     6.904499  8.726871 -1.862079
