16  
    
  C     5.466300  5.904434 -4.284260
  C     6.589737  5.252159 -3.683571
  C     5.640779  9.988302 -4.565297
  C     6.655885  9.254851 -3.860913
  N     7.591506  4.898060 -4.505499
  N     5.655350  6.225691 -5.582596
  N     4.863716  5.636331 -1.757510
  N     7.749304  9.091708 -4.583156
  N     5.909507 10.263607 -5.841848
  N     4.690566  9.094103 -2.302002
  S     7.095983  5.457287 -5.970769
  S     4.154505  6.200249 -3.143182
  S     6.359278  4.876674 -1.944428
  S     7.422488  9.716576 -6.085050
  S     4.189414 10.008667 -3.557869
  S     6.293176  8.627613 -2.311253
