16  
    
  C     5.809182  5.669765 -4.415542
  C     6.983725  5.060076 -3.656105
  C     5.566192  9.531071 -4.279724
  C     6.785811  8.995770 -3.701483
  N     8.064181  4.968316 -4.414588
  N     6.071692  6.024342 -5.672791
  N     5.070144  5.324582 -1.916448
  N     7.886767  8.970418 -4.448886
  N     5.756829  9.861468 -5.556903
  N     4.885495  8.725475 -1.942051
  S     7.659764  5.583359 -5.913719
  S     4.403596  5.814332 -3.349466
  S     6.631530  4.639078 -2.014578
  S     7.345587  9.414260 -5.958025
  S     4.204262  9.513274 -3.210361
  S     6.474904  8.253000 -2.146646
