16  
    
  C     5.436257  6.587062 -4.534766
  C     6.523611  5.985506 -3.775995
  C     5.511262 10.151897 -4.336677
  C     6.737276  9.749741 -3.649015
  N     7.517123  5.566303 -4.562941
  N     5.668971  6.766374 -5.818847
  N     4.819176  6.507646 -2.021167
  N     7.791555  9.698494 -4.456228
  N     5.662834 10.298663 -5.684566
  N     4.892599  9.909810 -1.886941
  S     7.132667  6.095462 -6.135301
  S     4.085921  6.846660 -3.458351
  S     6.342014  5.845690 -2.120888
  S     7.307060  9.989767 -6.007546
  S     4.103738 10.236131 -3.270200
  S     6.544041  9.466167 -2.018673
