16  
    
  C     5.534538  5.080482 -4.188572
  C     6.860915  5.089313 -3.673382
  C     5.379743  9.185002 -4.542486
  C     6.567538  8.759412 -3.843170
  N     7.824726  5.133116 -4.608951
  N     5.449900  5.212345 -5.516067
  N     5.189682  5.230634 -1.654165
  N     7.597907  8.435790 -4.621359
  N     5.577358  9.318761 -5.843199
  N     4.808338  9.089431 -2.014590
  S     7.051209  5.106104 -6.043482
  S     4.229129  5.228165 -3.038493
  S     6.851702  5.051747 -1.883528
  S     7.167322  8.921904 -6.146092
  S     4.082302  9.555002 -3.427277
  S     6.404501  8.743715 -2.129176
