16  
    
  C     5.446171  5.621884 -4.452653
  C     6.648009  5.331520 -3.676515
  C     5.638516  8.997722 -4.109073
  C     6.948589  8.856174 -3.534184
  N     7.730256  5.057954 -4.410172
  N     5.640982  5.541832 -5.780508
  N     4.683163  5.564239 -1.930544
  N     7.935540  8.675907 -4.434494
  N     5.639791  8.936202 -5.423583
  N     5.175149  9.359998 -1.660686
  S     7.203244  5.230991 -6.035153
  S     4.031814  6.013944 -3.386633
  S     6.324310  5.283835 -1.978821
  S     7.188094  8.722198 -5.905339
  S     4.306116  9.305008 -3.049406
  S     6.799215  9.100076 -1.757513
