16  
    
  C     5.328723  6.367671 -4.311696
  C     6.481134  5.777061 -3.731858
  C     5.521569  9.629679 -4.482677
  C     6.734884  9.265818 -3.748810
  N     7.453430  5.461693 -4.604889
  N     5.377950  6.356441 -5.646781
  N     4.705788  6.018574 -1.868125
  N     7.808441  9.135427 -4.485880
  N     5.730790  9.836979 -5.760544
  N     4.892148  9.636504 -1.922939
  S     6.876215  5.869362 -6.090745
  S     4.020351  6.669505 -3.231256
  S     6.268701  5.579097 -2.027253
  S     7.319006  9.445872 -6.096742
  S     4.094908  9.740900 -3.354398
  S     6.409443  8.994440 -2.098453
