16  
    
  C     5.505562  5.866629 -4.293114
  C     6.664530  5.236587 -3.599626
  C     5.928118  9.179065 -3.963754
  C     7.163554  8.753073 -3.373044
  N     7.610378  4.821169 -4.438471
  N     5.679475  6.049229 -5.587497
  N     4.925137  5.801466 -1.794898
  N     8.122762  8.640309 -4.277215
  N     5.957191  9.513878 -5.252497
  N     5.458928  8.786689 -1.465229
  S     7.225513  5.472623 -5.915735
  S     4.161565  6.149925 -3.233502
  S     6.489559  5.189677 -1.860610
  S     7.531303  9.126281 -5.738900
  S     4.624279  8.997128 -2.903619
  S     7.087180  8.417138 -1.654840
