16  
    
  C     5.513899  5.151031 -4.175065
  C     6.904109  5.099844 -3.681465
  C     5.421689  9.216878 -4.538756
  C     6.578382  8.758864 -3.816142
  N     7.864435  5.148918 -4.604131
  N     5.480343  5.129380 -5.491507
  N     5.235695  5.213152 -1.676673
  N     7.647422  8.504760 -4.535668
  N     5.586978  9.309164 -5.863849
  N     4.807319  9.101396 -2.043195
  S     7.012121  5.106764 -6.085672
  S     4.238365  5.269550 -3.059413
  S     6.858873  5.031198 -1.911485
  S     7.189935  8.928082 -6.127320
  S     4.077258  9.568075 -3.460990
  S     6.393364  8.730506 -2.147196
