16  
    
  C     5.390009  6.014163 -4.236219
  C     6.605189  5.505799 -3.700591
  C     5.547462  9.599819 -4.441786
  C     6.722813  9.232539 -3.724513
  N     7.655757  5.373116 -4.543819
  N     5.421773  6.241475 -5.566884
  N     5.000234  5.700240 -1.683037
  N     7.755788  8.945930 -4.511471
  N     5.710673  9.723309 -5.748852
  N     5.012850  9.675991 -1.876355
  S     6.994172  5.913283 -5.953883
  S     4.111522  6.076797 -3.038415
  S     6.591851  5.341228 -1.908109
  S     7.224866  9.217825 -6.049625
  S     4.153984  9.750928 -3.307829
  S     6.625649  9.164143 -2.077408
