16  
    
  C     5.517483  5.691871 -4.082516
  C     6.764410  5.224876 -3.520727
  C     5.462323  8.896628 -4.107425
  C     6.755700  8.803282 -3.508163
  N     7.759838  5.148208 -4.375128
  N     5.568722  5.868630 -5.384632
  N     5.081060  5.482027 -1.541661
  N     7.748995  8.658907 -4.389874
  N     5.541309  8.830907 -5.456083
  N     5.112202  9.134229 -1.578956
  S     7.103898  5.484971 -5.838781
  S     4.309629  6.027349 -2.907096
  S     6.618538  4.994243 -1.836072
  S     7.131630  8.654993 -5.861638
  S     4.149758  9.034439 -2.906945
  S     6.714351  8.690209 -1.792945
