16  
    
  C     5.775310  5.913764 -4.177166
  C     6.993166  5.293604 -3.751477
  C     5.780493  9.234196 -4.030947
  C     7.084931  8.896849 -3.474339
  N     7.869382  5.035648 -4.754395
  N     5.737884  6.274280 -5.445293
  N     5.280716  5.236187 -1.770058
  N     8.066792  8.849851 -4.396701
  N     5.745876  9.478596 -5.326741
  N     5.334375  8.784368 -1.516156
  S     7.238162  5.836517 -6.131234
  S     4.497285  5.914116 -3.045839
  S     6.822226  4.802595 -2.080034
  S     7.352992  9.129127 -5.902356
  S     4.442600  9.231327 -2.828055
  S     6.900798  8.371794 -1.828999
