16  
    
  C     5.277919  6.267108 -4.325499
  C     6.408728  5.694118 -3.598936
  C     5.515736  9.742405 -4.282612
  C     6.643007  9.133037 -3.519471
  N     7.409415  5.373898 -4.392537
  N     5.541853  6.401388 -5.608052
  N     4.602051  5.881465 -1.877738
  N     7.636007  8.840633 -4.318685
  N     5.681673  9.859971 -5.618582
  N     5.043525  9.718229 -1.626344
  S     7.060286  5.734362 -5.948995
  S     3.927811  6.568110 -3.295475
  S     6.198573  5.554228 -1.887910
  S     7.255434  9.280769 -5.830934
  S     4.165062 10.018582 -3.109726
  S     6.456330  8.941474 -1.829804
