16  
    
  C     5.578778  5.539959 -4.334416
  C     6.755485  5.378208 -3.587669
  C     5.662379  9.377823 -4.233736
  C     6.928117  9.221945 -3.581806
  N     7.854306  5.223385 -4.341667
  N     5.690193  5.482684 -5.674998
  N     4.927589  5.744004 -1.810912
  N     7.963642  9.324394 -4.393070
  N     5.808447  9.477443 -5.569570
  N     5.197497  8.932862 -1.714598
  S     7.317271  5.392747 -5.906439
  S     4.263326  5.782760 -3.304267
  S     6.543481  5.438693 -1.839381
  S     7.415534  9.419839 -5.897058
  S     4.322072  9.228327 -3.157742
  S     6.824453  8.755085 -1.897615
