16  
    
  C     5.492344  5.885094 -4.449181
  C     6.654262  5.287402 -3.747666
  C     5.480326  9.457244 -4.110424
  C     6.722905  8.934402 -3.602009
  N     7.714416  5.030879 -4.526373
  N     5.715168  6.172359 -5.748580
  N     4.751135  5.725742 -1.990766
  N     7.647894  8.733827 -4.562202
  N     5.469751  9.659453 -5.419808
  N     5.001663  9.185561 -1.646525
  S     7.215423  5.592238 -6.064044
  S     4.149291  6.146846 -3.451111
  S     6.334343  5.114734 -2.072431
  S     6.969581  9.315343 -6.010780
  S     4.245943  9.649590 -2.986715
  S     6.686793  8.789612 -1.817526
