16  
    
  C     5.526789  5.836857 -4.411745
  C     6.610147  5.164934 -3.696824
  C     5.693470  9.161110 -4.273561
  C     6.939529  8.838596 -3.596736
  N     7.710890  4.919466 -4.427374
  N     5.813636  6.206714 -5.665099
  N     4.753922  5.661102 -1.923093
  N     7.959438  8.758661 -4.411420
  N     5.825000  9.490351 -5.568825
  N     5.229996  8.900699 -1.750837
  S     7.274878  5.482727 -5.949996
  S     4.032308  5.962114 -3.389163
  S     6.274810  5.017095 -1.950647
  S     7.405949  9.187981 -5.892343
  S     4.370841  9.153614 -3.129042
  S     6.907494  8.679552 -1.878484
