16  
    
  C     5.548856  6.060177 -4.376784
  C     6.649181  5.402419 -3.704539
  C     5.823997  9.806124 -4.251845
  C     7.020013  9.376801 -3.566056
  N     7.602512  4.947237 -4.517238
  N     5.746097  6.225808 -5.704765
  N     4.906478  6.048082 -1.871854
  N     7.997335  8.966036 -4.354062
  N     5.953224  9.758595 -5.549754
  N     5.177321  9.298865 -1.751033
  S     7.199476  5.462807 -6.033661
  S     4.211345  6.447264 -3.297627
  S     6.458360  5.425459 -1.936293
  S     7.420171  9.232755 -5.911628
  S     4.407175  9.873004 -3.140020
  S     6.812212  9.089486 -1.915027
