16  
    
  C     5.724608  6.256557 -4.183524
  C     6.895328  5.637218 -3.664940
  C     5.862065  9.549013 -4.199790
  C     7.052660  8.961036 -3.655749
  N     7.819785  5.396433 -4.580965
  N     5.790154  6.527904 -5.452608
  N     5.145270  5.699196 -1.748419
  N     7.987388  8.709622 -4.560666
  N     5.871257  9.737674 -5.532576
  N     5.482372  9.324875 -1.686876
  S     7.298982  6.045588 -6.022062
  S     4.358470  6.248064 -3.074338
  S     6.725590  5.280147 -2.014226
  S     7.411626  9.149345 -6.028676
  S     4.610599  9.714940 -3.067242
  S     7.036135  8.800638 -1.886802
