16  
    
  C     5.447796  5.969574 -4.366154
  C     6.703914  5.514302 -3.662560
  C     5.288470  9.558945 -4.382506
  C     6.552534  9.252253 -3.761327
  N     7.794887  5.595353 -4.445206
  N     5.606160  6.289829 -5.663677
  N     4.844286  5.432178 -1.884329
  N     7.581949  9.126479 -4.583813
  N     5.355851  9.675510 -5.702118
  N     4.945067  9.395359 -1.790369
  S     7.174964  6.057990 -5.949422
  S     4.104916  6.012265 -3.250364
  S     6.453806  5.143199 -2.032889
  S     6.988395  9.427166 -6.109294
  S     4.053837  9.672628 -3.176817
  S     6.560575  8.963879 -2.066759
