16  
    
  C     5.588019  5.875528 -4.340921
  C     6.798662  5.506802 -3.683239
  C     5.779506  9.460046 -4.470467
  C     6.965955  9.080814 -3.750623
  N     7.843484  5.382303 -4.541898
  N     5.706197  6.038807 -5.685945
  N     4.997924  5.656500 -1.813704
  N     8.084439  8.984809 -4.507754
  N     5.916728  9.718229 -5.751319
  N     5.175967  9.322023 -1.905962
  S     7.306901  5.721930 -6.034460
  S     4.241050  6.113840 -3.247624
  S     6.602064  5.289171 -1.954760
  S     7.508322  9.305432 -6.083979
  S     4.411556  9.509328 -3.419108
  S     6.764016  9.103172 -2.019922
