16  
    
  C     5.828368  5.546669 -4.151343
  C     7.102036  5.201147 -3.635506
  C     5.443053  9.310380 -4.368591
  C     6.535015  8.664145 -3.653349
  N     8.123529  5.096280 -4.486147
  N     5.841539  5.739546 -5.465450
  N     5.438798  5.207293 -1.612326
  N     7.522591  8.323073 -4.427793
  N     5.612567  9.460279 -5.682548
  N     4.753705  9.105419 -1.909576
  S     7.439777  5.499145 -5.971440
  S     4.569333  5.603156 -2.958517
  S     7.076204  4.905475 -1.894518
  S     7.168327  8.737904 -5.972478
  S     4.171663  9.901770 -3.302906
  S     6.366366  8.601338 -1.945108
