16  
    
  C     5.833519  5.778907 -4.515039
  C     6.988235  5.398309 -3.782806
  C     5.462972  9.568698 -4.355007
  C     6.748667  9.255208 -3.734648
  N     8.072947  5.192625 -4.551247
  N     5.971463  5.791889 -5.840746
  N     5.226042  6.002137 -1.985000
  N     7.742993  9.251405 -4.576555
  N     5.525969  9.890211 -5.638498
  N     5.107548  9.034782 -1.798124
  S     7.590243  5.464097 -6.138717
  S     4.501696  6.183448 -3.482127
  S     6.753513  5.282372 -2.021281
  S     7.197279  9.595045 -6.068449
  S     4.216788  9.436371 -3.146242
  S     6.752092  8.869483 -2.008820
