16  
    
  C     5.473899  5.891007 -4.541485
  C     6.714074  5.547888 -3.832315
  C     5.605948  9.325623 -4.177781
  C     6.870548  8.995852 -3.523692
  N     7.772488  5.400281 -4.628481
  N     5.560348  5.878570 -5.884524
  N     4.877813  5.777749 -1.954088
  N     7.909799  8.912786 -4.349982
  N     5.672003  9.394061 -5.474552
  N     5.140384  9.440416 -1.662418
  S     7.163016  5.516881 -6.187691
  S     4.191375  6.267158 -3.388990
  S     6.524657  5.358519 -2.074403
  S     7.331552  9.329411 -5.831439
  S     4.292656  9.599548 -3.088774
  S     6.683364  8.850051 -1.801302
