16  
    
  C     5.691322  6.233159 -4.187988
  C     6.870613  5.609267 -3.683294
  C     5.846135  9.511463 -4.237126
  C     7.010541  8.915541 -3.631071
  N     7.802504  5.428289 -4.593153
  N     5.780395  6.523635 -5.461857
  N     5.149297  5.719055 -1.751699
  N     7.968599  8.706287 -4.550786
  N     5.901528  9.743141 -5.564043
  N     5.477204  9.269508 -1.709947
  S     7.294561  6.056728 -6.033425
  S     4.372035  6.226318 -3.095486
  S     6.739062  5.256591 -2.020721
  S     7.408558  9.160695 -6.016628
  S     4.595839  9.700081 -3.066590
  S     7.050895  8.806484 -1.882064
