16  
    
  C     5.651592  6.100819 -4.195264
  C     6.849458  5.567085 -3.580709
  C     5.790278  9.535086 -4.283154
  C     7.011447  9.103581 -3.637377
  N     7.884616  5.310919 -4.423839
  N     5.720193  6.232065 -5.537095
  N     5.007233  5.780112 -1.727039
  N     8.050050  8.980966 -4.459355
  N     5.911989  9.705903 -5.593886
  N     5.550255  9.706841 -1.673095
  S     7.272800  5.828915 -5.884180
  S     4.399258  6.585733 -3.036075
  S     6.594225  5.335623 -1.863828
  S     7.455805  9.309205 -5.985941
  S     4.638021  9.962936 -3.029903
  S     7.020892  8.860726 -1.918621
