16  
    
  C     5.503544  5.296155 -3.885274
  C     6.766760  5.000699 -3.171358
  C     5.369205  9.354707 -4.184765
  C     6.489364  8.709738 -3.495161
  N     7.831565  4.820809 -3.987449
  N     5.601178  5.358123 -5.224101
  N     4.903769  5.089303 -1.431448
  N     7.532616  8.480637 -4.248550
  N     5.609698  9.682277 -5.454834
  N     4.669262  9.144393 -1.701375
  S     7.230646  5.225553 -5.538107
  S     4.144676  5.314136 -2.874791
  S     6.603623  4.869795 -1.416763
  S     7.170731  9.141188 -5.786210
  S     4.014174  9.691890 -3.136235
  S     6.288532  8.705501 -1.735989
