16  
    
  C     5.867623  5.474525 -4.054911
  C     7.136221  5.104939 -3.548725
  C     5.501179  9.359149 -4.311213
  C     6.592529  8.739765 -3.599935
  N     8.155484  5.124223 -4.424026
  N     5.875238  5.779597 -5.347150
  N     5.457282  5.207279 -1.536024
  N     7.609273  8.366197 -4.343548
  N     5.693309  9.388156 -5.634921
  N     4.710256  9.133933 -1.842160
  S     7.371785  5.428827 -5.888497
  S     4.599187  5.580267 -2.915180
  S     7.026803  4.901420 -1.789045
  S     7.144186  8.800721 -5.926227
  S     4.189280  9.867737 -3.222023
  S     6.244323  8.511444 -1.918491
