16  
    
  C     5.353091  5.693352 -4.503881
  C     6.498445  5.235475 -3.771804
  C     5.326354  9.441993 -4.389353
  C     6.516111  8.963342 -3.680576
  N     7.574472  5.041222 -4.539758
  N     5.606340  5.828355 -5.801827
  N     4.652719  5.751400 -2.041939
  N     7.451368  8.731254 -4.561565
  N     5.337183  9.598514 -5.696460
  N     4.755799  9.468405 -1.859908
  S     7.214427  5.513264 -6.093883
  S     4.040085  6.171559 -3.549488
  S     6.252799  5.290907 -2.049413
  S     6.935356  9.099517 -6.088485
  S     3.978976  9.685336 -3.333645
  S     6.357700  8.877068 -1.914409
