16  
    
  C     5.527035  5.673808 -4.323840
  C     6.703881  5.079554 -3.691089
  C     5.522333  9.236898 -4.390530
  C     6.703838  8.797580 -3.706084
  N     7.698251  4.811419 -4.553236
  N     5.694837  5.968670 -5.604191
  N     4.993778  5.517208 -1.798379
  N     7.774128  8.650176 -4.480967
  N     5.662562  9.443986 -5.699905
  N     5.082232  9.157506 -1.813812
  S     7.240599  5.370753 -6.048371
  S     4.238335  6.020080 -3.205607
  S     6.556620  5.016951 -1.884882
  S     7.296188  9.096711 -6.018784
  S     4.247390  9.511313 -3.205674
  S     6.606782  8.607886 -2.030926
