16  
    
  C     5.352318  6.015667 -4.350947
  C     6.516686  5.505359 -3.763015
  C     5.443049  9.153354 -4.252806
  C     6.704152  8.862520 -3.621919
  N     7.514939  5.257288 -4.586373
  N     5.476035  6.267216 -5.657974
  N     4.759059  5.521853 -1.990990
  N     7.769982  8.862604 -4.457328
  N     5.495768  9.359368 -5.566589
  N     4.983332  9.289145 -1.732717
  S     6.973637  5.822801 -6.106687
  S     3.987367  6.217731 -3.348577
  S     6.408800  5.247621 -2.040521
  S     7.058165  9.023163 -6.011166
  S     4.100168  9.283138 -3.195399
  S     6.505677  8.746170 -1.852575
