16  
    
  C     5.684524  5.823756 -4.309594
  C     6.869100  5.316642 -3.779768
  C     5.625937  9.713021 -4.585534
  C     6.825498  9.285470 -3.912050
  N     7.791876  5.042831 -4.686594
  N     5.711256  6.007794 -5.622754
  N     5.223987  5.575529 -1.796664
  N     7.952889  9.254352 -4.672703
  N     5.809179 10.046412 -5.850515
  N     4.905109  9.029211 -2.180256
  S     7.223967  5.548570 -6.140821
  S     4.378669  5.958881 -3.146468
  S     6.766234  4.978521 -2.105866
  S     7.421810  9.774396 -6.181238
  S     4.185107  9.507110 -3.643738
  S     6.584813  8.919310 -2.222004
