16  
    
  C     5.588475  5.227387 -4.221376
  C     6.902550  5.145449 -3.660592
  C     5.426741  9.258861 -4.534208
  C     6.603882  8.780298 -3.833042
  N     7.842721  5.122427 -4.598154
  N     5.483250  5.048521 -5.536626
  N     5.225956  5.209296 -1.709229
  N     7.728788  8.624514 -4.546962
  N     5.633623  9.329268 -5.836095
  N     4.758252  9.130872 -2.060724
  S     6.995606  5.107458 -6.104627
  S     4.289853  5.308931 -3.045815
  S     6.863709  5.005248 -1.959396
  S     7.224141  8.917227 -6.097337
  S     4.082316  9.585900 -3.506215
  S     6.389265  8.696370 -2.113841
