16  
    
  C     5.192150  6.260479 -4.283485
  C     6.371833  5.764940 -3.578163
  C     5.695541  9.602932 -4.088993
  C     6.860072  8.992556 -3.490877
  N     7.386031  5.433213 -4.401224
  N     5.398444  6.271976 -5.602086
  N     4.467421  6.009921 -1.872442
  N     7.760343  8.615855 -4.364532
  N     5.746584  9.789023 -5.391456
  N     5.225528  9.472957 -1.568208
  S     6.932821  5.783747 -5.912954
  S     3.832527  6.494324 -3.294894
  S     6.081262  5.610286 -1.915065
  S     7.140085  9.094531 -5.885485
  S     4.397102  9.878992 -2.942725
  S     6.739867  8.957251 -1.797154
