16  
    
  C     5.539755  5.328967 -4.167306
  C     6.821973  5.138058 -3.504408
  C     5.362593  9.221834 -4.375756
  C     6.578215  8.739533 -3.768483
  N     7.849374  4.965276 -4.359013
  N     5.627272  5.341865 -5.497383
  N     4.949168  5.219421 -1.655627
  N     7.531667  8.497176 -4.672839
  N     5.420253  9.358005 -5.692156
  N     4.898589  9.034928 -1.839620
  S     7.237625  5.139438 -5.846570
  S     4.233017  5.472354 -3.105283
  S     6.591505  4.909511 -1.747654
  S     6.927083  8.799958 -6.136608
  S     4.167293  9.721786 -3.144398
  S     6.464598  8.498517 -2.051269
