16  
    
  C     5.571317  5.869072 -4.531049
  C     6.802688  5.494536 -3.826385
  C     5.612740  9.690286 -4.273625
  C     6.815365  9.125775 -3.705191
  N     7.838279  5.331989 -4.694355
  N     5.719180  6.021430 -5.846501
  N     4.930940  5.644162 -1.977150
  N     7.814697  9.207608 -4.585642
  N     5.624826 10.081741 -5.542893
  N     5.031197  9.189044 -1.798723
  S     7.324014  5.693191 -6.172610
  S     4.270942  6.205812 -3.445941
  S     6.487082  5.111217 -2.121585
  S     7.146232  9.701863 -6.025549
  S     4.297426  9.937306 -3.208740
  S     6.572973  8.807699 -2.011990
