16  
    
  C     5.621030  5.740586 -4.326346
  C     6.891550  5.192163 -3.801225
  C     5.681075  9.864754 -4.503551
  C     6.903896  9.394648 -3.884866
  N     7.834894  5.032798 -4.721145
  N     5.746495  6.093072 -5.603990
  N     5.246733  5.508345 -1.775752
  N     7.951983  9.284362 -4.693494
  N     5.833641 10.135432 -5.807558
  N     4.935916  8.976046 -2.211256
  S     7.219180  5.600099 -6.156462
  S     4.339934  5.948452 -3.143095
  S     6.819821  4.939964 -2.089237
  S     7.438167  9.750439 -6.149377
  S     4.248975  9.520668 -3.607858
  S     6.590463  8.888315 -2.232896
