16  
    
  C     5.541820  5.783730 -4.547661
  C     6.756404  5.545460 -3.875174
  C     5.138328  9.423399 -4.479458
  C     6.296598  9.057841 -3.689953
  N     7.853678  5.494359 -4.640445
  N     5.644717  5.875047 -5.880132
  N     4.888284  5.603315 -2.046246
  N     7.349032  8.761571 -4.466052
  N     5.271482  9.345870 -5.792328
  N     4.581434 10.023166 -2.026994
  S     7.268370  5.653169 -6.168040
  S     4.137901  5.950579 -3.485461
  S     6.559305  5.343191 -2.119943
  S     6.828718  9.038909 -6.074733
  S     3.881294 10.208089 -3.514154
  S     6.114325  9.279090 -1.946716
