16  
    
  C     5.392748  5.645733 -4.361964
  C     6.500301  4.986695 -3.672253
  C     5.466257  9.192690 -4.345366
  C     6.574728  8.476565 -3.791857
  N     7.536136  4.687710 -4.459573
  N     5.541528  5.711165 -5.674601
  N     4.599655  5.147238 -1.949105
  N     7.644049  8.283362 -4.582326
  N     5.697963  9.529795 -5.605759
  N     4.871019  8.844782 -1.862478
  S     7.053818  5.259044 -5.999291
  S     3.960882  5.960606 -3.307348
  S     6.212134  4.779672 -1.994202
  S     7.209049  8.920841 -6.006023
  S     4.121624  9.351471 -3.269776
  S     6.437548  8.254776 -2.089376
