16  
    
  C     5.712232  5.358512 -3.927766
  C     6.937838  5.008809 -3.308809
  C     5.423341  9.397990 -4.182252
  C     6.498381  8.708099 -3.516198
  N     8.015074  4.992208 -4.062694
  N     5.776342  5.567802 -5.233088
  N     5.138338  5.103266 -1.377175
  N     7.601496  8.456278 -4.246435
  N     5.629871  9.610083 -5.466397
  N     4.788301  9.328123 -1.715052
  S     7.367025  5.210005 -5.626131
  S     4.362011  5.420812 -2.776552
  S     6.797570  4.903449 -1.601253
  S     7.239619  9.034638 -5.762566
  S     4.065314  9.722408 -3.164274
  S     6.236695  8.508988 -1.840154
