16  
    
  C     5.566759  5.586358 -4.550418
  C     6.859695  5.444281 -3.965200
  C     5.377363  9.691585 -4.216108
  C     6.584959  9.270602 -3.586882
  N     7.882425  5.613212 -4.771545
  N     5.569315  5.923416 -5.804583
  N     5.108156  5.426660 -2.004633
  N     7.625655  9.163511 -4.415624
  N     5.523772  9.970631 -5.534304
  N     4.931693  9.199357 -1.702150
  S     7.158158  5.862285 -6.269906
  S     4.300009  5.450269 -3.486570
  S     6.734856  5.202285 -2.224319
  S     7.079422  9.643289 -5.897002
  S     4.079626  9.674800 -3.058797
  S     6.553612  8.959728 -1.907691
