16  
    
  C     5.525208  5.989283 -4.482951
  C     6.589974  5.428696 -3.659577
  C     5.783919  9.376934 -4.308215
  C     7.042479  9.013526 -3.659275
  N     7.686760  5.130768 -4.366164
  N     5.785011  6.159915 -5.792924
  N     4.634480  5.610890 -2.085546
  N     8.093533  8.946109 -4.442734
  N     5.882891  9.658347 -5.595452
  N     5.187239  9.023692 -1.844947
  S     7.420183  5.711912 -5.932196
  S     4.137003  6.146025 -3.565979
  S     6.220595  5.237977 -2.026297
  S     7.463300  9.428770 -6.010577
  S     4.429576  9.433933 -3.281759
  S     6.845368  8.831071 -1.873453
