16  
    
  C     5.203736  5.262274 -3.997209
  C     6.427473  4.927866 -3.317173
  C     5.316546  9.371484 -4.270400
  C     6.561750  9.124348 -3.570406
  N     7.459763  4.691296 -4.111488
  N     5.280006  5.346595 -5.324809
  N     4.567216  5.129732 -1.542006
  N     7.622336  8.960200 -4.346421
  N     5.454839  9.420261 -5.584145
  N     4.788962  9.278563 -1.714824
  S     6.897126  5.114823 -5.639476
  S     3.842064  5.320653 -2.989581
  S     6.176556  4.714959 -1.646929
  S     7.008803  9.049018 -5.914821
  S     3.993460  9.653826 -3.120082
  S     6.425328  8.877219 -1.883432
