16  
    
  C     5.566527  6.265732 -4.626604
  C     6.517948  5.543351 -3.860479
  C     5.773039  9.496161 -4.388587
  C     6.985679  9.099189 -3.734985
  N     7.615279  5.253716 -4.513020
  N     5.936401  6.563272 -5.863304
  N     4.609418  5.877305 -2.162280
  N     8.021416  8.993742 -4.581219
  N     5.930198  9.696237 -5.703063
  N     5.135971  9.255104 -1.942346
  S     7.461235  5.949632 -5.952135
  S     4.159704  6.511619 -3.629192
  S     6.020430  5.027995 -2.277903
  S     7.515928  9.355327 -6.065438
  S     4.401400  9.577974 -3.356128
  S     6.738923  8.746405 -2.003321
