16  
    
  C     5.643121  5.469104 -4.268506
  C     6.900096  5.315675 -3.558914
  C     5.241579  9.912591 -4.597418
  C     6.359233  9.254664 -3.926092
  N     7.934403  5.274859 -4.410292
  N     5.678999  5.360478 -5.568505
  N     4.999628  5.522314 -1.764264
  N     7.303722  8.912764 -4.813831
  N     5.378594 10.105242 -5.936719
  N     4.557441  9.817543 -2.132277
  S     7.313369  5.305385 -5.911395
  S     4.223825  5.685685 -3.230805
  S     6.702242  5.357639 -1.798831
  S     6.854747  9.520154 -6.302287
  S     3.951217 10.429767 -3.579705
  S     6.099512  9.110078 -2.206928
