16  
    
  C     5.529226  5.850797 -4.064125
  C     6.770314  5.402506 -3.410936
  C     5.503681  8.882163 -4.095025
  C     6.761886  8.589867 -3.448539
  N     7.710330  5.114386 -4.318770
  N     5.584947  5.878406 -5.408465
  N     4.965967  5.513577 -1.606879
  N     7.763399  8.335990 -4.293850
  N     5.513386  8.913989 -5.416509
  N     5.109445  8.969136 -1.505953
  S     7.119592  5.446223 -5.822686
  S     4.190757  5.970983 -3.003618
  S     6.523356  4.865548 -1.759994
  S     7.082259  8.558464 -5.836067
  S     4.252348  9.074557 -2.940694
  S     6.741279  8.709667 -1.712320
