16  
    
  C     5.524178  5.881777 -4.330446
  C     6.724687  5.273280 -3.788439
  C     5.674705  9.232140 -4.426630
  C     6.867102  8.783311 -3.743170
  N     7.634568  5.010561 -4.715575
  N     5.467658  5.882109 -5.676535
  N     5.065239  5.500767 -1.768595
  N     7.945363  8.625824 -4.471967
  N     5.851659  9.319807 -5.746054
  N     5.116820  9.104727 -1.903740
  S     7.050938  5.406882 -6.193198
  S     4.313014  6.175073 -3.122825
  S     6.584514  4.941615 -2.092068
  S     7.457468  8.859953 -6.035287
  S     4.349485  9.414571 -3.327117
  S     6.717769  8.721933 -2.009121
