16  
    
  C     5.517584  6.081502 -4.345266
  C     6.693462  5.578658 -3.650124
  C     5.647069  9.375008 -4.473530
  C     6.872298  9.101991 -3.746895
  N     7.776555  5.312444 -4.415791
  N     5.662975  6.169769 -5.659970
  N     5.010932  5.947353 -1.756407
  N     7.947322  9.129132 -4.513220
  N     5.845192  9.576553 -5.811017
  N     5.058733  9.212121 -1.928704
  S     7.227609  5.706613 -6.032012
  S     4.201008  6.244166 -3.171164
  S     6.582041  5.516162 -1.964376
  S     7.460584  9.305992 -6.069263
  S     4.296820  9.652631 -3.400959
  S     6.613293  8.854942 -2.073915
