16  
    
  C     5.580766  5.993310 -4.261600
  C     6.707542  5.323257 -3.621436
  C     5.929956  9.148508 -3.990623
  C     7.211946  8.764024 -3.438493
  N     7.701192  5.080667 -4.454641
  N     5.786840  6.225512 -5.536075
  N     4.891904  5.637471 -1.819140
  N     8.240720  8.754909 -4.300852
  N     6.009689  9.359960 -5.302788
  N     5.455762  9.017192 -1.542967
  S     7.197654  5.500997 -5.974186
  S     4.227278  6.209317 -3.197550
  S     6.493016  5.199638 -1.970190
  S     7.531064  9.195389 -5.761588
  S     4.563448  9.147153 -2.917522
  S     7.033195  8.452361 -1.697655
