16  
    
  C     5.438334  6.277942 -4.436626
  C     6.669907  5.955651 -3.733064
  C     5.623815  9.776812 -4.366176
  C     6.876933  9.407247 -3.776078
  N     7.706568  5.775924 -4.510247
  N     5.624653  6.466587 -5.702446
  N     4.837053  6.312021 -1.905015
  N     7.933104  9.256458 -4.593308
  N     5.692731  9.885514 -5.677242
  N     4.966912  9.485101 -1.928270
  S     7.190981  6.079880 -6.089215
  S     4.141001  6.589746 -3.375547
  S     6.399025  5.804464 -2.020276
  S     7.268107  9.585887 -6.095785
  S     4.249983  9.793214 -3.311913
  S     6.635403  9.232130 -2.052316
