16  
    
  C     5.313681  5.789538 -4.454592
  C     6.531340  5.364265 -3.906417
  C     5.331754  9.599458 -4.547439
  C     6.482309  9.077939 -3.855624
  N     7.573884  5.219855 -4.726996
  N     5.347514  5.968607 -5.780344
  N     4.889815  5.734189 -1.913176
  N     7.499370  8.738977 -4.615954
  N     5.487490  9.562657 -5.862567
  N     4.821087  9.659809 -2.011271
  S     6.886447  5.599596 -6.214747
  S     4.036934  6.123008 -3.279627
  S     6.469768  5.261013 -2.171308
  S     7.039977  9.052768 -6.152258
  S     4.056061 10.089578 -3.488473
  S     6.381557  9.017059 -2.109405
