16  
    
  C     5.393010  6.033146 -4.452173
  C     6.591323  5.576983 -3.763759
  C     5.323853  9.543210 -4.285319
  C     6.579208  9.190926 -3.642481
  N     7.713718  5.482756 -4.498325
  N     5.566415  6.244550 -5.756766
  N     4.743930  5.518228 -1.949917
  N     7.611134  9.099533 -4.509781
  N     5.404233  9.823577 -5.607301
  N     4.809688  9.459839 -1.723944
  S     7.157441  5.994394 -6.028086
  S     3.999941  5.991073 -3.369226
  S     6.381645  5.313258 -1.997165
  S     6.976877  9.448291 -6.052229
  S     4.097973  9.690096 -3.189470
  S     6.463960  9.095400 -1.916237
