16  
    
  C     5.386098  5.726066 -4.531086
  C     6.532469  5.302420 -3.793867
  C     5.318376  9.458722 -4.364385
  C     6.548621  9.123428 -3.720472
  N     7.651259  5.121232 -4.497123
  N     5.543217  5.819634 -5.860800
  N     4.717753  5.781665 -2.031275
  N     7.560079  8.902403 -4.549764
  N     5.365341  9.488184 -5.674465
  N     4.795591  9.363741 -1.876006
  S     7.195016  5.552181 -6.052479
  S     4.027104  6.149083 -3.481788
  S     6.272904  5.248153 -2.001973
  S     6.837109  9.052620 -6.075808
  S     3.993222  9.698771 -3.284465
  S     6.376386  8.899116 -2.027409
