16  
    
  C     5.665227  5.411715 -4.167024
  C     6.885819  4.954140 -3.525027
  C     5.472225  9.395593 -4.675437
  C     6.620731  8.828556 -3.993526
  N     7.890697  4.680856 -4.348447
  N     5.772172  5.685630 -5.489653
  N     5.122365  5.064311 -1.640266
  N     7.648691  8.519296 -4.799852
  N     5.589049  9.512831 -5.998289
  N     4.821959  9.263492 -2.187820
  S     7.366468  5.278828 -5.798107
  S     4.276816  5.336722 -3.084232
  S     6.752901  4.832183 -1.742978
  S     7.080001  8.999366 -6.364146
  S     4.138844  9.691149 -3.652827
  S     6.497235  8.878377 -2.272939
