16  
    
  C     5.794943  5.576062 -4.300172
  C     6.931071  5.076918 -3.681964
  C     5.593192  9.539299 -4.324464
  C     6.699278  8.917024 -3.675965
  N     8.033567  5.043478 -4.402834
  N     6.054943  5.964934 -5.532462
  N     5.138612  5.278800 -1.917487
  N     7.759351  8.851392 -4.473497
  N     5.736466  9.810828 -5.613588
  N     4.805965  8.592721 -2.004126
  S     7.615305  5.584762 -5.955156
  S     4.421789  5.812132 -3.310178
  S     6.625819  4.645828 -2.023419
  S     7.323788  9.384287 -5.934230
  S     4.196178  9.581562 -3.248515
  S     6.430193  8.287944 -2.128818
