16  
    
  C     5.656859  5.436446 -4.280120
  C     6.887957  5.319265 -3.559282
  C     5.153817  9.900419 -4.622368
  C     6.283157  9.263416 -3.958970
  N     7.979334  5.200643 -4.301740
  N     5.804027  5.458488 -5.565245
  N     5.107690  5.626463 -1.743564
  N     7.326094  8.946684 -4.739744
  N     5.349471 10.004734 -5.954643
  N     4.577281  9.828667 -2.157002
  S     7.416990  5.259188 -5.934246
  S     4.340284  5.707294 -3.194274
  S     6.704595  5.314439 -1.844904
  S     6.858370  9.419654 -6.261706
  S     3.857870 10.300899 -3.602263
  S     6.034463  9.128096 -2.225253
