16  
    
  C     5.375228  5.931894 -4.394474
  C     6.577256  5.497943 -3.864090
  C     5.402164  9.504704 -4.568528
  C     6.567654  9.009072 -3.880214
  N     7.540720  5.265585 -4.759200
  N     5.416535  6.017293 -5.728639
  N     4.987504  5.725179 -1.915366
  N     7.542217  8.671927 -4.723350
  N     5.497318  9.733240 -5.859454
  N     4.799265  9.584362 -2.015596
  S     6.901246  5.495728 -6.251937
  S     4.066198  6.038552 -3.271415
  S     6.567527  5.256195 -2.107633
  S     7.055710  9.143460 -6.253902
  S     4.064144  9.955554 -3.459677
  S     6.362703  9.229840 -2.153877
