16  
    
  C     5.255056  5.824203 -4.472988
  C     6.500535  5.332353 -3.890814
  C     5.354959  9.574717 -4.531945
  C     6.508099  9.112332 -3.777683
  N     7.499273  5.205374 -4.741584
  N     5.363723  5.905075 -5.783648
  N     4.881641  5.733769 -1.941737
  N     7.483394  8.775822 -4.599214
  N     5.444761  9.576446 -5.891292
  N     4.838400  9.648842 -2.018212
  S     6.917286  5.628910 -6.223854
  S     4.061534  6.131022 -3.290552
  S     6.434348  5.257993 -2.148308
  S     7.039145  9.012211 -6.122100
  S     4.053583 10.113916 -3.492809
  S     6.364671  8.961904 -2.102417
