16  
    
  C     5.262005  6.323882 -4.711290
  C     6.528089  5.982894 -4.088718
  C     5.690999  9.718287 -4.420690
  C     6.901852  9.293437 -3.745369
  N     7.516678  5.710454 -4.900458
  N     5.358262  6.439449 -6.036920
  N     4.852130  6.391146 -2.110988
  N     7.944575  9.216314 -4.536863
  N     5.864417  9.932121 -5.743984
  N     5.212115  9.512584 -1.879599
  S     6.923079  6.007458 -6.392655
  S     3.968337  6.742807 -3.507959
  S     6.420471  5.912092 -2.304513
  S     7.428092  9.458851 -6.073187
  S     4.371035  9.960305 -3.234016
  S     6.857742  9.209678 -2.044847
