16  
    
  C     5.530436  5.990350 -4.360204
  C     6.774131  5.593886 -3.785269
  C     5.498654  9.635043 -4.294476
  C     6.671350  9.094526 -3.715555
  N     7.736760  5.470720 -4.683406
  N     5.565637  6.238725 -5.649178
  N     5.009328  5.644598 -1.911825
  N     7.704988  8.939648 -4.521160
  N     5.583108  9.897856 -5.593288
  N     5.072198  9.479469 -1.702451
  S     7.123573  5.855014 -6.173892
  S     4.274836  6.331985 -3.235236
  S     6.668133  5.413988 -2.069833
  S     7.154689  9.507954 -5.986705
  S     4.218231  9.697501 -3.119965
  S     6.634849  8.952236 -1.999005
