16  
    
  C     5.365830  5.490830 -4.352615
  C     6.517226  4.921239 -3.741132
  C     5.601132  9.311496 -4.365281
  C     6.676913  8.529988 -3.779337
  N     7.542852  4.802026 -4.565915
  N     5.486011  5.848842 -5.628845
  N     4.742999  5.112797 -1.839721
  N     7.686218  8.275578 -4.568961
  N     5.811558  9.607682 -5.653781
  N     4.845883  8.553742 -2.002358
  S     7.061494  5.289698 -6.058449
  S     4.059554  5.552523 -3.280704
  S     6.297879  4.669090 -2.024201
  S     7.340476  8.986476 -6.079392
  S     4.318250  9.597499 -3.194455
  S     6.430081  8.063429 -2.092951
