16  
    
  C     5.390148  5.641891 -4.360376
  C     6.501517  4.981738 -3.672251
  C     5.468425  9.195864 -4.347490
  C     6.570598  8.474118 -3.795177
  N     7.537622  4.692043 -4.464691
  N     5.540005  5.713824 -5.671553
  N     4.596416  5.145687 -1.946301
  N     7.642616  8.279213 -4.587455
  N     5.696740  9.535788 -5.605407
  N     4.875449  8.848224 -1.864034
  S     7.054876  5.257990 -6.006405
  S     3.961525  5.961538 -3.303482
  S     6.210843  4.772834 -1.990679
  S     7.215278  8.924196 -6.004705
  S     4.121621  9.350330 -3.269644
  S     6.429456  8.243042 -2.095626
