16  
    
  C     5.364474  5.874154 -4.246014
  C     6.572334  5.474042 -3.673666
  C     5.429311  9.545793 -4.463283
  C     6.620312  9.104678 -3.771190
  N     7.562974  5.338419 -4.538942
  N     5.457462  6.234780 -5.519115
  N     4.913493  5.626630 -1.707650
  N     7.648381  8.860922 -4.596128
  N     5.523364  9.671881 -5.779330
  N     5.064848  9.744265 -1.884403
  S     7.048942  5.907721 -6.019480
  S     4.092158  6.057183 -3.095828
  S     6.578621  5.379036 -1.946052
  S     7.176971  9.231266 -6.125245
  S     4.164315  9.656378 -3.261615
  S     6.609839  9.229082 -2.037276
