16  
    
  C     5.476243  5.768937 -4.383087
  C     6.689777  5.376085 -3.690573
  C     5.660839  9.062805 -4.151328
  C     6.917035  8.852900 -3.476429
  N     7.694509  5.037469 -4.470424
  N     5.556351  5.635319 -5.697982
  N     4.742609  5.524239 -1.963507
  N     7.928860  8.655786 -4.301023
  N     5.685076  9.024691 -5.483217
  N     5.208434  9.354863 -1.662296
  S     7.170546  5.203159 -6.015928
  S     4.115642  5.983945 -3.434390
  S     6.384183  5.321138 -1.977169
  S     7.264527  8.690428 -5.879986
  S     4.339312  9.313055 -3.099470
  S     6.870312  9.098268 -1.782552
