16  
    
  C     5.382911  6.081940 -4.367521
  C     6.600980  5.736325 -3.776347
  C     5.473234  9.755977 -4.403832
  C     6.669624  9.377037 -3.681891
  N     7.648390  5.721962 -4.612231
  N     5.405649  6.186120 -5.692798
  N     4.886029  5.947096 -1.896315
  N     7.664301  9.113321 -4.484501
  N     5.556530  9.832344 -5.712537
  N     4.874204  9.382890 -1.844898
  S     7.035896  5.848617 -6.151728
  S     4.051017  6.222743 -3.308084
  S     6.544425  5.623466 -1.998546
  S     7.177382  9.422224 -5.997062
  S     4.141875  9.945205 -3.240458
  S     6.480353  8.984336 -1.975493
