16  
    
  C     5.830894  5.655253 -4.084380
  C     6.988561  5.084228 -3.391546
  C     5.646011  9.595965 -4.251541
  C     6.886722  9.068603 -3.723383
  N     8.059138  4.836477 -4.154294
  N     6.077420  5.897161 -5.360746
  N     5.080394  5.159782 -1.692569
  N     7.923243  9.138437 -4.547689
  N     5.734786 10.073785 -5.481174
  N     5.082719  8.895140 -1.851483
  S     7.670217  5.505483 -5.650117
  S     4.490660  5.816607 -3.050227
  S     6.677119  4.604568 -1.756518
  S     7.287350  9.804907 -6.000761
  S     4.357077  9.742392 -3.106106
  S     6.719579  8.427008 -2.087225
