16  
    
  C     5.534956  5.853355 -4.069514
  C     6.773849  5.403222 -3.415092
  C     5.493728  8.886448 -4.094982
  C     6.754012  8.593344 -3.450917
  N     7.711425  5.114734 -4.313747
  N     5.576578  5.876613 -5.410821
  N     4.969774  5.517372 -1.606167
  N     7.766887  8.346780 -4.287941
  N     5.506450  8.909458 -5.422675
  N     5.110266  8.975335 -1.507191
  S     7.116382  5.449840 -5.820473
  S     4.199602  5.971884 -2.999511
  S     6.525607  4.865589 -1.764047
  S     7.085003  8.560606 -5.839866
  S     4.248753  9.072972 -2.941278
  S     6.742984  8.710063 -1.713995
