16  
    
  C     5.473899  5.885456 -4.547147
  C     6.713215  5.546889 -3.834395
  C     5.600161  9.331535 -4.177902
  C     6.867091  8.991701 -3.526833
  N     7.778548  5.409507 -4.633141
  N     5.556833  5.883100 -5.892687
  N     4.877904  5.775213 -1.954419
  N     7.906788  8.910764 -4.344048
  N     5.676354  9.396404 -5.473738
  N     5.142651  9.428464 -1.665750
  S     7.160952  5.518772 -6.184366
  S     4.192695  6.261123 -3.389523
  S     6.528000  5.358328 -2.072871
  S     7.327318  9.323656 -5.829783
  S     4.289886  9.593366 -3.087186
  S     6.685969  8.847946 -1.798751
