16  
    
  C     5.557397  5.901893 -4.462705
  C     6.783517  5.662488 -3.829966
  C     5.409774  9.666792 -4.352821
  C     6.615924  9.175743 -3.744582
  N     7.805665  5.442376 -4.660413
  N     5.633333  5.985562 -5.788918
  N     4.964550  5.830818 -2.042969
  N     7.565721  8.811772 -4.588578
  N     5.438436  9.663518 -5.673950
  N     4.857852  9.483648 -1.884312
  S     7.212193  5.677698 -6.185542
  S     4.139331  5.914147 -3.432907
  S     6.580362  5.460791 -2.117894
  S     6.897942  9.146140 -6.108158
  S     4.089987  9.885448 -3.292390
  S     6.524568  9.287203 -2.019496
