16  
    
  C     5.391181  5.882955 -4.486950
  C     6.606908  5.429368 -3.757914
  C     5.346503  9.360868 -4.178018
  C     6.605072  8.931485 -3.629146
  N     7.652785  5.220515 -4.548171
  N     5.564655  6.079301 -5.778846
  N     4.734800  5.686545 -1.963298
  N     7.638647  8.836277 -4.437784
  N     5.485247  9.479980 -5.500112
  N     4.964849  9.143479 -1.626869
  S     7.184178  5.672307 -6.062580
  S     4.032311  6.245388 -3.384072
  S     6.333463  5.050436 -2.053077
  S     7.054520  9.095436 -5.939703
  S     4.131443  9.561112 -2.939405
  S     6.668422  8.760918 -1.926242
