16  
    
  C     5.365732  6.049898 -4.310281
  C     6.528111  5.406699 -3.642343
  C     5.739860  9.668027 -4.171194
  C     6.852087  9.011052 -3.524892
  N     7.568103  5.138796 -4.438435
  N     5.596452  6.200185 -5.610088
  N     4.668679  5.742085 -1.883154
  N     7.846239  8.677844 -4.296933
  N     5.972222  9.917169 -5.446734
  N     4.978663  9.416684 -1.702844
  S     7.157702  5.647346 -5.967698
  S     4.002276  6.199864 -3.332549
  S     6.243946  5.317370 -1.959848
  S     7.431908  9.261927 -5.856786
  S     4.312665 10.038667 -3.151985
  S     6.521710  8.815773 -1.827320
