16  
    
  C     5.624958  6.133831 -4.491644
  C     6.824091  5.649202 -3.781773
  C     5.556519  9.694748 -4.421653
  C     6.728125  9.261889 -3.767275
  N     7.909684  5.493392 -4.550878
  N     5.761713  6.207017 -5.834503
  N     4.987373  5.929072 -2.004724
  N     7.806092  8.957568 -4.487584
  N     5.795013  9.780673 -5.727958
  N     4.906797  9.366988 -1.901406
  S     7.362272  5.822748 -6.102836
  S     4.219094  6.314012 -3.454947
  S     6.579891  5.524022 -2.032125
  S     7.364188  9.472091 -6.037046
  S     4.178648  9.906418 -3.372639
  S     6.455535  8.984217 -2.078088
