16  
    
  C     5.574893  5.908779 -4.487467
  C     6.801359  5.671140 -3.835469
  C     5.412554  9.620345 -4.320556
  C     6.631515  9.116165 -3.767990
  N     7.823869  5.412663 -4.669846
  N     5.609239  5.981975 -5.819916
  N     4.976293  5.816582 -2.028188
  N     7.625372  8.812305 -4.591156
  N     5.452316  9.671150 -5.654675
  N     4.897621  9.464144 -1.860499
  S     7.202199  5.670336 -6.165619
  S     4.141892  5.912570 -3.399117
  S     6.602014  5.464110 -2.118761
  S     6.897204  9.211953 -6.115113
  S     4.118335  9.875908 -3.282917
  S     6.556422  9.274832 -2.029025
