16  
    
  C     5.319652  5.904446 -4.310878
  C     6.483361  5.361879 -3.655536
  C     5.625716  9.660736 -4.219536
  C     6.750296  9.075881 -3.480531
  N     7.521831  5.265159 -4.467266
  N     5.442491  6.086176 -5.619320
  N     4.785046  5.815027 -1.810614
  N     7.786979  8.793682 -4.245563
  N     5.861121  9.845665 -5.532590
  N     4.792613  9.274995 -1.766231
  S     7.044526  5.626791 -6.012882
  S     4.027175  6.244757 -3.248974
  S     6.317821  5.291676 -1.963124
  S     7.425987  9.350703 -5.784460
  S     4.299634  9.979101 -3.203713
  S     6.398453  8.765483 -1.815594
