16  
    
  C     5.566614  5.854381 -4.098216
  C     6.772400  5.389502 -3.449641
  C     5.448067  8.909202 -4.092540
  C     6.724400  8.620488 -3.469239
  N     7.733084  5.116889 -4.289996
  N     5.530127  5.869821 -5.414236
  N     4.996976  5.529844 -1.595796
  N     7.770017  8.418944 -4.268383
  N     5.480076  8.881994 -5.448133
  N     5.110366  9.014697 -1.523934
  S     7.099856  5.467865 -5.807983
  S     4.252016  5.977257 -2.975359
  S     6.536174  4.878634 -1.791702
  S     7.105100  8.575638 -5.859392
  S     4.223545  9.064013 -2.937694
  S     6.751611  8.708921 -1.727488
