16  
    
  C     5.674706  5.857203 -3.909055
  C     6.839655  5.162546 -3.429958
  C     5.640546  9.623859 -4.002862
  C     6.856711  9.045101 -3.485557
  N     7.834332  5.054091 -4.311944
  N     5.863874  6.394721 -5.111959
  N     5.145224  4.905834 -1.604052
  N     7.830903  8.922759 -4.381240
  N     5.690830  9.983120 -5.274357
  N     5.096734  8.882741 -1.602612
  S     7.308620  5.935871 -5.685380
  S     4.372028  5.843380 -2.751359
  S     6.738949  4.524505 -1.823243
  S     7.167633  9.529402 -5.789182
  S     4.363152  9.676765 -2.897531
  S     6.700558  8.512464 -1.829902
