16  
    
  C     5.465851  5.977537 -4.222885
  C     6.572390  5.254698 -3.637915
  C     5.674670  9.949513 -4.502291
  C     6.724189  9.227669 -3.839174
  N     7.520774  4.926482 -4.486882
  N     5.656161  6.257210 -5.490905
  N     4.963082  5.733119 -1.769848
  N     7.789052  9.049839 -4.611587
  N     5.955815 10.330721 -5.753344
  N     4.673053  9.092680 -2.310215
  S     7.090322  5.493222 -5.996522
  S     4.141746  6.195418 -3.135682
  S     6.379578  4.929872 -1.958628
  S     7.431987  9.693605 -6.082952
  S     4.174306 10.015152 -3.599358
  S     6.296872  8.640822 -2.261849
