16  
    
  C     5.623491  5.738155 -4.075014
  C     6.778538  5.177019 -3.429714
  C     5.549412  9.350360 -3.971483
  C     6.709658  8.799808 -3.319677
  N     7.827947  4.912000 -4.205102
  N     5.920881  6.135307 -5.313483
  N     4.912492  5.377367 -1.601048
  N     7.690455  8.614914 -4.182186
  N     5.691141  9.727763 -5.240756
  N     4.882315  9.243762 -1.470514
  S     7.533716  5.583064 -5.656324
  S     4.237482  5.893688 -3.028946
  S     6.569121  5.048494 -1.656463
  S     7.233323  9.238215 -5.667986
  S     4.184431  9.646066 -2.947436
  S     6.416489  8.573121 -1.592752
