16  
    
  C     5.668077  5.664899 -4.408349
  C     6.906625  5.403519 -3.833053
  C     5.225343  9.699004 -4.289133
  C     6.430180  9.108562 -3.764957
  N     7.849157  5.195443 -4.713236
  N     5.649413  5.790964 -5.716590
  N     5.238660  5.722560 -1.917042
  N     7.396701  8.830621 -4.655913
  N     5.245670  9.790748 -5.617258
  N     4.654849  9.489405 -1.870772
  S     7.231022  5.526164 -6.267441
  S     4.358679  5.860703 -3.260777
  S     6.821217  5.258600 -2.110349
  S     6.750202  9.213130 -6.116911
  S     3.940426 10.112229 -3.259304
  S     6.279751  9.173417 -1.990335
