16  
    
  C     5.414177  5.708131 -4.255685
  C     6.623012  5.342983 -3.632705
  C     5.404209  9.270569 -4.204720
  C     6.698604  8.944122 -3.663372
  N     7.618664  5.190452 -4.489347
  N     5.481917  5.712839 -5.578796
  N     4.900238  5.611033 -1.754038
  N     7.749919  8.869483 -4.500602
  N     5.484255  9.432021 -5.534389
  N     5.014424  9.381821 -1.774940
  S     7.083673  5.567846 -5.994145
  S     4.047330  5.998911 -3.171233
  S     6.498122  5.187552 -1.928164
  S     7.054329  9.153951 -5.973814
  S     4.118561  9.599351 -3.149351
  S     6.529424  8.682136 -1.921250
