16  
    
  C     5.582869  5.921507 -4.436672
  C     6.853356  5.502032 -3.858435
  C     5.724766  9.384639 -4.296749
  C     6.993730  9.027117 -3.649731
  N     7.917954  5.442371 -4.712964
  N     5.618982  6.099701 -5.765304
  N     5.144512  5.547417 -1.835457
  N     7.989055  8.990561 -4.486309
  N     5.801188  9.651827 -5.590689
  N     5.247347  9.167460 -1.751588
  S     7.209554  5.942351 -6.142032
  S     4.327202  6.133393 -3.193970
  S     6.712104  5.138197 -2.152598
  S     7.363826  9.399217 -6.025415
  S     4.430124  9.463758 -3.160330
  S     6.872774  8.676054 -1.886707
