16  
    
  C     5.822976  5.770574 -4.481076
  C     7.014106  5.355959 -3.807269
  C     5.507392  9.540848 -4.292417
  C     6.792734  9.146547 -3.749731
  N     8.065122  5.096482 -4.609667
  N     5.938539  5.848125 -5.800766
  N     5.231234  5.942436 -2.021262
  N     7.800566  9.152294 -4.603322
  N     5.572674  9.804439 -5.571774
  N     5.068922  8.953149 -1.781998
  S     7.492510  5.433386 -6.154553
  S     4.438949  6.137793 -3.466762
  S     6.734972  5.301610 -2.121796
  S     7.110328  9.700964 -6.049561
  S     4.193942  9.388995 -3.126237
  S     6.733660  8.926273 -1.990869
