16  
    
  C     5.577186  6.265040 -4.678148
  C     6.599523  5.560120 -3.911875
  C     5.633900  9.691050 -4.493209
  C     6.796097  9.156096 -3.824551
  N     7.657564  5.322658 -4.634320
  N     5.817428  6.561214 -5.945177
  N     4.611347  5.734705 -2.343839
  N     7.935610  9.048814 -4.530398
  N     5.881180  9.920493 -5.788685
  N     5.000063  9.211789 -1.969606
  S     7.413798  5.982982 -6.169879
  S     4.171314  6.459037 -3.730012
  S     6.201242  5.242128 -2.265775
  S     7.465090  9.539097 -6.093659
  S     4.268468  9.776672 -3.370420
  S     6.626080  8.795010 -2.138129
