16  
    
  C     5.507407  6.071991 -4.457953
  C     6.626858  5.672763 -3.672826
  C     5.652004  9.539120 -4.257470
  C     6.754682  9.160158 -3.468865
  N     7.801155  5.567919 -4.337748
  N     5.698983  6.079391 -5.785137
  N     4.725642  6.140738 -1.950338
  N     7.784714  8.893317 -4.247314
  N     5.798344  9.696253 -5.579749
  N     4.810217  9.408821 -1.842340
  S     7.334941  5.737610 -5.968914
  S     4.063616  6.421297 -3.422142
  S     6.313343  5.590054 -1.866759
  S     7.362979  9.230101 -5.854584
  S     4.219877  9.862304 -3.289563
  S     6.462435  9.039717 -1.768077
