16  
    
  C     5.493816  5.939402 -4.443604
  C     6.688337  5.558100 -3.793257
  C     5.647747  9.277766 -4.171869
  C     6.900614  9.040446 -3.533149
  N     7.709709  5.255225 -4.604023
  N     5.609426  5.859000 -5.753950
  N     4.912720  5.801229 -1.979075
  N     7.932631  8.976959 -4.361344
  N     5.715826  9.416497 -5.506060
  N     5.116802  9.541848 -1.638198
  S     7.187250  5.499378 -6.192124
  S     4.170705  6.338887 -3.388004
  S     6.477205  5.380430 -2.104993
  S     7.357466  9.366259 -5.878909
  S     4.335954  9.676622 -3.102332
  S     6.662099  8.885303 -1.814737
