16  
    
  C     5.229673  6.143340 -4.329607
  C     6.392966  5.605547 -3.725848
  C     5.464486  9.763396 -4.313143
  C     6.667111  9.274700 -3.743318
  N     7.391469  5.345414 -4.556967
  N     5.307607  6.310565 -5.632472
  N     4.670531  5.982246 -1.809040
  N     7.686014  9.138295 -4.599143
  N     5.516335  9.970031 -5.657589
  N     5.011014  9.400457 -1.799348
  S     6.937168  5.809009 -6.061366
  S     3.935863  6.482303 -3.173567
  S     6.145908  5.283030 -2.038735
  S     7.063901  9.451886 -6.068804
  S     4.174629 10.041264 -3.096650
  S     6.613642  9.051523 -2.107242
