16  
    
  C     5.715800  5.703490 -4.303696
  C     6.925708  5.282582 -3.751816
  C     5.745109  9.660378 -4.454755
  C     6.969148  9.129311 -3.912432
  N     7.943282  5.287723 -4.602640
  N     5.695235  6.140745 -5.581097
  N     5.318231  5.183368 -1.736242
  N     8.038231  9.216786 -4.667140
  N     5.897084 10.018158 -5.731291
  N     5.214789  9.300891 -1.929069
  S     7.271168  5.769632 -6.062083
  S     4.448213  5.636509 -3.096725
  S     6.875971  4.703510 -2.098324
  S     7.521475  9.826157 -6.087011
  S     4.521381  9.877822 -3.335811
  S     6.789532  8.736235 -2.138526
