16  
    
  C     5.108900  6.243480 -4.349810
  C     6.248898  5.674048 -3.584095
  C     5.750726  9.657397 -4.222631
  C     6.955517  9.109914 -3.648583
  N     7.321178  5.433092 -4.331317
  N     5.359076  6.483970 -5.637558
  N     4.435019  6.149533 -1.892403
  N     7.995468  8.892860 -4.403132
  N     5.825295  9.716953 -5.526698
  N     5.412097  9.514710 -1.634918
  S     6.882814  5.937866 -5.870792
  S     3.868056  6.743486 -3.289879
  S     5.904960  5.352196 -1.947248
  S     7.405981  9.257667 -5.944136
  S     4.582905  9.968353 -3.002548
  S     6.876679  8.851687 -1.906617
