16  
    
  C     5.516574  5.738515 -4.085438
  C     6.712852  5.233184 -3.465902
  C     5.593365  8.892055 -3.977921
  C     6.857163  8.532507 -3.426619
  N     7.738889  5.078667 -4.273144
  N     5.628935  5.929279 -5.383898
  N     4.866417  5.421656 -1.612687
  N     7.772569  8.203240 -4.364095
  N     5.606871  8.992072 -5.307300
  N     5.106630  8.891849 -1.520089
  S     7.156936  5.383485 -5.821219
  S     4.093408  5.932560 -3.044356
  S     6.463357  4.951747 -1.743198
  S     7.096424  8.530937 -5.821549
  S     4.289436  9.098205 -2.921903
  S     6.743119  8.664536 -1.686310
