16  
    
  C     5.269085  6.310893 -4.383354
  C     6.353646  5.684210 -3.752045
  C     5.611634  9.527664 -4.304873
  C     6.805564  9.095889 -3.646717
  N     7.403889  5.268635 -4.490556
  N     5.437402  6.526579 -5.681201
  N     4.639162  6.231471 -1.853108
  N     7.853405  9.037709 -4.491793
  N     5.689391  9.678278 -5.648430
  N     5.011090  9.467094 -1.746159
  S     6.948544  5.902651 -5.997341
  S     4.001391  6.779720 -3.265542
  S     6.147237  5.542102 -2.011368
  S     7.266204  9.335922 -6.024962
  S     4.261683  9.835353 -3.193528
  S     6.598706  8.905495 -1.964423
