16  
    
  C     5.574691  5.932141 -4.420454
  C     6.818504  5.638088 -3.822202
  C     5.785617  9.439112 -4.358888
  C     7.013009  9.133060 -3.706948
  N     7.882259  5.581740 -4.639122
  N     5.636938  6.111461 -5.753160
  N     4.974430  5.481138 -1.984843
  N     8.107185  9.072525 -4.508788
  N     5.873214  9.577403 -5.678924
  N     5.334364  9.372194 -1.770925
  S     7.225718  5.855721 -6.163518
  S     4.233553  6.020839 -3.350888
  S     6.615883  5.259426 -2.128993
  S     7.485755  9.307424 -6.056170
  S     4.474971  9.528289 -3.199415
  S     6.903114  8.935022 -1.961432
