16  
    
  C     5.503219  5.899967 -4.392271
  C     6.768009  5.627351 -3.727460
  C     5.578692  9.018662 -4.139548
  C     6.865017  8.684557 -3.551293
  N     7.824400  5.515817 -4.550068
  N     5.633180  6.025818 -5.706501
  N     4.907549  5.740941 -1.937209
  N     7.933983  8.757028 -4.320472
  N     5.725132  9.269982 -5.430232
  N     5.141011  8.815364 -1.639867
  S     7.237492  5.808567 -6.070094
  S     4.080306  5.869866 -3.420634
  S     6.534036  5.408438 -2.058134
  S     7.305215  9.130999 -5.857989
  S     4.281260  9.058242 -2.988903
  S     6.769106  8.521659 -1.801720
