16  
    
  C     5.524597  5.954165 -4.514593
  C     6.796553  5.634995 -3.954903
  C     5.815647  9.455708 -4.217591
  C     7.095889  9.130543 -3.635968
  N     7.770139  5.599919 -4.869421
  N     5.580052  6.267994 -5.818996
  N     5.018075  5.628465 -2.006403
  N     8.124830  9.057143 -4.450011
  N     5.807353  9.525531 -5.537394
  N     5.362798  9.185037 -1.706545
  S     7.155454  6.066155 -6.287362
  S     4.178088  5.970491 -3.427607
  S     6.636044  5.327368 -2.161053
  S     7.388340  9.290036 -6.001963
  S     4.468826  9.555154 -3.117299
  S     6.928283  8.768148 -1.889327
