16  
    
  C     5.394085  5.648717 -4.362770
  C     6.498942  4.992289 -3.673164
  C     5.464521  9.189030 -4.343694
  C     6.579861  8.479241 -3.787525
  N     7.534280  4.683972 -4.454756
  N     5.542576  5.709470 -5.677288
  N     4.602533  5.149406 -1.952015
  N     7.644818  8.287330 -4.576288
  N     5.699158  9.523790 -5.606929
  N     4.867144  8.841340 -1.861095
  S     7.053331  5.259661 -5.992176
  S     3.960834  5.959327 -3.311339
  S     6.213417  4.786388 -1.997556
  S     7.202579  8.917773 -6.007784
  S     4.121644  9.352681 -3.269801
  S     6.445440  8.266491 -2.082788
