16  
    
  C     5.653740  5.689498 -4.409326
  C     6.895839  5.370804 -3.785893
  C     5.152632  9.669109 -4.448843
  C     6.358927  9.157041 -3.844385
  N     7.866372  5.316422 -4.673079
  N     5.659573  5.736993 -5.733211
  N     5.218245  5.627287 -1.864075
  N     7.393898  8.944848 -4.668573
  N     5.281811  9.771108 -5.770605
  N     4.899671  9.638618 -1.827877
  S     7.243031  5.419321 -6.212634
  S     4.382253  5.893744 -3.292810
  S     6.838869  5.134540 -2.088393
  S     6.857544  9.383186 -6.132212
  S     4.074522 10.139193 -3.181048
  S     6.431759  9.092567 -2.081928
