16  
    
  C     5.424935  6.016442 -4.201020
  C     6.633409  5.370012 -3.636512
  C     5.635704  9.673820 -4.558861
  C     6.702709  9.052977 -3.786901
  N     7.647262  5.221762 -4.506624
  N     5.520870  6.265505 -5.514035
  N     4.966904  5.736108 -1.640423
  N     7.833475  8.876250 -4.469984
  N     5.995850 10.054433 -5.775003
  N     4.803034  9.284202 -2.101074
  S     7.015353  5.757324 -5.947184
  S     4.188007  6.342402 -2.978488
  S     6.571908  5.209239 -1.896235
  S     7.610953  9.562697 -5.958310
  S     4.194870  9.918551 -3.512897
  S     6.420429  8.845772 -2.121105
