16  
    
  C     5.342807  6.001903 -4.480873
  C     6.513990  5.610352 -3.731149
  C     5.297454  9.689452 -4.247583
  C     6.540261  9.301981 -3.576702
  N     7.541307  5.370075 -4.525922
  N     5.496880  6.142268 -5.812760
  N     4.639743  5.931224 -2.001770
  N     7.613613  9.199006 -4.302252
  N     5.528052  9.825119 -5.522663
  N     4.750418  9.300718 -1.700492
  S     7.115217  5.721091 -6.090766
  S     3.916814  6.232345 -3.444480
  S     6.248447  5.468770 -2.016781
  S     7.102762  9.453246 -5.860252
  S     3.993599  9.767830 -3.112247
  S     6.371500  8.990839 -1.881517
