16  
    
  C     5.657601  5.506355 -4.380177
  C     6.833646  5.209701 -3.665557
  C     5.584775  9.613487 -4.279204
  C     6.746547  9.067542 -3.647880
  N     7.875319  4.915369 -4.463030
  N     5.753909  5.387986 -5.713664
  N     4.972412  5.619777 -1.879569
  N     7.773095  8.843116 -4.446172
  N     5.728763  9.770921 -5.603721
  N     4.931097  9.115209 -1.823573
  S     7.349023  5.064415 -6.008165
  S     4.297255  5.674188 -3.412890
  S     6.612551  5.272467 -1.924425
  S     7.256195  9.185196 -5.959469
  S     4.188398  9.612135 -3.224204
  S     6.556545  8.781668 -1.976644
