16  
    
  C     5.642074  5.874227 -4.475619
  C     6.911766  5.449394 -3.879561
  C     5.616937  9.494754 -4.247554
  C     6.926370  9.237486 -3.662513
  N     7.970337  5.307879 -4.741454
  N     5.695476  6.018932 -5.805075
  N     5.101383  5.425214 -1.992004
  N     7.946011  9.208693 -4.471189
  N     5.659077  9.639274 -5.556348
  N     5.182273  9.158780 -1.731303
  S     7.231575  5.629549 -6.203967
  S     4.314685  6.049171 -3.334980
  S     6.754851  5.223430 -2.143858
  S     7.273492  9.525143 -6.003744
  S     4.267495  9.330358 -3.099255
  S     6.737173  8.701397 -2.041687
