16  
    
  C     5.807055  5.621639 -4.382631
  C     6.955133  5.066818 -3.649517
  C     5.565461  9.542168 -4.281837
  C     6.758474  8.967435 -3.706066
  N     8.056117  4.994891 -4.400673
  N     6.071232  6.009400 -5.620853
  N     5.086740  5.317430 -1.929706
  N     7.834897  8.946997 -4.476830
  N     5.744148  9.844136 -5.578701
  N     4.846675  8.671132 -1.962810
  S     7.648259  5.583914 -5.933006
  S     4.412819  5.815483 -3.332936
  S     6.630044  4.633217 -2.018434
  S     7.346561  9.392928 -5.936301
  S     4.204123  9.536528 -3.218471
  S     6.454991  8.265070 -2.145645
