16  
    
  C     5.643798  5.706057 -4.462361
  C     6.870495  5.361661 -3.804296
  C     5.763852  9.556840 -3.959966
  C     7.008417  9.038296 -3.470805
  N     7.879670  5.174733 -4.654625
  N     5.741422  5.890368 -5.819616
  N     5.184546  5.402239 -1.901923
  N     7.956977  8.840120 -4.359233
  N     5.867505  9.883778 -5.257234
  N     5.331388  8.799860 -1.526872
  S     7.316772  5.617827 -6.150569
  S     4.339113  5.842265 -3.266866
  S     6.793172  5.158872 -2.058172
  S     7.302837  9.341584 -5.806890
  S     4.553408  9.578527 -2.721235
  S     6.925686  8.421503 -1.813848
