16  
    
  C     5.472351  5.677383 -4.115127
  C     6.671310  5.128894 -3.441161
  C     5.620604  8.940601 -3.993390
  C     6.876294  8.488996 -3.420682
  N     7.765271  5.010624 -4.247151
  N     5.620140  5.921863 -5.432427
  N     4.798740  5.385675 -1.644350
  N     7.820913  8.183978 -4.303983
  N     5.611313  9.032631 -5.287744
  N     5.141490  8.878287 -1.500380
  S     7.164961  5.369447 -5.793811
  S     4.107243  5.895550 -3.053906
  S     6.431992  5.024498 -1.759166
  S     7.119477  8.530415 -5.837752
  S     4.288863  9.104383 -2.911690
  S     6.769077  8.615926 -1.669074
