16  
    
  C     5.653295  5.685045 -4.321062
  C     6.875979  5.244997 -3.705483
  C     5.226022  9.792738 -4.616019
  C     6.382215  9.163936 -4.000370
  N     7.866084  4.970394 -4.537716
  N     5.785403  5.916815 -5.639423
  N     5.181775  5.492353 -1.838702
  N     7.425810  8.938701 -4.787315
  N     5.395785  9.936697 -5.912850
  N     4.608948  9.691268 -2.112317
  S     7.302493  5.416562 -6.146245
  S     4.378572  5.951023 -3.189727
  S     6.782391  5.071353 -1.983678
  S     6.861176  9.335601 -6.322868
  S     3.923599 10.354468 -3.578822
  S     6.146968  9.163736 -2.246344
