16  
    
  C     5.607984  5.640487 -4.562539
  C     6.913497  5.525538 -3.954426
  C     5.408731  9.696998 -4.171056
  C     6.689321  9.317678 -3.578300
  N     7.908533  5.556871 -4.840727
  N     5.568889  5.836512 -5.894660
  N     5.096660  5.394037 -2.107691
  N     7.744817  9.241568 -4.401889
  N     5.478019  9.970065 -5.444257
  N     4.850409  9.200098 -1.731542
  S     7.163977  5.893141 -6.341899
  S     4.225263  5.457667 -3.488710
  S     6.757821  5.275336 -2.261624
  S     7.059432  9.709114 -5.911746
  S     4.058453  9.713529 -3.070964
  S     6.485519  8.884215 -1.909097
