16  
    
  C     5.574964  5.645162 -4.107239
  C     6.781814  5.173733 -3.531457
  C     5.534847  8.982655 -4.149017
  C     6.818364  8.938528 -3.519223
  N     7.734407  4.934108 -4.449462
  N     5.530086  5.746963 -5.458674
  N     5.194237  5.368346 -1.577066
  N     7.793007  8.979852 -4.433089
  N     5.544972  8.925865 -5.446743
  N     5.067935  9.130777 -1.645718
  S     7.112125  5.469131 -5.903458
  S     4.372996  5.950151 -2.912744
  S     6.820962  5.229942 -1.764164
  S     7.114758  8.907848 -5.907222
  S     4.235994  8.977669 -3.048501
  S     6.696345  8.739998 -1.759705
