16  
    
  C     5.546188  6.199903 -4.487135
  C     6.725597  5.704366 -3.871351
  C     5.374241  9.961516 -4.680277
  C     6.621291  9.654482 -4.088906
  N     7.762070  5.508580 -4.715374
  N     5.641427  6.521644 -5.788858
  N     4.971909  5.811818 -1.986019
  N     7.664877  9.516673 -4.864369
  N     5.493486 10.087485 -5.995294
  N     4.858731  9.608010 -2.241879
  S     7.183094  6.075273 -6.191824
  S     4.229463  6.330135 -3.396054
  S     6.568612  5.423316 -2.149980
  S     7.069614  9.789257 -6.367461
  S     4.013589 10.019759 -3.576203
  S     6.460736  9.513633 -2.363941
