16  
    
  C     5.597122  5.772868 -4.324617
  C     6.859589  5.377755 -3.736469
  C     5.532599  9.370806 -4.698025
  C     6.754867  9.098008 -3.957789
  N     7.831635  5.206579 -4.648605
  N     5.729749  5.956998 -5.632969
  N     5.166771  5.733455 -1.807647
  N     7.830122  9.272531 -4.680351
  N     5.665340  9.654449 -6.015224
  N     4.866549  9.230984 -2.143576
  S     7.203294  5.429595 -6.138966
  S     4.311037  6.036914 -3.226684
  S     6.744208  5.046487 -2.031339
  S     7.350925  9.744948 -6.180356
  S     4.141074  9.582086 -3.612447
  S     6.486360  8.975256 -2.274265
