16  
    
  C     5.565368  5.926220 -4.427608
  C     6.816621  5.645896 -3.819100
  C     5.766110  9.453071 -4.358859
  C     7.014336  9.132363 -3.716048
  N     7.878957  5.578211 -4.650822
  N     5.644285  6.101495 -5.738393
  N     4.982409  5.471427 -1.978212
  N     8.120289  9.055622 -4.503862
  N     5.873299  9.572376 -5.688607
  N     5.340658  9.374510 -1.779658
  S     7.235601  5.841167 -6.141111
  S     4.231105  6.029672 -3.348030
  S     6.617058  5.256336 -2.123636
  S     7.491302  9.314741 -6.058633
  S     4.461376  9.527477 -3.212945
  S     6.904678  8.947496 -1.963266
