16  
    
  C     5.259290  6.411181 -4.680719
  C     6.445455  5.940309 -4.063982
  C     5.704465  9.751257 -4.411505
  C     6.961610  9.328065 -3.760399
  N     7.418317  5.728662 -4.882899
  N     5.290697  6.465887 -5.988850
  N     4.796195  6.437821 -2.187833
  N     7.955976  9.094520 -4.592186
  N     5.796633  9.910121 -5.747391
  N     5.282405  9.464936 -1.820023
  S     6.863183  6.064806 -6.398907
  S     3.944522  6.660572 -3.594114
  S     6.385706  5.963531 -2.356503
  S     7.420397  9.503669 -6.126180
  S     4.418339  9.909709 -3.235863
  S     6.900658  9.155525 -2.022424
