16  
    
  C     5.641531  5.689018 -4.333870
  C     6.873564  5.251696 -3.719041
  C     5.222001  9.797196 -4.620887
  C     6.380320  9.168099 -4.025278
  N     7.858290  4.977101 -4.557826
  N     5.774357  5.917844 -5.630131
  N     5.181523  5.490746 -1.843584
  N     7.434834  8.935210 -4.792839
  N     5.403304  9.933147 -5.919917
  N     4.615749  9.697327 -2.117718
  S     7.300042  5.423049 -6.145176
  S     4.371976  5.961019 -3.186173
  S     6.784043  5.061123 -1.991299
  S     6.864267  9.333691 -6.322314
  S     3.929979 10.360412 -3.564152
  S     6.159287  9.159356 -2.245532
