16  
    
  C     5.357487  5.932728 -4.361859
  C     6.503403  5.458599 -3.651130
  C     5.703987  9.656715 -4.158726
  C     6.804918  8.961502 -3.491442
  N     7.505847  5.127906 -4.444889
  N     5.542805  6.147033 -5.653789
  N     4.704790  5.773355 -1.860865
  N     7.879770  8.753696 -4.331325
  N     5.928708  9.926776 -5.456052
  N     4.903143  9.351529 -1.838147
  S     7.132048  5.651308 -5.974281
  S     3.948568  6.226400 -3.311996
  S     6.303189  5.311721 -1.936209
  S     7.405060  9.273799 -5.796772
  S     4.326990 10.047458 -3.185835
  S     6.478260  8.792513 -1.765376
