16  
    
  C     5.290459  5.164294 -3.929807
  C     6.576566  4.920068 -3.240074
  C     5.401143  9.404727 -4.149754
  C     6.586214  8.984409 -3.454965
  N     7.669797  4.906324 -3.979114
  N     5.510974  5.439521 -5.201221
  N     4.724040  5.177696 -1.428129
  N     7.616268  8.704221 -4.285465
  N     5.521511  9.559413 -5.454409
  N     4.650478  9.078275 -1.732667
  S     7.125311  5.127874 -5.537949
  S     3.937728  5.229570 -2.851283
  S     6.341124  4.801932 -1.514756
  S     6.992413  9.097668 -5.815362
  S     4.012334  9.655051 -3.146933
  S     6.290153  8.785792 -1.774897
