16  
    
  C     5.504600  5.958936 -4.442811
  C     6.729585  5.508315 -3.790413
  C     5.635560  9.341642 -4.226698
  C     6.882041  9.049113 -3.554636
  N     7.716335  5.150565 -4.595043
  N     5.611700  5.928964 -5.765235
  N     4.891165  5.831903 -1.998699
  N     7.965113  9.061283 -4.343697
  N     5.805206  9.480503 -5.516548
  N     5.141377  9.538456 -1.671656
  S     7.172343  5.484173 -6.114666
  S     4.161234  6.381042 -3.379058
  S     6.469913  5.403703 -2.099710
  S     7.360071  9.343089 -5.913728
  S     4.362375  9.728906 -3.112241
  S     6.671938  8.921793 -1.795085
