16  
    
  C     5.573779  5.761953 -4.319263
  C     6.869364  5.359064 -3.733172
  C     5.535443  9.374678 -4.708936
  C     6.747226  9.104951 -3.940278
  N     7.848876  5.206939 -4.646567
  N     5.723185  5.948533 -5.626474
  N     5.165172  5.737523 -1.813334
  N     7.824002  9.270685 -4.664893
  N     5.663162  9.624684 -6.010564
  N     4.861462  9.246010 -2.136479
  S     7.203932  5.431141 -6.141734
  S     4.301882  6.044950 -3.229604
  S     6.738685  5.061776 -2.033304
  S     7.328540  9.731214 -6.188046
  S     4.138737  9.591295 -3.615118
  S     6.484519  8.975704 -2.283781
