16  
    
  C     5.273122  6.286640 -4.333094
  C     6.314339  5.599631 -3.699016
  C     5.588915  9.550886 -4.226251
  C     6.781408  9.052830 -3.603774
  N     7.341229  5.306896 -4.502110
  N     5.502003  6.487392 -5.607110
  N     4.612354  6.282101 -1.883233
  N     7.805075  8.769980 -4.443650
  N     5.737917  9.764287 -5.555746
  N     5.168082  9.484438 -1.696403
  S     7.002183  5.897986 -5.992296
  S     3.867977  6.661925 -3.309576
  S     6.133767  5.568732 -1.934167
  S     7.266625  9.260811 -5.976042
  S     4.316589  9.832774 -3.048316
  S     6.686698  8.954391 -1.884530
