16  
    
  C     5.363807  6.016416 -4.409176
  C     6.624188  5.631026 -3.776277
  C     5.672980  9.696598 -4.397527
  C     6.837100  9.098348 -3.791598
  N     7.682075  5.468634 -4.515083
  N     5.504068  6.137133 -5.715622
  N     4.887742  5.934953 -1.879812
  N     7.896853  8.872779 -4.551529
  N     5.896882  9.910744 -5.668140
  N     5.095845  9.476884 -1.919746
  S     7.081067  5.752521 -6.111526
  S     4.087882  6.361178 -3.246307
  S     6.443414  5.338908 -2.028003
  S     7.393512  9.267751 -6.113404
  S     4.350756 10.039639 -3.358924
  S     6.612817  8.850730 -2.104846
