16  
    
  C     5.481227  5.996328 -4.441004
  C     6.738366  5.644137 -3.824849
  C     5.460489  9.654649 -4.293624
  C     6.671854  9.169158 -3.674162
  N     7.774246  5.587647 -4.643363
  N     5.547403  6.172485 -5.760609
  N     5.024391  5.680799 -1.885041
  N     7.674128  8.987235 -4.540570
  N     5.574437  9.881424 -5.651110
  N     5.052666  9.525567 -1.759638
  S     7.088465  5.836387 -6.157759
  S     4.207999  6.317398 -3.235106
  S     6.667270  5.446849 -2.020007
  S     7.160461  9.520333 -6.048737
  S     4.204337  9.745510 -3.116838
  S     6.581759  8.919466 -1.911354
