16  
    
  C     5.531489  5.948201 -4.407426
  C     6.774612  5.532744 -3.723669
  C     5.748913  9.448932 -4.394804
  C     7.013653  9.136182 -3.752823
  N     7.869456  5.440551 -4.437731
  N     5.695012  6.007994 -5.696391
  N     4.964571  5.561896 -1.905070
  N     8.032995  8.957109 -4.554753
  N     5.951796  9.643501 -5.710517
  N     5.186981  9.356289 -1.918958
  S     7.301608  5.738256 -6.077645
  S     4.222921  6.103113 -3.258628
  S     6.656819  5.258930 -2.006029
  S     7.522449  9.334429 -6.054471
  S     4.396753  9.514163 -3.371888
  S     6.855571  9.086917 -2.023829
