16  
    
  C     5.737189  5.356738 -4.282467
  C     6.922789  4.903955 -3.626264
  C     5.631684  9.453843 -4.510167
  C     6.729614  8.854347 -3.760458
  N     7.915348  4.689019 -4.487373
  N     5.780014  5.448431 -5.598581
  N     5.167443  5.341748 -1.771286
  N     7.849614  8.748901 -4.471715
  N     5.916056  9.719452 -5.794172
  N     4.836677  9.102121 -2.080951
  S     7.324388  5.096998 -6.021351
  S     4.398975  5.474985 -3.198756
  S     6.832506  4.962257 -1.853403
  S     7.489803  9.248757 -6.000793
  S     4.212299  9.690164 -3.490851
  S     6.459073  8.726439 -2.037931
