16  
    
  C     5.219290  6.338266 -4.515303
  C     6.464577  5.986177 -3.869739
  C     5.493665  9.668838 -4.232423
  C     6.826106  9.334573 -3.696272
  N     7.486218  5.998077 -4.727286
  N     5.262910  6.535228 -5.810577
  N     4.653700  5.942861 -1.993420
  N     7.771036  9.256034 -4.635270
  N     5.444279  9.891443 -5.541221
  N     4.996883  9.305771 -1.738971
  S     6.910719  6.315099 -6.175961
  S     3.848438  6.384064 -3.402378
  S     6.282995  5.909843 -2.080569
  S     7.024860  9.748006 -6.077581
  S     4.168554  9.627360 -3.117823
  S     6.688428  8.966110 -1.992042
