16  
    
  C     5.582246  6.295620 -4.453014
  C     6.712881  5.788868 -3.771990
  C     5.571629  9.593143 -4.452549
  C     6.780381  9.166537 -3.764151
  N     7.761957  5.488155 -4.559769
  N     5.655650  6.372379 -5.797668
  N     4.865042  6.101473 -1.930795
  N     7.818035  8.961249 -4.550709
  N     5.777855  9.774022 -5.761797
  N     5.071819  9.575018 -1.902143
  S     7.225012  5.852427 -6.090727
  S     4.199775  6.532921 -3.336369
  S     6.493465  5.820654 -2.007515
  S     7.295034  9.221669 -6.108751
  S     4.296048  9.865468 -3.354154
  S     6.704540  9.112372 -2.012961
