16  
    
  C     5.174540  6.241988 -4.596779
  C     6.409976  5.837071 -3.948328
  C     5.476931  9.597631 -4.050920
  C     6.792474  9.251497 -3.472673
  N     7.464014  5.707456 -4.791415
  N     5.265088  6.471371 -5.924697
  N     4.698568  5.826963 -2.043806
  N     7.785277  9.362657 -4.321430
  N     5.570985  9.824114 -5.373674
  N     5.046883  8.997524 -1.570434
  S     6.883656  6.189024 -6.317276
  S     3.917839  6.474070 -3.371032
  S     6.304309  5.546099 -2.264723
  S     7.158042  9.838250 -5.766565
  S     4.137721  9.415714 -2.875735
  S     6.684038  8.686741 -1.855364
