16  
    
  C     5.600646  5.971750 -4.515637
  C     6.763798  5.452169 -3.842409
  C     5.500888  9.730115 -4.353144
  C     6.721037  9.230916 -3.753186
  N     7.886951  5.375189 -4.572472
  N     5.724650  6.120666 -5.818536
  N     4.997614  5.729479 -2.073102
  N     7.782353  9.159461 -4.555149
  N     5.721563 10.105786 -5.605828
  N     4.916164  9.279484 -1.901626
  S     7.295132  5.740483 -6.151786
  S     4.261009  6.161174 -3.470413
  S     6.554344  5.176345 -2.198720
  S     7.281726  9.697848 -6.058236
  S     4.237760  9.914337 -3.204263
  S     6.607632  8.835046 -2.041210
