16  
    
  C     5.632658  5.726635 -4.349795
  C     6.826979  5.078803 -3.854978
  C     5.748668  9.909792 -4.497595
  C     6.929960  9.470380 -3.799122
  N     7.872073  5.026140 -4.696923
  N     5.698669  6.161467 -5.612753
  N     5.289035  5.430402 -1.816508
  N     7.951610  9.304979 -4.607220
  N     5.907397 10.196927 -5.779311
  N     5.000291  8.926504 -2.229613
  S     7.217276  5.663610 -6.152482
  S     4.368943  5.900664 -3.138141
  S     6.843346  4.894029 -2.060703
  S     7.435792  9.756562 -6.166252
  S     4.302862  9.593632 -3.547603
  S     6.628637  8.841670 -2.225786
