16  
    
  C     5.214801  6.388487 -4.698009
  C     6.466515  5.959681 -4.053306
  C     5.662543  9.703225 -4.433096
  C     6.848313  9.302099 -3.772975
  N     7.515426  5.697945 -4.868039
  N     5.348848  6.427701 -6.021199
  N     4.848016  6.409444 -2.178116
  N     7.921792  9.207018 -4.560585
  N     5.890018  9.949389 -5.738459
  N     5.195855  9.500251 -1.874722
  S     6.894735  6.039777 -6.423162
  S     3.939391  6.712342 -3.532210
  S     6.421331  5.929503 -2.320363
  S     7.438924  9.458704 -6.099695
  S     4.380241  9.947127 -3.219111
  S     6.919420  9.181422 -2.018215
