16  
    
  C     5.525655  6.448942 -4.531085
  C     6.691567  5.874133 -3.837259
  C     5.687166  9.749309 -4.435240
  C     6.867443  9.431099 -3.718209
  N     7.674732  5.572040 -4.631446
  N     5.638419  6.452440 -5.847204
  N     4.882945  6.228040 -2.032215
  N     7.947716  9.305401 -4.507349
  N     5.852913  9.903909 -5.772057
  N     5.068513  9.796275 -1.942907
  S     7.111324  5.869289 -6.267299
  S     4.191489  6.752082 -3.458331
  S     6.503260  5.862845 -2.153112
  S     7.422313  9.450149 -6.056316
  S     4.305980  9.941106 -3.331268
  S     6.688625  9.309139 -2.037915
