16  
    
  C     5.475845  5.837960 -4.445792
  C     6.709359  5.564169 -3.696650
  C     5.610334  8.957537 -4.191455
  C     6.900708  8.755383 -3.566866
  N     7.814641  5.554096 -4.452663
  N     5.629225  5.956510 -5.800695
  N     4.819968  5.591841 -1.906736
  N     7.973061  8.774887 -4.377345
  N     5.722898  9.147326 -5.503112
  N     5.185750  8.795082 -1.590262
  S     7.256409  5.771675 -6.005427
  S     4.113813  5.995102 -3.355397
  S     6.426481  5.307174 -1.957768
  S     7.349416  9.178755 -5.848513
  S     4.324634  8.983391 -3.013507
  S     6.819837  8.424731 -1.842472
