16  
    
  C     5.510900  5.224798 -4.154695
  C     6.805046  5.080715 -3.552090
  C     5.426769  9.309344 -4.405699
  C     6.634239  8.799702 -3.800790
  N     7.838618  4.912502 -4.375696
  N     5.605544  5.380325 -5.451891
  N     5.020426  5.226098 -1.642878
  N     7.533284  8.409922 -4.699223
  N     5.445305  9.399634 -5.754023
  N     4.896808  9.094669 -1.904204
  S     7.154218  5.126354 -5.912241
  S     4.153341  5.144744 -3.062148
  S     6.725848  5.060181 -1.778851
  S     6.936227  8.805638 -6.150236
  S     4.120691  9.586189 -3.292042
  S     6.470637  8.591769 -2.110305
