16  
    
  C     5.637438  6.030155 -4.458881
  C     6.813168  5.627589 -3.806870
  C     5.642199  9.709442 -4.387932
  C     6.800825  9.156515 -3.727418
  N     7.847234  5.397243 -4.615578
  N     5.829172  6.317209 -5.740206
  N     4.939940  5.888807 -2.039956
  N     7.831573  9.015899 -4.563251
  N     5.724675  9.966352 -5.694141
  N     4.804181  9.369211 -2.004537
  S     7.339621  5.832394 -6.145029
  S     4.235394  6.219927 -3.511464
  S     6.621572  5.478718 -2.089549
  S     7.320449  9.529516 -6.081007
  S     4.186473  9.895604 -3.425059
  S     6.491067  8.956354 -1.958356
