16  
    
  C     5.505342  5.872821 -4.482379
  C     6.783431  5.555346 -3.863000
  C     5.608155  9.419486 -4.115137
  C     6.838942  9.038361 -3.506602
  N     7.828107  5.373745 -4.657673
  N     5.583241  5.922114 -5.814054
  N     4.943885  5.669747 -1.992588
  N     7.879402  8.798704 -4.351640
  N     5.708056  9.597804 -5.433408
  N     5.052962  8.911559 -1.581390
  S     7.177690  5.727198 -6.165702
  S     4.124374  6.019441 -3.388470
  S     6.620213  5.460558 -2.136801
  S     7.279249  9.054792 -5.867592
  S     4.255359  9.333929 -3.003310
  S     6.688364  8.789689 -1.780268
