16  
    
  C     5.547327  5.856355 -4.081141
  C     6.778073  5.401862 -3.426008
  C     5.474980  8.894995 -4.093088
  C     6.740398  8.601026 -3.456460
  N     7.715481  5.115428 -4.303500
  N     5.559664  5.873651 -5.413593
  N     4.977820  5.523565 -1.603901
  N     7.771698  8.369482 -4.278041
  N     5.494490  8.900292 -5.433965
  N     5.111232  8.988073 -1.511125
  S     7.110193  5.456621 -5.815916
  S     4.217277  5.973596 -2.991203
  S     6.529606  4.867547 -1.772739
  S     7.091239  8.565159 -5.847257
  S     4.241093  9.069862 -2.941544
  S     6.746322  8.710293 -1.717795
