16  
    
  C     5.433910  6.060380 -4.325573
  C     6.599939  5.491514 -3.600559
  C     5.710417  9.715457 -4.244647
  C     6.786241  9.025368 -3.545408
  N     7.606057  5.211261 -4.409920
  N     5.688668  6.303740 -5.581181
  N     4.681139  5.675756 -1.923106
  N     7.801638  8.705519 -4.390189
  N     5.898699  9.926765 -5.569987
  N     5.184791  9.563365 -1.725578
  S     7.223965  5.657933 -5.968844
  S     4.054484  6.263340 -3.395769
  S     6.261745  5.208425 -1.906505
  S     7.402741  9.244003 -5.854344
  S     4.412685  9.923150 -3.123421
  S     6.637035  8.822191 -1.840349
