16  
    
  C     5.433215  5.611288 -4.261742
  C     6.648600  5.124144 -3.587763
  C     5.516606  9.253021 -4.183278
  C     6.734869  8.912647 -3.480648
  N     7.714274  4.976656 -4.373833
  N     5.632962  5.848961 -5.540005
  N     4.876897  5.497993 -1.776514
  N     7.797254  8.800844 -4.279811
  N     5.620830  9.486001 -5.492555
  N     4.920956  9.149447 -1.686809
  S     7.164340  5.356438 -5.941664
  S     4.268036  6.083008 -3.143091
  S     6.428661  4.815794 -1.890698
  S     7.242733  9.177931 -5.848429
  S     4.135530  9.428848 -3.105969
  S     6.517639  8.604233 -1.786183
