16  
    
  C     5.675673  5.803708 -4.305694
  C     6.878163  5.297011 -3.764877
  C     5.620897  9.747726 -4.571116
  C     6.843886  9.306724 -3.926802
  N     7.788958  5.042828 -4.702192
  N     5.724971  6.020019 -5.619424
  N     5.222598  5.565797 -1.791142
  N     7.959465  9.258402 -4.679929
  N     5.809344 10.060612 -5.833867
  N     4.906463  9.019140 -2.181185
  S     7.224567  5.556875 -6.144294
  S     4.370434  5.958563 -3.144763
  S     6.776444  4.973419 -2.109754
  S     7.426106  9.768848 -6.172479
  S     4.197056  9.507014 -3.642280
  S     6.585841  8.914083 -2.222031
