16  
    
  C     5.126061  6.270022 -4.512748
  C     6.392020  6.035528 -3.869892
  C     5.406710  9.699731 -4.211735
  C     6.678589  9.315205 -3.670203
  N     7.429805  5.929399 -4.692134
  N     5.272857  6.527954 -5.792253
  N     4.602346  5.957240 -2.037140
  N     7.662244  9.264524 -4.598291
  N     5.453198  9.906491 -5.563259
  N     5.111981  9.266820 -1.682610
  S     6.842972  6.373359 -6.276743
  S     3.785619  6.365396 -3.400634
  S     6.267623  5.863103 -2.124860
  S     6.999877  9.727942 -6.016910
  S     4.153183  9.569683 -3.087022
  S     6.698841  8.944501 -1.922885
