16  
    
  C     5.356591  6.055409 -4.414312
  C     6.614017  5.777672 -3.751046
  C     5.434645  9.757661 -4.389065
  C     6.625203  9.271618 -3.703571
  N     7.603663  5.610666 -4.611950
  N     5.430120  6.221361 -5.727802
  N     4.866816  5.974067 -1.846393
  N     7.713855  9.087218 -4.478152
  N     5.650319  9.853413 -5.714766
  N     4.788793  9.353803 -1.871899
  S     6.971154  5.906291 -6.121598
  S     4.042140  6.248315 -3.284584
  S     6.467333  5.669786 -2.007046
  S     7.230448  9.428404 -6.076569
  S     4.080018  9.961993 -3.276715
  S     6.485099  9.058704 -1.976009
