16  
    
  C     5.814663  5.752542 -4.497717
  C     6.995185  5.411815 -3.737206
  C     5.496920  9.574778 -4.334598
  C     6.768540  9.307978 -3.740626
  N     8.023487  5.274147 -4.510624
  N     6.021018  5.823843 -5.805404
  N     5.234626  5.957039 -1.976970
  N     7.801758  9.268671 -4.593767
  N     5.599991  9.867496 -5.634412
  N     5.087031  9.087402 -1.798609
  S     7.629197  5.467432 -6.138309
  S     4.513419  6.206351 -3.499856
  S     6.767098  5.293854 -2.008446
  S     7.184565  9.552919 -6.049787
  S     4.218099  9.472223 -3.159928
  S     6.745635  8.852728 -2.067841
