16  
    
  C     5.256540  6.368622 -4.379747
  C     6.352626  5.631375 -3.696176
  C     5.527476  9.563460 -4.369231
  C     6.769965  9.240770 -3.690110
  N     7.365323  5.425222 -4.520805
  N     5.457939  6.522373 -5.697307
  N     4.647428  6.152090 -1.879068
  N     7.833359  9.104531 -4.463682
  N     5.677941  9.641240 -5.669163
  N     5.018690  9.449558 -1.875750
  S     6.915201  5.857698 -6.022695
  S     4.047698  6.822156 -3.259237
  S     6.185437  5.523584 -2.008658
  S     7.253506  9.379538 -6.043375
  S     4.239875  9.824592 -3.305778
  S     6.577947  8.871382 -1.940882
