16  
    
  C     5.197289  6.374702 -4.296191
  C     6.300363  5.719496 -3.616885
  C     5.831397  9.572915 -4.182852
  C     7.049452  9.055434 -3.582832
  N     7.332900  5.535097 -4.428926
  N     5.309942  6.479028 -5.614013
  N     4.403952  5.982446 -1.854463
  N     7.981273  8.867871 -4.494383
  N     5.919714  9.787188 -5.502458
  N     5.396207  9.623619 -1.666343
  S     6.893823  5.985304 -5.937372
  S     3.852901  6.718154 -3.266604
  S     5.945761  5.413361 -1.959079
  S     7.375120  9.201209 -5.997490
  S     4.588025  9.925594 -3.029232
  S     6.939513  8.860837 -1.808749
