16  
    
  C     5.378647  5.835733 -4.463994
  C     6.518157  5.317386 -3.844556
  C     5.395608  9.581539 -4.397177
  C     6.576059  9.057429 -3.768071
  N     7.544635  5.201185 -4.659029
  N     5.486410  5.995591 -5.760276
  N     4.759518  5.711824 -2.041272
  N     7.577427  8.654011 -4.579148
  N     5.487361  9.580363 -5.734237
  N     4.673129  9.535214 -1.917623
  S     6.981228  5.479998 -6.195239
  S     3.979951  6.176235 -3.432969
  S     6.306664  5.218746 -2.157747
  S     7.045690  8.978566 -6.126235
  S     4.073295 10.027091 -3.411113
  S     6.202520  8.876163 -1.993102
