16  
    
  C     5.391772  5.871165 -4.388576
  C     6.600289  5.484972 -3.720640
  C     5.270095  9.478922 -4.418130
  C     6.555352  9.265078 -3.784830
  N     7.690723  5.381946 -4.487740
  N     5.531252  5.939500 -5.701701
  N     4.745751  5.730761 -1.934232
  N     7.543959  9.030193 -4.611029
  N     5.321926  9.354061 -5.758810
  N     4.840737  9.243129 -1.813272
  S     7.144966  5.543467 -6.063664
  S     4.017871  6.108762 -3.367879
  S     6.332032  5.210428 -2.048981
  S     6.913471  9.041961 -6.172964
  S     3.991760  9.743948 -3.195704
  S     6.488738  8.996595 -2.046156
