16  
    
  C     5.465024  5.262162 -4.219217
  C     6.734585  5.054204 -3.609848
  C     5.405216  9.236031 -4.471109
  C     6.570188  8.640893 -3.826171
  N     7.791555  4.935740 -4.409675
  N     5.525055  5.239021 -5.535610
  N     5.152145  5.276925 -1.625618
  N     7.592221  8.419084 -4.651311
  N     5.513929  9.433448 -5.781854
  N     4.855910  9.089140 -1.942716
  S     7.128776  5.150712 -5.956988
  S     4.235529  5.088394 -2.991820
  S     6.756402  5.093813 -1.868678
  S     7.017878  8.854463 -6.226938
  S     4.082171  9.545430 -3.385574
  S     6.459571  8.705447 -2.081576
