16  
    
  C     5.835615  5.495383 -4.305548
  C     7.090233  5.180464 -3.680289
  C     5.457097  9.385635 -4.424463
  C     6.620201  8.792260 -3.780635
  N     8.137291  5.169555 -4.515168
  N     5.830755  5.725636 -5.609965
  N     5.294902  5.211438 -1.761268
  N     7.611614  8.405512 -4.576232
  N     5.589117  9.448987 -5.729344
  N     4.915434  9.511054 -1.913780
  S     7.388124  5.374755 -6.058798
  S     4.488485  5.552454 -3.185960
  S     6.880313  4.951724 -2.018198
  S     7.097641  8.820420 -6.133918
  S     4.120643  9.742258 -3.389704
  S     6.382072  8.712436 -2.024485
