16  
    
  C     5.623306  6.085998 -4.359679
  C     6.831285  5.522485 -3.766626
  C     5.762400  9.385768 -4.258317
  C     6.980138  8.887244 -3.686613
  N     7.863041  5.492469 -4.611905
  N     5.704984  6.529920 -5.611148
  N     5.222286  5.735358 -1.764353
  N     8.007081  8.668240 -4.516712
  N     5.920218  9.714836 -5.548521
  N     5.367737  9.149155 -1.713129
  S     7.227193  6.066600 -6.029337
  S     4.344214  6.194547 -3.155505
  S     6.770487  5.169737 -2.013342
  S     7.426240  9.232326 -5.997145
  S     4.547655  9.641557 -3.063303
  S     7.025865  8.817845 -1.949511
