16  
    
  C     5.089728  6.277257 -4.571714
  C     6.342283  5.938968 -3.915986
  C     5.412880  9.606144 -4.086991
  C     6.700675  9.302032 -3.493919
  N     7.376572  5.901159 -4.717539
  N     5.188888  6.511829 -5.860776
  N     4.579156  5.994598 -2.018107
  N     7.646215  9.235533 -4.419170
  N     5.395409  9.746228 -5.424034
  N     4.932870  9.124565 -1.643633
  S     6.774819  6.296713 -6.263680
  S     3.750984  6.470216 -3.405042
  S     6.181623  5.562830 -2.189185
  S     7.002957  9.669026 -5.902656
  S     4.079048  9.486618 -2.967043
  S     6.625261  8.976192 -1.793316
