16  
    
  C     5.175911  6.374059 -4.365181
  C     6.376272  5.802731 -3.660308
  C     5.875513  9.618852 -4.176847
  C     7.050253  9.030770 -3.582428
  N     7.413098  5.541338 -4.481849
  N     5.371286  6.623157 -5.674936
  N     4.516759  5.861496 -1.925848
  N     7.958837  8.701471 -4.461069
  N     5.892355  9.715089 -5.464112
  N     5.442672  9.636914 -1.704323
  S     6.836782  6.016788 -5.998176
  S     3.828102  6.664808 -3.229913
  S     6.110779  5.503918 -1.976228
  S     7.372862  9.225977 -5.986486
  S     4.574986  9.826336 -3.048450
  S     6.902860  8.935153 -1.886609
