16  
    
  C     5.618455  6.179780 -4.370383
  C     6.717177  5.485062 -3.825390
  C     5.639413  9.608447 -4.271055
  C     6.823786  9.187235 -3.664506
  N     7.747493  5.276557 -4.620724
  N     5.756942  6.521931 -5.636051
  N     5.059512  5.776913 -1.868540
  N     7.779071  8.968967 -4.597949
  N     5.593323  9.773335 -5.631008
  N     5.113933  9.301014 -1.663142
  S     7.235844  5.822970 -6.123293
  S     4.275675  6.345287 -3.243244
  S     6.602457  5.162331 -2.065659
  S     7.161207  9.376947 -6.056014
  S     4.356088  9.656089 -3.120014
  S     6.711589  8.896110 -1.916864
