16  
    
  C     5.442967  6.008226 -4.423422
  C     6.686457  5.590857 -3.830680
  C     5.537307  9.390476 -4.564431
  C     6.725018  9.165233 -3.830371
  N     7.719997  5.515141 -4.642952
  N     5.438734  6.143696 -5.754892
  N     5.024774  5.878450 -1.831335
  N     7.805418  9.103429 -4.577265
  N     5.678712  9.535329 -5.868836
  N     5.035230  9.129668 -1.948755
  S     7.065247  5.818226 -6.181078
  S     4.143615  6.234626 -3.216624
  S     6.599757  5.472945 -2.010378
  S     7.305038  9.274894 -6.147084
  S     4.195197  9.311904 -3.404062
  S     6.599153  8.840296 -2.164216
