16  
    
  C     5.829917  5.708361 -4.395284
  C     6.975594  5.131248 -3.756117
  C     5.712964  9.452334 -4.304743
  C     6.909597  8.879030 -3.740104
  N     8.083052  4.943405 -4.505005
  N     6.051677  6.136028 -5.633113
  N     5.059527  5.272909 -1.961992
  N     7.904335  8.915071 -4.596877
  N     5.756107  9.932030 -5.561012
  N     5.146516  8.989008 -1.852566
  S     7.577171  5.575988 -5.986851
  S     4.383055  5.810024 -3.376642
  S     6.669746  4.865090 -2.006219
  S     7.365108  9.716341 -5.966944
  S     4.360805  9.390798 -3.232629
  S     6.707708  8.395936 -2.056774
