16  
    
  C     5.601285  5.904154 -4.503004
  C     6.786802  5.481804 -3.837599
  C     5.566589  9.685584 -4.323607
  C     6.767150  9.144807 -3.740360
  N     7.810583  5.368788 -4.621185
  N     5.731526  6.049946 -5.815487
  N     4.942582  5.690195 -2.037228
  N     7.816820  9.217241 -4.555881
  N     5.636317 10.133163 -5.569601
  N     4.957864  9.222912 -1.828004
  S     7.307517  5.717451 -6.166358
  S     4.298050  6.179088 -3.450867
  S     6.511856  5.140825 -2.176110
  S     7.201844  9.697202 -6.039815
  S     4.289063  9.934108 -3.225159
  S     6.596040  8.817396 -2.016073
