16  
    
  C     5.884582  6.045686 -4.474594
  C     7.055536  5.584670 -3.682530
  C     5.638571  9.506442 -4.410234
  C     6.858401  9.069033 -3.773378
  N     8.091904  5.252993 -4.470490
  N     6.097546  6.162870 -5.786033
  N     5.079626  5.583534 -2.028168
  N     7.931722  8.983656 -4.577448
  N     5.774411  9.723232 -5.739473
  N     5.121472  9.247381 -1.855312
  S     7.667090  5.647485 -6.038565
  S     4.452486  6.153694 -3.450445
  S     6.753430  5.430114 -1.926941
  S     7.337242  9.375329 -6.128713
  S     4.396499  9.791487 -3.270710
  S     6.723485  8.869714 -2.000986
