16  
    
  C     5.705588  5.736861 -4.000101
  C     6.821686  5.097464 -3.406015
  C     5.542558  9.424803 -3.946143
  C     6.711396  8.791011 -3.345913
  N     7.935890  5.103855 -4.127672
  N     5.904057  6.178453 -5.231695
  N     4.982999  5.353943 -1.567250
  N     7.759074  8.659490 -4.149589
  N     5.679101  9.654309 -5.248340
  N     4.983306  9.231570 -1.484903
  S     7.395059  5.740390 -5.643116
  S     4.289379  5.882151 -2.987969
  S     6.551928  4.893879 -1.711912
  S     7.231900  9.304773 -5.625512
  S     4.200282  9.699045 -2.876760
  S     6.487428  8.561056 -1.621418
