16  
    
  C     5.527233  5.953987 -4.290886
  C     6.734483  5.487194 -3.636556
  C     5.690507  9.527362 -4.482844
  C     6.924335  9.188331 -3.738135
  N     7.749276  5.246202 -4.537979
  N     5.688973  6.173327 -5.588781
  N     5.075264  5.990815 -1.787487
  N     8.028591  9.024809 -4.479439
  N     5.846154  9.554600 -5.799505
  N     5.018280  9.222689 -2.034875
  S     7.244286  5.705273 -5.948049
  S     4.199697  6.178684 -3.241957
  S     6.637162  5.430926 -1.887521
  S     7.496431  9.297131 -6.063393
  S     4.285444  9.588722 -3.485090
  S     6.678062  8.911258 -2.062247
