16  
    
  C     5.380329  6.565181 -4.494841
  C     6.478025  5.917822 -3.840365
  C     5.455806 10.053456 -4.341621
  C     6.711001  9.786532 -3.682020
  N     7.573972  5.589993 -4.520396
  N     5.628004  6.694198 -5.827373
  N     4.724896  6.384087 -2.012314
  N     7.785084  9.837524 -4.450441
  N     5.642832 10.304910 -5.597891
  N     4.981967  9.881898 -1.807009
  S     7.152277  6.056262 -6.094835
  S     3.998937  6.838761 -3.447086
  S     6.298075  5.775334 -2.091372
  S     7.219399 10.067007 -5.976263
  S     4.098107 10.177422 -3.270805
  S     6.568997  9.418525 -1.940998
