16  
    
  C     5.633231  6.093148 -4.299228
  C     6.757979  5.538051 -3.728758
  C     5.623660  9.551674 -4.251526
  C     6.885314  9.108848 -3.665458
  N     7.745752  5.222368 -4.572805
  N     5.734451  6.354128 -5.588333
  N     4.929509  5.779223 -1.892034
  N     7.890060  9.046091 -4.519816
  N     5.671710  9.686791 -5.546147
  N     5.234399  9.307776 -1.749504
  S     7.304669  5.865177 -6.057395
  S     4.301600  6.413426 -3.294553
  S     6.451217  5.091691 -2.066064
  S     7.213677  9.298340 -6.009927
  S     4.273798  9.778704 -3.092695
  S     6.809203  8.848380 -1.998560
