16  
    
  C     5.601724  5.456605 -4.244226
  C     6.777234  5.097692 -3.520219
  C     5.359231  9.214829 -4.281317
  C     6.553235  8.636424 -3.699696
  N     7.833572  4.999230 -4.305327
  N     5.721161  5.611815 -5.573262
  N     5.034886  5.385163 -1.695842
  N     7.492538  8.319674 -4.616741
  N     5.441052  9.377412 -5.592124
  N     4.914199  9.096397 -1.760437
  S     7.327062  5.155997 -5.828766
  S     4.286912  5.845968 -3.114309
  S     6.550987  4.821865 -1.839899
  S     6.948450  8.869130 -6.030833
  S     4.171001  9.684453 -3.128040
  S     6.438681  8.458794 -1.923574
