16  
    
  C     5.667648  6.213725 -4.197042
  C     6.854011  5.592357 -3.697925
  C     5.833071  9.487698 -4.264281
  C     7.000831  8.894398 -3.629347
  N     7.807296  5.444853 -4.601174
  N     5.771118  6.527729 -5.486343
  N     5.158322  5.727093 -1.751312
  N     7.959521  8.702680 -4.536986
  N     5.923678  9.741603 -5.575915
  N     5.463815  9.241620 -1.720005
  S     7.285885  6.061229 -6.034965
  S     4.375538  6.216840 -3.110665
  S     6.747163  5.240670 -2.019168
  S     7.403667  9.171524 -6.010037
  S     4.586850  9.690680 -3.063875
  S     7.056426  8.809576 -1.885737
