16  
    
  C     5.592969  6.295144 -4.622758
  C     6.617004  5.527698 -3.894468
  C     5.699579  9.458761 -4.462746
  C     6.894666  9.089735 -3.790817
  N     7.711071  5.345335 -4.619705
  N     5.985465  6.704031 -5.827530
  N     4.558455  5.752310 -2.303961
  N     7.967484  9.059965 -4.610836
  N     5.848842  9.688419 -5.768365
  N     5.044539  9.195440 -2.016531
  S     7.393501  5.947087 -6.108983
  S     4.130267  6.592393 -3.697882
  S     6.076557  5.158928 -2.282962
  S     7.491453  9.510388 -6.068536
  S     4.376229  9.778982 -3.381528
  S     6.636826  8.765835 -2.102143
