16  
    
  C     5.519286  6.629837 -4.517906
  C     6.628772  5.953878 -3.867638
  C     5.567265 10.195915 -4.412787
  C     6.733873  9.752080 -3.750448
  N     7.609370  5.602073 -4.720138
  N     5.639467  6.827847 -5.793881
  N     4.867261  6.590335 -2.001524
  N     7.814984  9.453429 -4.497498
  N     5.748541 10.309249 -5.768318
  N     4.909197  9.866272 -1.892855
  S     7.133459  6.131533 -6.181743
  S     4.154749  6.916525 -3.480834
  S     6.389259  5.925752 -2.099589
  S     7.319849  9.900495 -6.034360
  S     4.184406 10.313013 -3.357472
  S     6.462072  9.544271 -2.020837
