16  
    
  C     5.714973  5.587793 -4.321247
  C     6.939605  5.245957 -3.596907
  C     5.103497  9.849918 -4.624095
  C     6.275653  9.290153 -3.960743
  N     8.017998  5.075450 -4.367916
  N     5.840498  5.594138 -5.617399
  N     5.147635  5.678225 -1.762334
  N     7.345824  8.986647 -4.701160
  N     5.393285 10.013903 -5.926052
  N     4.452035  9.816577 -2.151812
  S     7.440776  5.258691 -5.926246
  S     4.340981  5.735928 -3.221012
  S     6.779526  5.261256 -1.830738
  S     6.904371  9.317215 -6.266305
  S     3.769269 10.229134 -3.565203
  S     6.041374  9.145937 -2.280349
