16  
    
  C     5.275108  5.949602 -4.278471
  C     6.457943  5.438678 -3.695869
  C     5.400932  9.470156 -4.128308
  C     6.593663  8.919988 -3.531405
  N     7.451974  5.087811 -4.530761
  N     5.260942  5.984756 -5.614067
  N     4.710741  5.683405 -1.796438
  N     7.510880  8.499839 -4.427777
  N     5.502478  9.665258 -5.445863
  N     4.978551  9.207551 -1.615471
  S     6.820926  5.517170 -6.057434
  S     3.865097  6.052020 -3.177675
  S     6.330534  5.273596 -1.938160
  S     6.933856  8.926273 -5.906542
  S     4.091382  9.682757 -2.953717
  S     6.575642  8.911451 -1.798054
