16  
    
  C     5.342465  6.349416 -4.465482
  C     6.464882  5.879591 -3.744731
  C     5.483101 10.067200 -4.222348
  C     6.746253  9.760815 -3.634077
  N     7.583094  5.629017 -4.471854
  N     5.578850  6.528872 -5.767782
  N     4.538468  6.148923 -2.051519
  N     7.762119  9.812284 -4.482428
  N     5.498426 10.235073 -5.527386
  N     4.917677  9.786331 -1.750127
  S     7.111012  6.062956 -6.085643
  S     4.004855  6.797796 -3.460052
  S     6.134528  5.669713 -2.054178
  S     7.127299 10.205664 -5.968594
  S     4.176007 10.004807 -3.143044
  S     6.554214  9.418210 -1.912043
