16  
    
  C     5.593214  5.990850 -4.428717
  C     6.767293  5.666828 -3.726933
  C     5.581320  9.442401 -4.370795
  C     6.815856  9.148731 -3.693522
  N     7.839308  5.476027 -4.487153
  N     5.706954  6.063357 -5.751780
  N     4.856064  5.855359 -1.946016
  N     7.888508  9.058917 -4.459239
  N     5.775236  9.661853 -5.657264
  N     5.026950  9.503227 -1.864278
  S     7.360695  5.721179 -6.049832
  S     4.156193  6.231760 -3.453426
  S     6.477528  5.672914 -1.926732
  S     7.367709  9.292949 -6.036113
  S     4.173620  9.592950 -3.357005
  S     6.589183  9.084068 -1.918897
