16  
    
  C     5.522632  5.169671 -4.184910
  C     6.910460  5.104077 -3.671461
  C     5.424729  9.226840 -4.536038
  C     6.578758  8.759118 -3.817488
  N     7.864743  5.147261 -4.600620
  N     5.486167  5.110301 -5.493920
  N     5.239014  5.211022 -1.683195
  N     7.665054  8.524483 -4.528754
  N     5.591955  9.310304 -5.863069
  N     4.800265  9.106251 -2.048216
  S     7.004170  5.107659 -6.092618
  S     4.244655  5.277515 -3.058992
  S     6.859622  5.026607 -1.921101
  S     7.195390  8.926913 -6.121849
  S     4.077351  9.570964 -3.469294
  S     6.393097  8.725420 -2.145128
