16  
    
  C     5.553910  5.306629 -4.158635
  C     6.815828  5.122278 -3.491454
  C     5.707069  9.156112 -4.055078
  C     6.952485  8.811384 -3.407738
  N     7.856026  5.003572 -4.323179
  N     5.611218  5.438603 -5.480247
  N     5.027763  5.240119 -1.655293
  N     7.962362  8.662414 -4.274579
  N     5.798437  9.337150 -5.364711
  N     5.315858  9.214423 -1.534892
  S     7.152780  5.181535 -5.849440
  S     4.263372  5.538466 -3.075374
  S     6.694667  5.056163 -1.755131
  S     7.383678  9.057686 -5.747253
  S     4.440834  9.593554 -2.925504
  S     6.869830  8.713858 -1.677632
