16  
    
  C     5.695145  5.773535 -3.944447
  C     6.887467  5.244267 -3.356695
  C     5.496780  9.420402 -3.969769
  C     6.685875  8.914632 -3.359305
  N     7.882436  5.182049 -4.236842
  N     5.770459  6.163939 -5.202110
  N     5.003988  5.286499 -1.571560
  N     7.738012  8.788217 -4.139447
  N     5.667683  9.724817 -5.265834
  N     5.002885  9.151796 -1.465118
  S     7.380450  5.836648 -5.621220
  S     4.298387  5.905177 -2.967332
  S     6.623489  4.701691 -1.701609
  S     7.256456  9.300200 -5.623542
  S     4.269981  9.712314 -2.837446
  S     6.562018  8.544165 -1.691914
