16  
    
  C     5.853777  5.768099 -4.491595
  C     7.038978  5.419581 -3.764194
  C     5.593908  9.653729 -4.310974
  C     6.875008  9.283914 -3.734385
  N     8.174315  5.306058 -4.484178
  N     6.037299  5.894197 -5.814099
  N     5.168808  5.850381 -2.015270
  N     7.910338  9.237166 -4.553756
  N     5.640174  9.770777 -5.608280
  N     5.113485  9.156758 -1.829460
  S     7.625350  5.496837 -6.047584
  S     4.490435  6.232826 -3.474146
  S     6.776443  5.336247 -2.025046
  S     7.175011  9.515596 -6.074063
  S     4.217955  9.546680 -3.195917
  S     6.710843  8.842465 -2.121020
