16  
    
  C     5.468215  5.949682 -4.241976
  C     6.568645  5.267163 -3.665599
  C     5.685475  9.962310 -4.528922
  C     6.696919  9.233019 -3.833871
  N     7.543122  4.917204 -4.493268
  N     5.655183  6.252523 -5.508524
  N     4.937563  5.704570 -1.770317
  N     7.770360  9.067425 -4.602169
  N     5.949033 10.312228 -5.786545
  N     4.676313  9.092514 -2.311748
  S     7.093705  5.478612 -5.989380
  S     4.144223  6.197103 -3.137365
  S     6.372200  4.912092 -1.951339
  S     7.424036  9.701417 -6.082168
  S     4.177540 10.012859 -3.584563
  S     6.296824  8.635357 -2.278468
