16  
    
  C     5.618351  6.104446 -4.493559
  C     6.826258  5.622385 -3.747993
  C     5.588515  9.719811 -4.388371
  C     6.777710  9.230000 -3.716489
  N     7.898048  5.452039 -4.527664
  N     5.794231  6.248880 -5.785525
  N     4.993917  5.910170 -2.033620
  N     7.803948  8.951425 -4.524865
  N     5.781132  9.810465 -5.695958
  N     4.830577  9.363964 -1.928351
  S     7.343184  5.832663 -6.140815
  S     4.198187  6.284354 -3.493928
  S     6.618326  5.503085 -2.046691
  S     7.356787  9.512110 -6.076801
  S     4.175506  9.904864 -3.391854
  S     6.471365  8.975747 -2.041268
