16  
    
  C     5.629746  5.710411 -4.297524
  C     6.719196  5.042268 -3.589227
  C     5.417635  9.296175 -4.193789
  C     6.602520  8.742107 -3.560478
  N     7.704409  4.674706 -4.381181
  N     5.890124  6.029357 -5.567994
  N     4.988694  5.510859 -1.767429
  N     7.555184  8.324141 -4.369097
  N     5.525361  9.426070 -5.510730
  N     4.817487  9.017096 -1.727975
  S     7.315840  5.253437 -5.947008
  S     4.355844  6.063407 -3.172119
  S     6.596920  4.965195 -1.920359
  S     7.040488  8.837519 -5.923840
  S     4.102337  9.515171 -3.134735
  S     6.414927  8.527563 -1.819685
