16  
    
  C     5.634265  5.723195 -4.351778
  C     6.831640  5.112749 -3.872909
  C     5.763363  9.902632 -4.499221
  C     6.908763  9.451249 -3.786238
  N     7.884640  5.022799 -4.695953
  N     5.708879  6.148800 -5.601844
  N     5.282085  5.452272 -1.800258
  N     7.945209  9.299326 -4.640164
  N     5.884946 10.186129 -5.795637
  N     4.983911  8.941859 -2.233049
  S     7.215169  5.642819 -6.156242
  S     4.349643  5.920209 -3.140567
  S     6.841018  4.907001 -2.059090
  S     7.434083  9.752609 -6.163588
  S     4.285747  9.562890 -3.562860
  S     6.612074  8.858408 -2.235834
