16  
    
  C     5.433765  6.587285 -4.541035
  C     6.519595  5.981434 -3.774781
  C     5.511501 10.142426 -4.329426
  C     6.733237  9.751339 -3.646669
  N     7.518596  5.565695 -4.550764
  N     5.668634  6.760756 -5.818549
  N     4.812814  6.500801 -2.022163
  N     7.785698  9.713151 -4.456858
  N     5.662298 10.299958 -5.679436
  N     4.895893  9.910163 -1.884260
  S     7.132021  6.093893 -6.134104
  S     4.079233  6.845007 -3.456306
  S     6.340808  5.840130 -2.120543
  S     7.303410  9.994603 -6.006066
  S     4.100400 10.232691 -3.269184
  S     6.548678  9.461778 -2.015213
