16  
    
  C     5.431035  6.587466 -4.545560
  C     6.516119  5.976964 -3.776291
  C     5.511711 10.132918 -4.324012
  C     6.728788  9.753595 -3.646654
  N     7.520495  5.565500 -4.539282
  N     5.667790  6.755181 -5.818521
  N     4.806219  6.493677 -2.022910
  N     7.780463  9.727269 -4.457387
  N     5.661960 10.301124 -5.673070
  N     4.900171  9.910037 -1.880772
  S     7.131669  6.092122 -6.132602
  S     4.072455  6.843567 -3.454423
  S     6.339459  5.834584 -2.119672
  S     7.299228  9.999512 -6.004346
  S     4.097397 10.229234 -3.268597
  S     6.552850  9.457467 -2.011023
