16  
    
  C     5.237266  6.255026 -4.501312
  C     6.424754  5.686184 -3.903642
  C     5.424095  9.650408 -4.081796
  C     6.723951  9.392710 -3.536461
  N     7.447564  5.537512 -4.703949
  N     5.389294  6.603126 -5.779254
  N     4.584054  6.037611 -2.073300
  N     7.773621  9.608965 -4.378566
  N     5.456789 10.049029 -5.360284
  N     5.010000  9.108751 -1.617899
  S     6.945474  6.143845 -6.163924
  S     3.832078  6.398525 -3.541767
  S     6.157751  5.487634 -2.133941
  S     7.027099  9.962066 -5.822584
  S     4.149291  9.602297 -2.942280
  S     6.700897  8.982570 -1.787899
