16  
    
  C     5.634641  5.736804 -4.341111
  C     6.852059  5.077169 -3.794725
  C     5.699108  9.904526 -4.471039
  C     6.932795  9.459310 -3.838358
  N     7.775637  5.037511 -4.726052
  N     5.708410  6.144068 -5.604592
  N     5.282902  5.385849 -1.832613
  N     8.027717  9.328303 -4.603025
  N     5.913455 10.199455 -5.746373
  N     5.019222  8.898914 -2.202950
  S     7.230488  5.714568 -6.127967
  S     4.433528  5.839770 -3.130471
  S     6.836556  4.860158 -2.099354
  S     7.463713  9.770829 -6.145237
  S     4.332765  9.691942 -3.511609
  S     6.684215  8.806246 -2.196722
