16  
    
  C     5.586533  6.076304 -4.467998
  C     6.796681  5.793714 -3.721804
  C     5.504645  9.629335 -4.488252
  C     6.661787  9.167236 -3.770300
  N     7.851581  5.573883 -4.498437
  N     5.783758  6.149225 -5.796830
  N     4.914373  5.978616 -1.914573
  N     7.798179  9.105531 -4.434399
  N     5.728201  9.836805 -5.793000
  N     4.914439  9.500580 -1.966937
  S     7.371419  5.805085 -6.114654
  S     4.294212  6.398156 -3.388341
  S     6.517478  5.589335 -2.069065
  S     7.375426  9.333017 -6.004853
  S     4.192844  9.898637 -3.361623
  S     6.540762  8.962907 -2.055345
