16  
    
  C     5.820848  5.520906 -4.243946
  C     6.953572  5.037493 -3.535186
  C     5.668623  9.603032 -4.379989
  C     6.813744  8.955955 -3.766888
  N     8.062209  4.820925 -4.227215
  N     6.012408  5.475149 -5.555906
  N     5.137857  5.265001 -1.752544
  N     7.891081  8.937161 -4.574111
  N     5.878579  9.959721 -5.641968
  N     5.011874  9.062965 -1.983557
  S     7.637026  5.161943 -5.764726
  S     4.435864  5.707537 -3.208127
  S     6.683565  4.748358 -1.828980
  S     7.415794  9.507461 -6.016430
  S     4.257490  9.692161 -3.364688
  S     6.589131  8.600696 -2.055236
