16  
    
  C     5.193207  6.290199 -4.556512
  C     6.473114  5.916809 -3.994798
  C     5.518252  9.477553 -4.035388
  C     6.820106  9.089812 -3.470616
  N     7.516980  5.893347 -4.828574
  N     5.271766  6.421656 -5.905282
  N     4.807126  5.787744 -2.105649
  N     7.834553  9.215361 -4.319227
  N     5.641584  9.930395 -5.289957
  N     5.129663  9.010325 -1.525541
  S     6.804696  6.170796 -6.387422
  S     3.966755  6.456438 -3.363268
  S     6.448583  5.559261 -2.329870
  S     7.211438  9.668647 -5.786818
  S     4.237791  9.280040 -2.952623
  S     6.670233  8.551369 -1.805303
