16  
    
  C     5.596449  5.654100 -4.257019
  C     6.689272  5.064822 -3.603816
  C     5.466213  9.272982 -4.188903
  C     6.676986  8.845077 -3.520231
  N     7.737237  5.008485 -4.447034
  N     5.633890  5.818978 -5.583916
  N     4.969243  5.579745 -1.736282
  N     7.734811  8.780324 -4.310647
  N     5.608672  9.323257 -5.519909
  N     4.909557  9.106266 -1.650415
  S     7.178225  5.321147 -5.942255
  S     4.305808  6.111982 -3.188518
  S     6.385727  4.822396 -1.888834
  S     7.233796  9.137850 -5.801515
  S     4.121414  9.448474 -3.133355
  S     6.480466  8.568696 -1.775497
