16  
    
  C     5.247119  6.288800 -4.319397
  C     6.367778  5.624993 -3.647770
  C     5.572580  9.546544 -4.259547
  C     6.815099  9.038923 -3.685798
  N     7.321312  5.271800 -4.526663
  N     5.481595  6.492045 -5.621103
  N     4.655324  6.276675 -1.865395
  N     7.851255  8.856387 -4.479708
  N     5.716038  9.736701 -5.550152
  N     5.112370  9.485530 -1.698572
  S     7.013389  5.911313 -6.006552
  S     3.896277  6.704179 -3.301243
  S     6.124687  5.565045 -1.978438
  S     7.281930  9.278667 -5.985507
  S     4.307770  9.829617 -3.066004
  S     6.632294  8.949527 -1.919593
