16  
    
  C     5.134357  5.267341 -4.129969
  C     6.344791  4.777195 -3.440579
  C     5.402048  9.311569 -4.278791
  C     6.624925  8.915767 -3.652736
  N     7.334557  4.695924 -4.318423
  N     5.285885  5.486195 -5.429137
  N     4.532666  5.078363 -1.594783
  N     7.637243  8.764632 -4.515497
  N     5.494821  9.448201 -5.626837
  N     4.863205  9.427145 -1.780010
  S     6.829104  5.014334 -5.850076
  S     3.764792  5.571530 -3.032324
  S     6.208517  4.695349 -1.693559
  S     7.026038  9.184193 -6.018715
  S     4.089118  9.621844 -3.223619
  S     6.492481  9.030188 -1.865928
