16  
    
  C     5.378729  6.165251 -4.464694
  C     6.539509  5.603061 -3.781010
  C     5.564262  9.528475 -4.163123
  C     6.727046  9.086759 -3.480989
  N     7.539523  5.370035 -4.613618
  N     5.535346  6.433713 -5.756869
  N     4.614257  5.869252 -1.986923
  N     7.800568  9.041759 -4.274396
  N     5.649641  9.849039 -5.464937
  N     4.940606  9.423573 -1.690428
  S     7.098601  5.883840 -6.052902
  S     3.980897  6.446679 -3.410335
  S     6.222109  5.499193 -2.066124
  S     7.232412  9.438809 -5.823732
  S     4.145054  9.609077 -3.179731
  S     6.484882  8.915254 -1.787105
