16  
    
  C     5.519326  5.214240 -4.255608
  C     6.871706  5.206469 -3.734155
  C     5.497944  9.245593 -4.516734
  C     6.673904  8.862934 -3.776283
  N     7.828875  5.086504 -4.653262
  N     5.453369  5.067324 -5.569718
  N     5.236625  5.212652 -1.683069
  N     7.736963  8.724455 -4.560597
  N     5.695369  9.373384 -5.834414
  N     4.744651  9.145307 -2.060168
  S     7.053212  5.085020 -6.092904
  S     4.350808  5.343891 -3.052054
  S     6.867700  4.984124 -1.970357
  S     7.261539  8.919764 -6.103632
  S     4.091737  9.610334 -3.542425
  S     6.361570  8.663881 -2.069944
