16  
    
  C     5.105738  5.898858 -4.263448
  C     6.353230  5.563047 -3.609963
  C     5.448256  9.417631 -4.015424
  C     6.675006  8.881930 -3.488680
  N     7.317645  5.269709 -4.503552
  N     5.205966  5.939097 -5.590038
  N     4.546526  5.888243 -1.784402
  N     7.709325  8.680829 -4.354997
  N     5.458173  9.469891 -5.335062
  N     5.188861  9.599176 -1.420928
  S     6.810154  5.695436 -6.005858
  S     3.759747  6.276777 -3.222214
  S     6.187093  5.511363 -1.914134
  S     6.987194  8.993043 -5.819630
  S     4.312209  9.962609 -2.840164
  S     6.561549  8.733513 -1.745229
