16  
    
  C     5.331857  6.040230 -4.365366
  C     6.616457  5.498736 -3.799661
  C     5.512955  9.182696 -4.430578
  C     6.775499  8.893514 -3.770814
  N     7.577009  5.406255 -4.691753
  N     5.341182  6.244602 -5.676984
  N     4.948120  5.802611 -1.904891
  N     7.827567  8.884490 -4.596196
  N     5.666290  9.523392 -5.680185
  N     4.893939  9.123344 -1.968499
  S     6.944641  5.885697 -6.113074
  S     4.077848  6.277248 -3.228653
  S     6.568371  5.358589 -2.061073
  S     7.208574  9.187555 -6.138073
  S     4.115392  9.185323 -3.431044
  S     6.537856  8.794271 -2.011556
