16  
    
  C     5.735330  5.331680 -4.260334
  C     6.961667  4.968600 -3.598221
  C     5.702906  9.489286 -4.421504
  C     6.842185  8.949065 -3.717094
  N     8.044747  4.762361 -4.342630
  N     5.957808  5.592391 -5.534974
  N     5.150902  5.329787 -1.735467
  N     7.881027  8.711386 -4.535871
  N     5.883775  9.841108 -5.687233
  N     4.875577  9.125405 -2.002677
  S     7.519629  5.064651 -5.913446
  S     4.359833  5.597763 -3.202104
  S     6.757897  4.861480 -1.852838
  S     7.449723  9.436172 -6.044817
  S     4.278452  9.664394 -3.438866
  S     6.486661  8.691530 -2.056475
