16  
    
  C     5.512464  5.863923 -4.351285
  C     6.611590  5.217841 -3.671684
  C     5.725211  9.180806 -4.198127
  C     6.971079  8.756311 -3.604608
  N     7.606118  4.858470 -4.448766
  N     5.788766  6.047972 -5.610607
  N     4.776375  5.620682 -1.948324
  N     7.993777  8.750008 -4.431230
  N     5.812544  9.484191 -5.483177
  N     5.184739  9.015978 -1.724353
  S     7.304413  5.451810 -5.966029
  S     4.096011  6.040080 -3.419716
  S     6.328685  4.983176 -2.040454
  S     7.418838  9.208966 -5.928691
  S     4.350882  9.340016 -3.163320
  S     6.812585  8.757347 -1.908736
