16  
    
  C     5.499484  6.171793 -4.459668
  C     6.737731  5.600538 -3.960777
  C     5.415580  9.994026 -4.417029
  C     6.607953  9.425500 -3.781594
  N     7.702810  5.457934 -4.868796
  N     5.439263  6.323018 -5.795931
  N     5.278787  5.843269 -1.912080
  N     7.615622  9.083527 -4.537890
  N     5.673695 10.115767 -5.675343
  N     4.783068  9.432796 -1.998322
  S     6.945604  5.818681 -6.276894
  S     4.336427  6.353188 -3.204115
  S     6.761198  5.293523 -2.290583
  S     7.185334  9.518525 -6.088585
  S     4.115422 10.255968 -3.281066
  S     6.375661  9.010477 -2.108117
