16  
    
  C     5.358191  5.906804 -4.254594
  C     6.608165  5.467320 -3.639803
  C     5.410745  9.583282 -4.451745
  C     6.615795  9.139714 -3.794535
  N     7.553237  5.340268 -4.537431
  N     5.434804  6.240057 -5.536563
  N     4.936698  5.644387 -1.673837
  N     7.685041  8.876196 -4.564545
  N     5.591395  9.681397 -5.773502
  N     5.059742  9.741847 -1.881190
  S     7.043800  5.920927 -6.010699
  S     4.100282  6.059680 -3.087058
  S     6.586094  5.373024 -1.942239
  S     7.190753  9.227057 -6.100600
  S     4.176726  9.670238 -3.271693
  S     6.615395  9.215460 -2.046900
