16  
    
  C     5.356823  5.868210 -4.250210
  C     6.565886  5.469015 -3.698497
  C     5.446931  9.506225 -4.459475
  C     6.646579  9.080370 -3.764485
  N     7.591098  5.340789 -4.544320
  N     5.475880  6.229499 -5.522551
  N     4.902517  5.612680 -1.740189
  N     7.617238  8.852353 -4.614961
  N     5.483326  9.661577 -5.782949
  N     5.056379  9.740230 -1.883545
  S     7.044967  5.891430 -6.016109
  S     4.082370  6.056236 -3.100740
  S     6.567428  5.381887 -1.946895
  S     7.158427  9.235509 -6.144028
  S     4.148351  9.651036 -3.256325
  S     6.608409  9.236231 -2.033325
