16  
    
  C     5.181305  6.301829 -4.571255
  C     6.448442  5.905728 -4.003848
  C     5.495052  9.480324 -4.044108
  C     6.832991  9.119436 -3.485416
  N     7.499182  5.886443 -4.849149
  N     5.274281  6.414928 -5.900098
  N     4.788518  5.790335 -2.100452
  N     7.847435  9.236031 -4.309058
  N     5.622236  9.928213 -5.294058
  N     5.116211  9.009991 -1.524640
  S     6.822420  6.169561 -6.374609
  S     3.957471  6.464823 -3.355374
  S     6.439437  5.556078 -2.316874
  S     7.210110  9.686108 -5.791935
  S     4.213204  9.292096 -2.939997
  S     6.673002  8.556134 -1.805748
