16  
    
  C     5.620131  5.601607 -4.440037
  C     6.824597  5.371673 -3.687397
  C     5.681318  9.420474 -4.071741
  C     6.874236  8.833426 -3.532914
  N     7.851683  5.129444 -4.455892
  N     5.681750  5.451758 -5.751223
  N     5.055393  5.731455 -1.858747
  N     7.905675  8.780455 -4.387549
  N     5.765773  9.873467 -5.310306
  N     5.185777  9.082742 -1.626665
  S     7.354691  5.186383 -6.071516
  S     4.277870  5.846576 -3.325146
  S     6.671742  5.271896 -1.951015
  S     7.363783  9.477904 -5.794012
  S     4.409350  9.620354 -3.019787
  S     6.743612  8.612087 -1.797949
