16  
    
  C     5.795549  5.595149 -4.274911
  C     7.003065  5.204644 -3.641514
  C     5.523947  9.403589 -4.521031
  C     6.677219  8.850871 -3.831648
  N     8.087055  5.009536 -4.408937
  N     5.855937  5.700613 -5.612694
  N     5.135351  5.329725 -1.737251
  N     7.749328  8.699808 -4.624043
  N     5.643533  9.555573 -5.825682
  N     4.821527  9.218044 -2.055287
  S     7.457493  5.323883 -5.926353
  S     4.460987  5.908355 -3.147285
  S     6.722117  4.836510 -1.908214
  S     7.120911  9.046749 -6.199089
  S     4.085373  9.624498 -3.506089
  S     6.334867  8.568043 -2.169940
