16  
    
  C     5.900544  5.970677 -4.400719
  C     7.046688  5.560713 -3.710359
  C     5.660319  9.546448 -4.401938
  C     6.903755  9.220372 -3.733687
  N     8.083761  5.245694 -4.448815
  N     6.094957  5.992727 -5.713276
  N     5.118478  5.615861 -2.009504
  N     7.866661  9.102981 -4.633513
  N     5.716630  9.716793 -5.695778
  N     5.095525  9.235004 -1.857651
  S     7.681923  5.609413 -6.051457
  S     4.477049  6.193794 -3.468203
  S     6.748398  5.425572 -2.017817
  S     7.279827  9.433348 -6.126513
  S     4.334710  9.717436 -3.264461
  S     6.721230  8.827934 -1.995501
