16  
    
  C     5.587684  5.244060 -4.266847
  C     6.890797  5.003774 -3.732302
  C     5.622840  9.420249 -4.494489
  C     6.755992  8.961860 -3.734325
  N     7.900513  4.899864 -4.601145
  N     5.621652  5.316408 -5.603246
  N     5.270140  5.269217 -1.753350
  N     7.832813  8.757738 -4.487675
  N     5.829053  9.467902 -5.809304
  N     4.761265  9.116913 -2.074563
  S     7.199943  5.038615 -6.069977
  S     4.296421  5.431828 -3.085439
  S     6.896127  4.991601 -1.998676
  S     7.414267  9.079482 -6.020048
  S     4.173399  9.671665 -3.547245
  S     6.357202  8.692196 -2.091375
