16  
    
  C     5.564145  5.905954 -4.513690
  C     6.760236  5.347698 -3.802233
  C     5.581637  9.746247 -4.203591
  C     6.834740  9.256745 -3.676422
  N     7.840677  5.253434 -4.580136
  N     5.735727  6.003926 -5.816430
  N     4.882852  5.623628 -2.048340
  N     7.763071  9.051283 -4.596223
  N     5.589697  9.945787 -5.509173
  N     5.011857  9.242167 -1.794763
  S     7.307591  5.634671 -6.204827
  S     4.212533  6.211184 -3.421657
  S     6.493998  5.087401 -2.093410
  S     7.147352  9.664027 -6.039517
  S     4.248342  9.890658 -3.049794
  S     6.646712  8.754609 -2.013470
