16  
    
  C     5.271854  6.308180 -4.495196
  C     6.386774  5.670227 -3.812599
  C     5.434553  9.585859 -4.156166
  C     6.654335  9.281143 -3.464298
  N     7.431986  5.447748 -4.586975
  N     5.499095  6.502708 -5.775444
  N     4.601204  5.864519 -2.032895
  N     7.724786  9.123443 -4.267771
  N     5.583362  9.698562 -5.518971
  N     4.931228  9.372104 -1.607684
  S     7.027241  5.998921 -6.156672
  S     3.885569  6.471652 -3.427411
  S     6.217274  5.491825 -2.105690
  S     7.191745  9.511032 -5.765092
  S     4.049227  9.503151 -3.026913
  S     6.520583  8.889991 -1.750797
