16  
    
  C     5.628791  5.785082 -4.127507
  C     6.834560  5.237579 -3.547327
  C     5.771085  9.161431 -3.984722
  C     7.035856  8.797138 -3.367725
  N     7.821225  5.028627 -4.412706
  N     5.674092  6.057516 -5.424239
  N     5.238607  5.249772 -1.639619
  N     8.061992  8.737897 -4.239027
  N     5.838294  9.486129 -5.253774
  N     5.310759  8.988198 -1.451958
  S     7.206366  5.489339 -5.882006
  S     4.470240  5.989591 -2.912586
  S     6.807488  4.859830 -1.922428
  S     7.487565  9.241625 -5.700354
  S     4.472779  9.270263 -2.845105
  S     6.946354  8.644997 -1.606275
