16  
    
  C     5.343098  6.072520 -4.386480
  C     6.627792  5.735495 -3.720989
  C     5.422716  9.769528 -4.384000
  C     6.628812  9.348678 -3.712792
  N     7.587863  5.689288 -4.623127
  N     5.423857  6.208567 -5.703381
  N     4.885303  5.960623 -1.869581
  N     7.692984  9.093246 -4.474590
  N     5.605082  9.836195 -5.732297
  N     4.809718  9.361167 -1.849365
  S     7.011598  5.873329 -6.148330
  S     4.050127  6.232045 -3.308927
  S     6.505637  5.650397 -1.998204
  S     7.213300  9.423083 -6.044439
  S     4.113311  9.958052 -3.256507
  S     6.495459  9.015405 -1.963454
