16  
    
  C     5.617577  5.771335 -4.336337
  C     6.904439  5.419966 -3.771831
  C     5.612779  9.607965 -4.268155
  C     6.937349  9.300947 -3.776495
  N     7.838537  5.306961 -4.712107
  N     5.590490  5.805177 -5.658202
  N     5.190396  5.640708 -1.836448
  N     7.883390  9.229529 -4.689064
  N     5.622420  9.807568 -5.586439
  N     5.277358  9.225878 -1.807200
  S     7.143673  5.636265 -6.207186
  S     4.347129  5.955185 -3.229757
  S     6.841213  5.306389 -2.090386
  S     7.181847  9.530529 -6.107198
  S     4.366342  9.624224 -3.108450
  S     6.863016  8.800961 -2.116068
