16  
    
  C     5.489838  6.005864 -4.428689
  C     6.585875  5.388110 -3.718987
  C     5.708780  9.641903 -4.220010
  C     6.944662  9.275971 -3.562572
  N     7.578797  5.069741 -4.488632
  N     5.721987  6.171817 -5.717216
  N     4.903180  5.913951 -1.905464
  N     7.984403  9.057799 -4.383590
  N     5.815011  9.687916 -5.541756
  N     5.141078  9.394387 -1.722611
  S     7.179363  5.437362 -6.080752
  S     4.228185  6.423522 -3.387782
  S     6.477189  5.442240 -1.983479
  S     7.451154  9.237774 -5.904171
  S     4.375040  9.834266 -3.158577
  S     6.787450  9.020038 -1.852192
