16  
    
  C     5.458788  5.986196 -4.429017
  C     6.751882  5.632638 -3.807118
  C     5.468235  9.660129 -4.309826
  C     6.674084  9.142484 -3.659776
  N     7.776489  5.569785 -4.660991
  N     5.569061  6.190221 -5.746884
  N     5.025494  5.668309 -1.888009
  N     7.666152  8.975055 -4.527471
  N     5.573159  9.881877 -5.650740
  N     5.051935  9.519086 -1.755718
  S     7.089902  5.838299 -6.160708
  S     4.221190  6.323461 -3.238360
  S     6.671229  5.439155 -2.022290
  S     7.160555  9.523880 -6.041109
  S     4.216244  9.732454 -3.109591
  S     6.591215  8.927211 -1.929143
