16  
    
  C     5.575307  5.311665 -4.160633
  C     6.806171  5.045461 -3.510341
  C     5.380105  9.303001 -4.373069
  C     6.572134  8.760070 -3.770685
  N     7.827006  5.001410 -4.353404
  N     5.582364  5.375734 -5.484388
  N     4.951586  5.202820 -1.673612
  N     7.521436  8.488134 -4.640902
  N     5.421231  9.346401 -5.723265
  N     4.902269  9.046662 -1.843569
  S     7.205234  5.122179 -5.866314
  S     4.249552  5.375539 -3.109114
  S     6.609251  4.959577 -1.723153
  S     6.931010  8.792888 -6.170486
  S     4.151064  9.690068 -3.175026
  S     6.477352  8.511233 -2.067768
