16  
    
  C     5.573600  5.357313 -4.104515
  C     6.930683  5.075028 -3.513246
  C     5.530780  9.492968 -4.725229
  C     6.662614  8.928523 -4.015910
  N     7.942196  5.005583 -4.415912
  N     5.585933  5.512769 -5.427970
  N     5.191298  4.994724 -1.557723
  N     7.632976  8.507616 -4.789731
  N     5.707388  9.599235 -6.056180
  N     4.880007  9.447706 -2.165700
  S     7.137999  5.206316 -5.877377
  S     4.288153  5.237726 -2.937811
  S     6.812950  4.917027 -1.764841
  S     7.163830  8.865736 -6.366331
  S     4.123976  9.688524 -3.623616
  S     6.454983  8.886322 -2.285679
