16  
    
  C     5.640822  5.556884 -4.156500
  C     6.909957  5.260738 -3.669392
  C     5.503007  9.479116 -4.498422
  C     6.592626  8.796651 -3.856560
  N     7.844936  5.168824 -4.587405
  N     5.582203  5.803908 -5.444740
  N     5.376402  5.243249 -1.607762
  N     7.635757  8.506830 -4.612142
  N     5.797527  9.727108 -5.782239
  N     4.873982  9.213759 -2.055454
  S     7.084402  5.487981 -6.059776
  S     4.373265  5.457547 -2.944020
  S     6.978177  5.072026 -1.973352
  S     7.359391  9.119583 -6.048052
  S     4.089017  9.598061 -3.505646
  S     6.306708  8.417565 -2.149641
