16  
    
  C     5.448180  5.619202 -4.205005
  C     6.667804  5.230119 -3.493252
  C     5.871284  9.000905 -3.957838
  C     7.087798  8.553373 -3.376137
  N     7.681582  4.940928 -4.264007
  N     5.629434  5.580896 -5.501433
  N     4.838709  5.811632 -1.796013
  N     8.095674  8.512209 -4.287984
  N     5.941398  9.274495 -5.261824
  N     5.359956  8.335294 -1.509044
  S     7.195276  5.158730 -5.830568
  S     4.089985  6.048430 -3.251626
  S     6.351997  5.087885 -1.804252
  S     7.507273  9.010828 -5.710545
  S     4.574204  9.096444 -2.779406
  S     7.025418  8.323130 -1.664811
