16  
    
  C     5.614800  6.065378 -4.368279
  C     6.835423  5.514678 -3.772362
  C     5.761204  9.376987 -4.247949
  C     6.980923  8.889829 -3.686005
  N     7.863046  5.496741 -4.612783
  N     5.697894  6.518704 -5.620240
  N     5.225753  5.734801 -1.773192
  N     8.017409  8.667973 -4.524854
  N     5.903235  9.708565 -5.537742
  N     5.359415  9.139034 -1.706813
  S     7.224326  6.065993 -6.034255
  S     4.339502  6.192340 -3.157849
  S     6.770834  5.162576 -2.019121
  S     7.435683  9.241231 -5.997317
  S     4.540686  9.634190 -3.065336
  S     7.012393  8.818188 -1.961672
