16  
    
  C     5.260862  6.337623 -4.377353
  C     6.445653  5.792398 -3.746268
  C     5.684423  9.532563 -4.263759
  C     6.878526  9.044698 -3.662290
  N     7.414169  5.452320 -4.593399
  N     5.375404  6.586537 -5.697287
  N     4.693390  5.977643 -1.868807
  N     7.956123  8.888174 -4.458829
  N     5.849508  9.748438 -5.605744
  N     5.310676  9.524996 -1.690829
  S     6.855932  6.055350 -6.093497
  S     3.902800  6.561250 -3.224290
  S     6.268712  5.581663 -2.026529
  S     7.405179  9.237069 -6.017945
  S     4.385766  9.778505 -3.087616
  S     6.881565  8.927808 -1.902569
