16  
    
  C     5.342979  5.601687 -4.194428
  C     6.414521  4.847694 -3.588143
  C     5.572276  9.551313 -4.438449
  C     6.779990  9.111780 -3.778311
  N     7.308673  4.524886 -4.485668
  N     5.458539  5.904108 -5.476644
  N     4.826687  5.417430 -1.649663
  N     7.763246  8.774531 -4.602930
  N     5.669482  9.633330 -5.773436
  N     4.956514  9.128222 -1.970557
  S     6.803520  5.053364 -5.997252
  S     4.075385  6.094562 -2.998462
  S     6.272636  4.635631 -1.806253
  S     7.280227  9.080354 -6.131436
  S     4.264141  9.805898 -3.351940
  S     6.578469  8.799010 -2.038195
