16  
    
  C     5.161048  5.902286 -4.287645
  C     6.314329  5.455807 -3.693525
  C     5.463560  9.493299 -4.088604
  C     6.624533  8.869340 -3.491074
  N     7.304311  5.175778 -4.537391
  N     5.264537  6.125457 -5.584922
  N     4.645764  5.780186 -1.765503
  N     7.506101  8.478844 -4.384635
  N     5.434023  9.611882 -5.385027
  N     4.998503  9.282804 -1.513713
  S     6.774727  5.528937 -6.029185
  S     3.861677  6.084167 -3.195611
  S     6.259466  5.378446 -1.972978
  S     6.901500  8.937448 -5.828609
  S     4.189837  9.794227 -2.923114
  S     6.590833  8.888331 -1.764585
