16  
    
  C     5.101106  6.316233 -4.539101
  C     6.346481  5.926179 -3.939342
  C     5.359231  9.581600 -4.165867
  C     6.658636  9.266313 -3.626959
  N     7.387627  5.993276 -4.779000
  N     5.142967  6.533568 -5.825625
  N     4.592892  6.018478 -2.022079
  N     7.712607  9.310442 -4.464120
  N     5.410806  9.980392 -5.476723
  N     5.023132  9.207550 -1.623842
  S     6.777700  6.330840 -6.183515
  S     3.770364  6.383579 -3.426021
  S     6.209713  5.736282 -2.243903
  S     7.010372  9.646781 -5.937272
  S     4.098644  9.497841 -2.940944
  S     6.658739  8.981489 -1.967072
