16  
    
  C     5.266124  6.303711 -4.390371
  C     6.467801  5.791743 -3.778541
  C     5.653906  9.546958 -4.260881
  C     6.894674  9.054099 -3.672414
  N     7.457735  5.440823 -4.630509
  N     5.387384  6.573169 -5.699496
  N     4.724254  6.013356 -1.864449
  N     7.955325  8.916349 -4.466540
  N     5.850811  9.716183 -5.559131
  N     5.253611  9.501891 -1.742847
  S     6.863952  6.052269 -6.113977
  S     3.891272  6.556402 -3.211635
  S     6.291599  5.578506 -2.011055
  S     7.390557  9.258501 -6.033421
  S     4.375924  9.768796 -3.091691
  S     6.845573  8.930807 -1.912573
