16  
    
  C     5.410752  6.098998 -4.173890
  C     6.627732  5.389886 -3.655246
  C     5.503941  9.543834 -4.275379
  C     6.713715  9.055855 -3.660951
  N     7.560766  5.207552 -4.566072
  N     5.538592  6.348887 -5.452813
  N     4.921516  5.537714 -1.720587
  N     7.736686  8.914501 -4.539154
  N     5.647307  9.872299 -5.577674
  N     4.790649  9.295573 -1.812218
  S     7.065165  5.795447 -6.021613
  S     4.155454  6.237047 -3.053309
  S     6.528302  5.200288 -1.948497
  S     7.181895  9.474783 -6.028646
  S     4.015324  9.642145 -3.261949
  S     6.456648  8.814665 -1.973148
