16  
    
  C     5.469805  6.108061 -4.351874
  C     6.605413  5.764811 -3.597008
  C     5.613368  9.573845 -4.177968
  C     6.797757  9.041187 -3.520371
  N     7.654886  5.468862 -4.375974
  N     5.647124  6.174564 -5.654129
  N     4.672156  6.073345 -1.882228
  N     7.867003  8.897121 -4.290725
  N     5.770990  9.733385 -5.474648
  N     4.824622  9.420852 -1.753863
  S     7.234350  5.750597 -5.957078
  S     4.070812  6.473726 -3.423102
  S     6.226672  5.602648 -1.927279
  S     7.290050  9.233637 -5.822655
  S     4.192673  9.985104 -3.287747
  S     6.423791  9.018832 -1.739936
