16  
    
  C     5.847658  5.699156 -4.368379
  C     6.958122  5.136333 -3.717718
  C     5.692312  9.494223 -4.270343
  C     6.891564  8.920727 -3.746699
  N     8.047734  4.921796 -4.477533
  N     6.078303  6.107920 -5.615557
  N     5.051140  5.287321 -1.994973
  N     7.905798  8.955569 -4.610313
  N     5.751788  9.892458 -5.542080
  N     5.112555  8.991659 -1.842624
  S     7.616324  5.582541 -5.982741
  S     4.386993  5.800038 -3.371927
  S     6.656526  4.834748 -2.033032
  S     7.367779  9.670493 -5.955924
  S     4.337399  9.398906 -3.247691
  S     6.670539  8.338487 -2.059481
