16  
    
  C     5.542960  6.202726 -4.488403
  C     6.721639  5.701629 -3.869991
  C     5.372614  9.962681 -4.679030
  C     6.621904  9.662892 -4.093426
  N     7.765777  5.508381 -4.708405
  N     5.641793  6.509410 -5.783459
  N     4.968367  5.808310 -1.983374
  N     7.660226  9.518442 -4.861856
  N     5.487349 10.084029 -5.988079
  N     4.862430  9.601651 -2.239712
  S     7.177333  6.074429 -6.196850
  S     4.227114  6.321528 -3.397388
  S     6.568074  5.415201 -2.148608
  S     7.069503  9.792711 -6.370499
  S     4.014188 10.017212 -3.582638
  S     6.453872  9.509573 -2.359232
