16  
    
  C     5.407990  5.191453 -3.872471
  C     6.618525  4.925588 -3.178368
  C     5.378862  9.390182 -4.118969
  C     6.574995  8.883905 -3.494406
  N     7.681785  4.890297 -3.999045
  N     5.549623  5.399394 -5.195415
  N     4.777574  5.151763 -1.381474
  N     7.588027  8.649507 -4.302929
  N     5.558500  9.601711 -5.411438
  N     4.652017  9.070129 -1.735440
  S     7.144340  5.158397 -5.506397
  S     4.012298  5.241611 -2.858769
  S     6.370414  4.834432 -1.536314
  S     7.025180  9.113144 -5.783273
  S     4.013710  9.666887 -3.168424
  S     6.287413  8.775331 -1.752142
