16  
    
  C     5.772556  5.503219 -4.212422
  C     6.934672  5.079873 -3.541811
  C     5.437483  9.353168 -4.625920
  C     6.632661  8.964467 -3.914079
  N     8.024009  4.952247 -4.319406
  N     5.903628  5.625471 -5.526925
  N     5.111177  5.256942 -1.773743
  N     7.628277  8.769243 -4.747736
  N     5.523035  9.381655 -5.959537
  N     4.824022  9.140953 -2.075960
  S     7.490314  5.306669 -5.874437
  S     4.399293  5.734569 -3.178203
  S     6.710446  4.711688 -1.828884
  S     7.152043  9.042949 -6.244961
  S     4.113610  9.704992 -3.537391
  S     6.389776  8.616161 -2.220319
