16  
    
  C     5.559354  6.203966 -4.354473
  C     6.690010  5.670414 -3.655520
  C     5.452173  9.620885 -4.293988
  C     6.697252  9.293073 -3.601287
  N     7.709539  5.407704 -4.434276
  N     5.693785  6.266734 -5.657058
  N     4.849297  5.861574 -1.925678
  N     7.678953  9.278299 -4.510046
  N     5.455873  9.929840 -5.621460
  N     4.893223  9.522786 -1.810270
  S     7.251090  5.743716 -6.011526
  S     4.173711  6.388790 -3.394165
  S     6.489057  5.630098 -1.953068
  S     7.077413  9.671221 -5.995393
  S     4.059563  9.571080 -3.233648
  S     6.525759  9.003633 -1.868458
