16  
    
  C     5.382864  5.942302 -4.397219
  C     6.578336  5.500703 -3.859016
  C     5.396882  9.506512 -4.569862
  C     6.566684  9.012137 -3.888571
  N     7.538114  5.263543 -4.758981
  N     5.418269  6.013490 -5.734511
  N     4.988907  5.725413 -1.917659
  N     7.545520  8.672975 -4.730353
  N     5.498515  9.739722 -5.854479
  N     4.800000  9.577731 -2.014517
  S     6.902467  5.494511 -6.252363
  S     4.071327  6.034261 -3.268765
  S     6.569896  5.256340 -2.103395
  S     7.056448  9.145027 -6.253751
  S     4.063731  9.949512 -3.464252
  S     6.366228  9.234616 -2.151912
