16  
    
  C     5.595784  5.877334 -4.172337
  C     6.735620  5.226835 -3.594956
  C     5.721033  9.541360 -4.472922
  C     6.942795  9.116304 -3.849164
  N     7.774341  4.984426 -4.410174
  N     5.834084  6.186594 -5.450566
  N     5.020218  5.456357 -1.705572
  N     7.853363  8.825641 -4.730137
  N     5.770230  9.604924 -5.803997
  N     5.186300  9.219729 -1.976289
  S     7.312245  5.539136 -5.857563
  S     4.378865  6.167714 -3.025010
  S     6.571674  4.872906 -1.896440
  S     7.264530  9.090843 -6.229221
  S     4.464529  9.866252 -3.331283
  S     6.794281  8.864974 -2.087621
