16  
    
  C     5.606172  5.647179 -4.568297
  C     6.912247  5.531425 -3.966942
  C     5.412260  9.698043 -4.164330
  C     6.693639  9.316485 -3.575822
  N     7.907583  5.555002 -4.847057
  N     5.574083  5.829937 -5.897280
  N     5.095487  5.390899 -2.114983
  N     7.750096  9.250666 -4.408727
  N     5.474281  9.969230 -5.438319
  N     4.850151  9.199547 -1.730518
  S     7.166109  5.894237 -6.345033
  S     4.219637  5.459139 -3.488149
  S     6.760912  5.279956 -2.259618
  S     7.060817  9.712653 -5.912191
  S     4.057009  9.717031 -3.075225
  S     6.480027  8.879009 -1.908346
