16  
    
  C     5.700314  5.491536 -4.260460
  C     6.905869  5.268593 -3.562722
  C     5.194011  9.843322 -4.668312
  C     6.281937  9.269279 -3.949104
  N     7.970534  5.178658 -4.370522
  N     5.802102  5.501244 -5.622399
  N     5.105163  5.659049 -1.733178
  N     7.344001  8.968777 -4.718463
  N     5.378593 10.018165 -5.969832
  N     4.581252  9.809891 -2.154572
  S     7.450427  5.249377 -5.907261
  S     4.349317  5.712721 -3.194607
  S     6.728034  5.299831 -1.846633
  S     6.853748  9.380946 -6.246076
  S     3.802866 10.275874 -3.574420
  S     6.012821  9.143381 -2.254855
