16  
    
  C     5.637292  5.720732 -4.188448
  C     6.804043  5.248677 -3.479191
  C     5.550701  9.445053 -4.148783
  C     6.685000  8.847109 -3.479045
  N     7.916321  5.076382 -4.217301
  N     5.842190  5.702829 -5.517585
  N     4.887234  5.632612 -1.680582
  N     7.710671  8.666749 -4.299050
  N     5.674545  9.613549 -5.463224
  N     4.804493  8.945545 -1.710881
  S     7.383387  5.291487 -5.838947
  S     4.263624  6.055128 -3.199560
  S     6.454442  4.996515 -1.719490
  S     7.204155  9.098619 -5.807977
  S     4.158136  9.588378 -3.085198
  S     6.425822  8.569552 -1.767758
