16  
    
  C     5.254915  5.778173 -4.508156
  C     6.522719  5.330683 -3.869412
  C     5.476718  9.595089 -4.451964
  C     6.596627  9.052738 -3.722682
  N     7.575950  5.163282 -4.702289
  N     5.420917  5.975745 -5.822049
  N     4.754605  5.728053 -1.961242
  N     7.580223  8.759906 -4.576372
  N     5.510213  9.546538 -5.768312
  N     4.701582  9.565131 -1.925920
  S     6.961100  5.554457 -6.200900
  S     3.994366  6.184391 -3.402800
  S     6.366051  5.210840 -2.123918
  S     7.007793  8.953459 -6.143537
  S     4.094682 10.067206 -3.396119
  S     6.176614  8.898852 -2.062366
