16  
    
  C     5.315109  6.165942 -4.349160
  C     6.542798  5.701155 -3.731985
  C     5.454770  9.651905 -4.407381
  C     6.681424  9.199201 -3.753750
  N     7.523511  5.540787 -4.599636
  N     5.352710  6.256378 -5.662726
  N     4.826551  5.997530 -1.847733
  N     7.769368  8.997191 -4.540672
  N     5.665355  9.933902 -5.681400
  N     4.810632  9.477523 -1.973354
  S     6.982837  5.928755 -6.108092
  S     3.968730  6.343241 -3.251953
  S     6.431173  5.688566 -2.052292
  S     7.224169  9.479620 -6.018255
  S     4.114492  9.878918 -3.392149
  S     6.410599  9.135652 -2.037050
