16  
    
  C     5.916545  5.529481 -4.093719
  C     7.048332  4.965181 -3.404880
  C     5.673295  9.676297 -4.271424
  C     6.870718  9.087104 -3.736218
  N     8.157609  4.983942 -4.156526
  N     6.088843  5.762881 -5.387473
  N     5.069891  5.149079 -1.707020
  N     7.914943  9.135240 -4.585268
  N     5.762217  9.978093 -5.560074
  N     5.076860  8.888160 -1.887785
  S     7.678077  5.381925 -5.693819
  S     4.496683  5.851246 -3.128163
  S     6.598930  4.638812 -1.748050
  S     7.354915  9.748726 -5.995153
  S     4.339830  9.732228 -3.114141
  S     6.648666  8.475714 -2.131917
