16  
    
  C     5.600010  5.669284 -4.100970
  C     6.857498  5.233931 -3.529153
  C     5.534426  8.974835 -4.144036
  C     6.835320  8.977879 -3.534918
  N     7.731011  4.938554 -4.465978
  N     5.565063  5.754796 -5.415499
  N     5.203653  5.401400 -1.568799
  N     7.823717  8.989482 -4.422484
  N     5.563901  9.006153 -5.498924
  N     5.096070  9.060194 -1.650803
  S     7.092053  5.395869 -5.878093
  S     4.418820  5.868001 -2.938196
  S     6.818820  5.283354 -1.817511
  S     7.136745  9.001473 -5.912831
  S     4.208874  8.970801 -3.078163
  S     6.723125  8.792767 -1.745298
