16  
    
  C     5.431047  6.052018 -4.243166
  C     6.709428  5.443526 -3.654137
  C     5.349796  9.543230 -4.375497
  C     6.541117  9.078874 -3.744342
  N     7.662543  5.192244 -4.549821
  N     5.608640  6.435887 -5.509106
  N     4.946248  5.570404 -1.727946
  N     7.620865  9.021248 -4.525110
  N     5.495021  9.830058 -5.711213
  N     4.931041  9.166708 -1.877544
  S     7.075741  5.934912 -5.969435
  S     4.174784  6.164942 -3.093472
  S     6.560012  5.132510 -1.903266
  S     7.109948  9.443747 -6.066684
  S     4.104973  9.613549 -3.215823
  S     6.514790  8.869216 -2.058729
