16  
    
  C     5.585466  5.466616 -4.168183
  C     6.910245  5.279266 -3.686061
  C     5.514529  9.370959 -4.583790
  C     6.643293  8.821077 -3.875427
  N     7.845896  5.208689 -4.640773
  N     5.396454  5.530160 -5.484621
  N     5.385743  5.244997 -1.564052
  N     7.751366  8.574871 -4.556916
  N     5.761816  9.563394 -5.886631
  N     4.789311  9.301303 -2.095917
  S     6.963904  5.461885 -6.031478
  S     4.395555  5.361293 -2.848712
  S     7.046844  5.127411 -1.870738
  S     7.304207  9.027745 -6.158978
  S     4.158607  9.746824 -3.541641
  S     6.307167  8.504411 -2.192431
