16  
    
  C     5.577729  5.359682 -4.188878
  C     6.817781  5.188233 -3.481766
  C     5.331150  9.187941 -4.341497
  C     6.575744  8.702079 -3.788460
  N     7.854376  4.947432 -4.288922
  N     5.677255  5.319341 -5.512546
  N     4.984915  5.244124 -1.634421
  N     7.569257  8.471522 -4.644796
  N     5.404010  9.357167 -5.662194
  N     4.909211  9.020771 -1.812342
  S     7.262306  5.155657 -5.856969
  S     4.183400  5.571435 -3.097705
  S     6.587683  4.863878 -1.790169
  S     6.918364  8.821899 -6.113917
  S     4.189789  9.740578 -3.141863
  S     6.449104  8.491773 -2.037942
