16  
    
  C     5.725795  5.778286 -4.498907
  C     6.942116  5.336459 -3.829874
  C     5.550243  9.408746 -4.222196
  C     6.854882  9.136302 -3.697825
  N     7.950228  5.132460 -4.628847
  N     5.923442  5.952939 -5.794655
  N     5.179004  5.815446 -2.015078
  N     7.832103  9.140608 -4.645246
  N     5.520949  9.797401 -5.485416
  N     5.077637  8.939985 -1.778538
  S     7.446286  5.407423 -6.193167
  S     4.410959  6.097857 -3.479295
  S     6.792946  5.306591 -2.113636
  S     7.105809  9.702218 -5.999395
  S     4.199630  9.377927 -3.147194
  S     6.717647  8.933821 -2.025667
