16  
    
  C     5.703368  5.875487 -4.447839
  C     6.920005  5.475418 -3.861049
  C     5.529379  9.455550 -4.282865
  C     6.802405  9.216007 -3.670987
  N     7.862857  5.168634 -4.710047
  N     5.764258  5.950461 -5.766100
  N     5.104171  5.478802 -2.006816
  N     7.822382  9.227830 -4.543004
  N     5.588250  9.711852 -5.616595
  N     5.145558  9.072067 -1.707289
  S     7.325957  5.552393 -6.248252
  S     4.353383  6.026676 -3.362739
  S     6.736085  5.289236 -2.168757
  S     7.250991  9.587869 -6.010117
  S     4.244082  9.333215 -3.118836
  S     6.775625  8.755519 -1.965029
