16  
    
  C     5.537478  5.884911 -4.498799
  C     6.713282  5.338333 -3.777813
  C     5.452150  9.719320 -4.217242
  C     6.650864  9.134482 -3.684222
  N     7.757351  5.031369 -4.574290
  N     5.741678  6.140187 -5.799681
  N     4.869202  5.626541 -2.009663
  N     7.672138  9.051469 -4.519414
  N     5.604951 10.026357 -5.520079
  N     5.118337  9.239897 -1.651301
  S     7.275715  5.548279 -6.049605
  S     4.215604  6.148900 -3.480990
  S     6.450923  5.120213 -2.127780
  S     7.111216  9.438582 -5.998230
  S     4.258018  9.778867 -2.945117
  S     6.696926  8.750426 -2.007908
