16  
    
  C     5.510480  6.601612 -4.509266
  C     6.695233  6.062042 -3.886358
  C     5.597814 10.158249 -4.464829
  C     6.733622  9.525467 -3.796843
  N     7.690367  5.745379 -4.722751
  N     5.690772  6.786739 -5.817570
  N     4.970679  6.539786 -2.047328
  N     7.803466  9.257235 -4.578536
  N     5.807432 10.381880 -5.765513
  N     4.906885  9.883000 -2.074490
  S     7.170762  6.189684 -6.262980
  S     4.240617  7.062018 -3.466516
  S     6.498791  5.937307 -2.147247
  S     7.298016  9.744180 -6.129649
  S     4.226502 10.481381 -3.510617
  S     6.511786  9.593383 -2.008960
