16  
    
  C     5.481658  5.884020 -4.313335
  C     6.609027  5.166701 -3.639197
  C     5.521528  9.954653 -4.579943
  C     6.639858  9.292918 -3.925740
  N     7.605058  4.893172 -4.485239
  N     5.654335  6.118935 -5.631587
  N     4.788719  5.527955 -1.750939
  N     7.766045  9.108322 -4.599025
  N     5.811023 10.203592 -5.859944
  N     4.714433  9.104993 -2.258129
  S     7.112036  5.453080 -5.978651
  S     4.177229  6.198293 -3.168931
  S     6.339924  4.848964 -1.959075
  S     7.445141  9.730358 -6.100126
  S     4.186962 10.017429 -3.540134
  S     6.289690  8.629797 -2.348254
