16  
    
  C     5.599442  6.074172 -4.337281
  C     6.800315  5.504267 -3.637445
  C     5.843436  9.101730 -4.142697
  C     7.105322  8.831020 -3.488780
  N     7.782506  5.218623 -4.485109
  N     5.713294  6.229945 -5.655068
  N     4.917573  5.464171 -1.883478
  N     8.182935  8.857578 -4.252339
  N     5.955027  9.319311 -5.464748
  N     5.401957  9.088473 -1.563725
  S     7.243548  5.634581 -6.005370
  S     4.277729  6.314840 -3.194572
  S     6.538627  5.148121 -1.893192
  S     7.623120  9.166059 -5.817542
  S     4.593572  9.349061 -2.952747
  S     6.974182  8.534892 -1.782082
