16  
    
  C     5.608548  5.765691 -4.282353
  C     6.746931  5.090777 -3.622909
  C     5.424097  9.156074 -4.183791
  C     6.633364  8.702065 -3.543765
  N     7.706300  4.760777 -4.453749
  N     5.780919  5.897561 -5.597885
  N     5.049242  5.602244 -1.772995
  N     7.698964  8.600846 -4.361228
  N     5.554310  9.351035 -5.491360
  N     4.811987  8.965974 -1.679674
  S     7.293737  5.278363 -5.958179
  S     4.285667  6.140880 -3.175206
  S     6.517669  4.894175 -1.927432
  S     7.124375  8.939159 -5.859145
  S     4.102089  9.518247 -3.121143
  S     6.395899  8.564726 -1.790539
