16  
    
  C     5.553205  5.905407 -4.491468
  C     6.699285  5.321545 -3.789667
  C     5.464895  9.683118 -4.214310
  C     6.661506  9.101679 -3.645740
  N     7.743763  5.001701 -4.538909
  N     5.750065  6.143010 -5.805399
  N     4.849049  5.641733 -2.019188
  N     7.662591  9.035113 -4.509570
  N     5.598295 10.031303 -5.509997
  N     5.101653  9.254534 -1.681269
  S     7.276826  5.548263 -6.066504
  S     4.202405  6.140120 -3.473317
  S     6.448756  5.120680 -2.109005
  S     7.089258  9.416702 -5.995581
  S     4.265617  9.759412 -2.929261
  S     6.699221  8.755728 -2.007259
