16  
    
  C     5.875417  5.462076 -4.070293
  C     7.151526  5.111133 -3.534073
  C     5.464953  9.345223 -4.327698
  C     6.574012  8.747650 -3.626119
  N     8.133853  5.137379 -4.463668
  N     5.882001  5.791622 -5.363371
  N     5.465865  5.208728 -1.553292
  N     7.598465  8.344568 -4.370886
  N     5.691918  9.391365 -5.624372
  N     4.711346  9.116770 -1.864719
  S     7.383177  5.440473 -5.899317
  S     4.608553  5.584374 -2.911291
  S     7.014929  4.911911 -1.829602
  S     7.151397  8.784770 -5.928598
  S     4.186383  9.881729 -3.233114
  S     6.271571  8.527498 -1.923985
