16  
    
  C     5.167484  6.364052 -4.358771
  C     6.375633  5.815918 -3.665977
  C     5.898323  9.617488 -4.176244
  C     7.083170  9.015971 -3.561021
  N     7.422186  5.535298 -4.472406
  N     5.378671  6.609914 -5.659778
  N     4.498176  5.867014 -1.927890
  N     7.971693  8.705054 -4.467133
  N     5.888542  9.723667 -5.465638
  N     5.456207  9.637604 -1.679423
  S     6.842147  6.016133 -6.004815
  S     3.812896  6.677612 -3.225257
  S     6.095094  5.490599 -1.964295
  S     7.366169  9.224399 -5.991061
  S     4.568423  9.839091 -3.054797
  S     6.902775  8.932083 -1.879274
