16  
    
  C     5.180678  5.475800 -4.148465
  C     6.345279  4.891228 -3.543881
  C     5.470953  9.393156 -4.337363
  C     6.678082  8.917846 -3.707021
  N     7.284809  4.500146 -4.401866
  N     5.258569  5.539110 -5.483086
  N     4.655470  5.180593 -1.662487
  N     7.663478  8.712681 -4.573183
  N     5.564646  9.635054 -5.649941
  N     4.943790  9.355962 -1.831563
  S     6.783331  5.023879 -5.853167
  S     3.917620  5.765126 -3.014283
  S     6.179779  4.699468 -1.898507
  S     7.151014  9.140388 -6.064600
  S     4.132474  9.628214 -3.279326
  S     6.536432  9.031590 -1.983801
