16  
    
  C     5.357771  5.880561 -4.299356
  C     6.556704  5.485819 -3.716027
  C     5.600023  9.650691 -4.213724
  C     6.708807  9.053405 -3.536348
  N     7.600410  5.231478 -4.518428
  N     5.445119  6.076120 -5.606473
  N     4.780377  5.811805 -1.777239
  N     7.840511  8.861034 -4.283971
  N     5.857916  9.844134 -5.532745
  N     4.852172  9.319553 -1.802097
  S     6.965067  5.644786 -6.011653
  S     4.054099  6.268257 -3.178467
  S     6.353404  5.233468 -1.949460
  S     7.441441  9.356451 -5.802463
  S     4.110173  9.924532 -3.162412
  S     6.379339  8.749662 -1.879571
