16  
    
  C     5.581304  5.459631 -4.090299
  C     6.812589  5.110800 -3.461480
  C     5.806585  9.278603 -3.973412
  C     7.031316  8.912438 -3.301624
  N     7.849732  5.019082 -4.310146
  N     5.636992  5.538445 -5.416341
  N     5.081828  5.301164 -1.517503
  N     8.036062  8.790017 -4.176199
  N     5.796658  9.273198 -5.289549
  N     5.238966  9.153771 -1.452332
  S     7.246496  5.120176 -5.849062
  S     4.286829  5.593478 -2.943059
  S     6.697520  5.082321 -1.700152
  S     7.375570  9.044784 -5.715835
  S     4.533303  9.604930 -2.894347
  S     6.935467  8.803611 -1.557435
