16  
    
  C     5.561467  6.274065 -4.410663
  C     6.739812  5.581480 -3.854453
  C     5.371190  9.762896 -4.264352
  C     6.554420  9.225574 -3.653570
  N     7.746492  5.392042 -4.723490
  N     5.662443  6.473128 -5.719044
  N     5.003542  5.625340 -1.948145
  N     7.603043  8.951344 -4.394192
  N     5.614143 10.004897 -5.528647
  N     5.005922  9.679176 -1.685499
  S     7.140408  6.017831 -6.164753
  S     4.203208  6.390156 -3.212117
  S     6.655758  5.187415 -2.155947
  S     7.115221  9.409028 -5.938648
  S     4.144576 10.040841 -3.072970
  S     6.511291  9.056542 -1.890882
