16  
    
  C     5.808841  5.495088 -4.300397
  C     7.099714  5.193111 -3.683323
  C     5.466463  9.365349 -4.402032
  C     6.636142  8.783831 -3.765145
  N     8.127439  5.173785 -4.514408
  N     5.832738  5.734642 -5.587912
  N     5.309895  5.204435 -1.767621
  N     7.595435  8.378196 -4.582547
  N     5.577050  9.461261 -5.726915
  N     4.901790  9.492682 -1.903053
  S     7.395661  5.384652 -6.050040
  S     4.504285  5.558798 -3.171389
  S     6.900479  4.946619 -2.017927
  S     7.104802  8.811017 -6.130848
  S     4.132139  9.744712 -3.386432
  S     6.369807  8.714063 -2.023889
