16  
    
  C     5.537265  5.076866 -4.195788
  C     6.857440  5.087789 -3.666077
  C     5.374744  9.183317 -4.540154
  C     6.565801  8.757678 -3.848128
  N     7.817628  5.129053 -4.606153
  N     5.448670  5.219459 -5.520984
  N     5.182936  5.233144 -1.652491
  N     7.595172  8.430863 -4.633017
  N     5.576443  9.321608 -5.841032
  N     4.805960  9.089066 -2.010954
  S     7.054710  5.106672 -6.038913
  S     4.230351  5.222896 -3.034496
  S     6.850006  5.054084 -1.882287
  S     7.164530  8.920058 -6.147928
  S     4.082845  9.553655 -3.424145
  S     6.407010  8.744196 -2.125435
