16  
    
  C     5.692131  5.649145 -4.227686
  C     6.899279  5.235123 -3.643667
  C     5.547334  9.404458 -4.385816
  C     6.640189  8.658704 -3.812812
  N     7.861438  5.096313 -4.525081
  N     5.770016  5.894389 -5.544978
  N     5.280786  5.182926 -1.742554
  N     7.725183  8.538584 -4.601513
  N     5.804732  9.819234 -5.599606
  N     4.714767  8.814168 -2.015359
  S     7.347691  5.556372 -6.032073
  S     4.378042  5.637735 -3.088112
  S     6.854623  4.859347 -1.960861
  S     7.284759  9.282249 -6.038706
  S     4.152931  9.607382 -3.434816
  S     6.301642  8.407976 -2.075686
