16  
    
  C     5.347837  6.310357 -4.458091
  C     6.429634  5.784886 -3.714996
  C     5.450934  9.992667 -4.204462
  C     6.743121  9.732133 -3.600938
  N     7.531260  5.659901 -4.527396
  N     5.467995  6.441818 -5.783961
  N     4.487267  6.035685 -2.078093
  N     7.757256  9.750882 -4.449975
  N     5.480129 10.344038 -5.504166
  N     4.980410  9.618961 -1.668522
  S     7.098232  6.070296 -6.011675
  S     3.946732  6.721734 -3.523998
  S     6.072397  5.555966 -2.024578
  S     7.079626 10.168782 -5.943513
  S     4.054500  9.855228 -3.053224
  S     6.651200  9.399107 -1.892887
