16  
    
  C     5.308288  6.218369 -4.359870
  C     6.344817  5.538975 -3.602446
  C     5.474990  9.686332 -4.225063
  C     6.580235  9.098016 -3.586913
  N     7.244839  5.029398 -4.421024
  N     5.498687  6.262346 -5.667059
  N     4.485117  6.139528 -1.942351
  N     7.666875  8.914432 -4.364908
  N     5.744512 10.033337 -5.518567
  N     4.917222  9.446260 -1.660308
  S     6.922937  5.401188 -5.972267
  S     3.959111  6.751510 -3.395988
  S     5.989403  5.563380 -1.929941
  S     7.289605  9.489530 -5.831273
  S     4.085972  9.699558 -3.117733
  S     6.482273  8.822102 -1.854346
