16  
    
  C     5.073645  6.264306 -4.577639
  C     6.325246  5.952249 -3.894295
  C     5.421672  9.611688 -4.075752
  C     6.689497  9.298151 -3.506108
  N     7.370602  5.910781 -4.699032
  N     5.195969  6.518211 -5.850482
  N     4.590884  6.004410 -2.033546
  N     7.654040  9.240557 -4.438132
  N     5.413852  9.763518 -5.433412
  N     4.957963  9.128156 -1.617445
  S     6.766169  6.306166 -6.271021
  S     3.754820  6.459608 -3.406501
  S     6.186343  5.579547 -2.200187
  S     7.002385  9.670164 -5.908003
  S     4.064525  9.486350 -2.963105
  S     6.626328  8.980275 -1.821324
