16  
    
  C     5.184986  6.381682 -4.363982
  C     6.372544  5.793918 -3.663410
  C     5.854711  9.617342 -4.170831
  C     7.024102  9.042980 -3.599235
  N     7.401218  5.547313 -4.489069
  N     5.362544  6.629248 -5.677566
  N     4.526031  5.860193 -1.923951
  N     7.954195  8.700732 -4.461280
  N     5.894917  9.712156 -5.470273
  N     5.431551  9.636495 -1.717864
  S     6.836980  6.016344 -5.994671
  S     3.840950  6.655290 -3.234095
  S     6.121698  5.513017 -1.985203
  S     7.378139  9.225975 -5.982519
  S     4.577928  9.818529 -3.045520
  S     6.904648  8.935799 -1.889412
