16  
    
  C     5.531690  6.148566 -4.410037
  C     6.729522  5.631470 -3.794764
  C     5.469543  9.796032 -4.192405
  C     6.675469  9.299424 -3.602068
  N     7.772236  5.491686 -4.620298
  N     5.696642  6.497933 -5.671373
  N     4.976061  5.713778 -1.865158
  N     7.618061  9.007108 -4.463773
  N     5.494656  9.851201 -5.501117
  N     4.884031  9.462657 -1.652840
  S     7.288248  5.964632 -6.112970
  S     4.278539  6.355648 -3.262221
  S     6.481635  5.190406 -2.126673
  S     7.042461  9.432531 -5.961224
  S     4.140817  9.970978 -3.104509
  S     6.527615  9.054764 -1.805601
