16  
    
  C     5.519408  6.028043 -4.332545
  C     6.710887  5.558372 -3.637870
  C     5.673502  9.423487 -4.509501
  C     6.854706  9.116266 -3.738773
  N     7.750371  5.269107 -4.385275
  N     5.669598  6.188218 -5.663516
  N     5.005090  5.980322 -1.776678
  N     7.937173  9.131447 -4.509153
  N     5.873900  9.564366 -5.782701
  N     5.029401  9.208699 -1.991984
  S     7.233468  5.705059 -6.014966
  S     4.204373  6.218190 -3.169417
  S     6.616318  5.488780 -1.957066
  S     7.467853  9.292707 -6.048252
  S     4.315517  9.627826 -3.425948
  S     6.630343  8.870016 -2.090121
