16  
    
  C     5.670222  5.695895 -4.412777
  C     6.897761  5.368756 -3.807380
  C     5.151746  9.656325 -4.442285
  C     6.357029  9.160069 -3.836919
  N     7.877884  5.316433 -4.682089
  N     5.654445  5.734731 -5.740300
  N     5.226412  5.638025 -1.857524
  N     7.393861  8.927134 -4.657058
  N     5.290728  9.763901 -5.767394
  N     4.889684  9.623205 -1.832950
  S     7.234989  5.425621 -6.209462
  S     4.378701  5.892040 -3.293766
  S     6.838954  5.139169 -2.084297
  S     6.846190  9.379877 -6.128335
  S     4.058161 10.145115 -3.183460
  S     6.430587  9.096054 -2.078714
