16  
    
  C     5.611851  6.112272 -4.402064
  C     6.701536  5.544123 -3.681264
  C     5.300727  9.675302 -4.259777
  C     6.609485  9.367789 -3.689172
  N     7.797565  5.400038 -4.401597
  N     5.836933  6.335912 -5.683223
  N     4.819302  5.839336 -1.903121
  N     7.671288  9.235814 -4.472337
  N     5.418833  9.794988 -5.582090
  N     4.895350  9.434560 -1.721800
  S     7.403211  5.819263 -5.997870
  S     4.242249  6.340847 -3.358519
  S     6.434161  5.508362 -1.969369
  S     7.076759  9.616440 -5.950620
  S     4.046658  9.698993 -3.055193
  S     6.533409  9.057734 -1.930531
