16  
    
  C     5.467444  5.908348 -4.278472
  C     6.584305  5.258719 -3.685950
  C     5.653261  9.985917 -4.563148
  C     6.659253  9.250686 -3.853498
  N     7.586286  4.899984 -4.504702
  N     5.654956  6.231750 -5.571274
  N     4.874336  5.646462 -1.760025
  N     7.750169  9.089534 -4.585004
  N     5.917304 10.270459 -5.836120
  N     4.688127  9.093762 -2.304720
  S     7.095750  5.459178 -5.972684
  S     4.152638  6.199992 -3.141893
  S     6.360999  4.880923 -1.944262
  S     7.421106  9.714857 -6.084213
  S     4.187686 10.008892 -3.560732
  S     6.293917  8.628321 -2.307171
