16  
    
  C     5.520022  5.985580 -4.350436
  C     6.650318  5.479503 -3.632088
  C     5.716821  9.542792 -4.226418
  C     6.891807  9.003093 -3.664976
  N     7.715002  5.300926 -4.399492
  N     5.731071  6.264225 -5.624467
  N     4.746070  5.627615 -1.920956
  N     7.914438  8.843064 -4.526964
  N     5.751920  9.714630 -5.538956
  N     5.215238  9.502986 -1.697308
  S     7.342082  5.768848 -5.947271
  S     4.207178  6.412718 -3.305756
  S     6.305886  5.127760 -2.037811
  S     7.302118  9.326533 -5.983453
  S     4.430773  9.876574 -3.099531
  S     6.701453  8.855440 -1.880845
