16  
    
  C     5.600504  6.083435 -4.464774
  C     6.794411  5.788866 -3.745574
  C     5.502199  9.618850 -4.476748
  C     6.662247  9.169505 -3.759823
  N     7.877271  5.589045 -4.449982
  N     5.765742  6.146540 -5.784783
  N     4.933195  5.983831 -1.916480
  N     7.795875  9.111525 -4.440132
  N     5.760317  9.812826 -5.753988
  N     4.957906  9.524811 -1.933564
  S     7.351542  5.803540 -6.117134
  S     4.264078  6.432493 -3.396153
  S     6.526398  5.603974 -2.049274
  S     7.359282  9.318350 -6.039519
  S     4.190341  9.898638 -3.393664
  S     6.544181  8.961984 -2.028109
