16  
    
  C     5.505878  6.157714 -4.431746
  C     6.720977  5.550747 -3.957698
  C     5.482312  9.835492 -4.269980
  C     6.640787  9.173256 -3.646503
  N     7.688107  5.382067 -4.888339
  N     5.567747  6.523391 -5.728773
  N     5.104389  5.632941 -1.941231
  N     7.582819  8.853606 -4.522537
  N     5.618091 10.044858 -5.582476
  N     4.987670  9.824894 -1.776174
  S     6.967367  5.998949 -6.294404
  S     4.350645  6.358924 -3.156755
  S     6.700562  5.295056 -2.188686
  S     7.120033  9.546744 -6.024498
  S     4.173981 10.163359 -3.220303
  S     6.433071  9.029550 -1.867435
