16  
    
  C     5.680052  5.632783 -4.210220
  C     6.810716  5.065588 -3.559732
  C     5.392702  9.285949 -4.242995
  C     6.515156  8.603663 -3.636027
  N     7.830692  4.772775 -4.340665
  N     5.777539  5.751006 -5.517695
  N     4.964816  5.452440 -1.743664
  N     7.521085  8.306204 -4.467737
  N     5.533633  9.492045 -5.538000
  N     4.883883  9.132661 -1.698621
  S     7.307984  5.245553 -5.935842
  S     4.342823  5.947493 -3.176752
  S     6.572024  4.881116 -1.815834
  S     6.978808  8.795720 -6.023288
  S     4.111447  9.590734 -3.101047
  S     6.424848  8.478814 -1.923071
