16  
    
  C     5.313990  6.348679 -4.490501
  C     6.469943  5.849165 -3.734006
  C     5.440765 10.055009 -4.172200
  C     6.744932  9.762356 -3.624785
  N     7.593508  5.624486 -4.443789
  N     5.551082  6.478318 -5.766332
  N     4.496447  6.104432 -2.075639
  N     7.757801  9.788192 -4.518278
  N     5.531253 10.239189 -5.504616
  N     4.963535  9.729764 -1.691948
  S     7.085847  6.077063 -6.072614
  S     4.013693  6.774024 -3.475939
  S     6.104966  5.635249 -2.034259
  S     7.110418 10.213297 -5.964691
  S     4.148130  9.957772 -3.123542
  S     6.557204  9.421063 -1.908122
