16  
    
  C     5.747662  5.424058 -3.947504
  C     6.994150  5.071188 -3.298920
  C     5.436233  9.391044 -4.200589
  C     6.549900  8.730773 -3.525487
  N     8.047338  4.969457 -4.116583
  N     5.797885  5.578828 -5.282880
  N     5.235925  5.122472 -1.403470
  N     7.627717  8.477412 -4.223495
  N     5.686347  9.576959 -5.488666
  N     4.814102  9.346204 -1.745022
  S     7.383180  5.252340 -5.657816
  S     4.420606  5.449405 -2.779979
  S     6.849114  4.895675 -1.639279
  S     7.195063  8.994422 -5.794772
  S     4.077311  9.744218 -3.196135
  S     6.228515  8.445580 -1.820234
