16  
    
  C     5.421915  5.706952 -4.307104
  C     6.679260  5.418862 -3.658564
  C     5.363706 10.212837 -4.620316
  C     6.460478  9.438553 -3.931067
  N     7.674864  5.262431 -4.493044
  N     5.512266  5.754182 -5.655771
  N     4.951377  5.571374 -1.769896
  N     7.317671  9.030318 -4.827896
  N     5.496753 10.441830 -5.900518
  N     4.666990  9.629669 -2.183532
  S     7.113448  5.479842 -6.045745
  S     4.051560  5.548920 -3.203612
  S     6.619505  5.339992 -1.958153
  S     6.944741  9.694586 -6.289804
  S     4.015650 10.436571 -3.463850
  S     6.235494  9.118359 -2.264397
