16  
    
  C     5.621882  6.413964 -4.509983
  C     6.806447  5.859495 -3.913923
  C     5.501439  9.968490 -4.677584
  C     6.694673  9.552394 -4.041863
  N     7.796816  5.597454 -4.790129
  N     5.744328  6.701847 -5.829467
  N     5.028702  6.117586 -2.027071
  N     7.677379  9.312359 -4.897354
  N     5.537054 10.049039 -6.002650
  N     4.917285  9.951843 -2.178788
  S     7.292967  6.171931 -6.215715
  S     4.284811  6.702108 -3.407446
  S     6.621980  5.636079 -2.174286
  S     7.099895  9.736833 -6.389585
  S     4.183112 10.241429 -3.541511
  S     6.557346  9.519655 -2.260275
