16  
    
  C     5.292379  6.156350 -4.369810
  C     6.593217  5.720419 -3.741906
  C     5.472016  9.651027 -4.382043
  C     6.677315  9.193279 -3.739366
  N     7.566915  5.527847 -4.599297
  N     5.352666  6.238238 -5.674680
  N     4.812205  5.999292 -1.849058
  N     7.771466  9.022613 -4.546507
  N     5.667459  9.932354 -5.693154
  N     4.825332  9.435323 -1.965751
  S     6.979331  5.935504 -6.103695
  S     3.994111  6.314967 -3.246766
  S     6.429451  5.692261 -2.056093
  S     7.225408  9.463064 -6.027658
  S     4.093414  9.904756 -3.358284
  S     6.406838  9.134316 -2.030586
