16  
    
  C     5.437996  6.009097 -4.546596
  C     6.699797  5.606842 -4.007500
  C     5.777469  9.454956 -4.143555
  C     7.038289  9.111886 -3.571310
  N     7.743482  5.587713 -4.825838
  N     5.499140  6.361043 -5.861945
  N     5.042738  5.703027 -2.072021
  N     8.013725  8.949143 -4.465328
  N     5.825689  9.537959 -5.456015
  N     5.252523  9.025757 -1.713176
  S     7.084099  6.168213 -6.319810
  S     4.148784  5.983745 -3.425861
  S     6.668151  5.418021 -2.303490
  S     7.382971  9.326241 -5.928974
  S     4.457249  9.537725 -3.041022
  S     6.949196  8.727277 -1.870898
