16  
    
  C     5.540889  6.028010 -4.341493
  C     6.787474  5.688818 -3.664628
  C     5.678608  9.475164 -4.367444
  C     6.894300  9.090192 -3.706941
  N     7.780843  5.487757 -4.478516
  N     5.599641  6.156960 -5.658688
  N     4.912923  5.899539 -1.879848
  N     7.893983  8.974943 -4.574967
  N     5.771962  9.537045 -5.721944
  N     5.102379  9.355157 -1.880419
  S     7.138965  5.761200 -6.073995
  S     4.194877  6.351447 -3.297298
  S     6.582271  5.541990 -1.928547
  S     7.360865  9.367636 -6.096667
  S     4.283518  9.662894 -3.299480
  S     6.673072  8.849513 -2.014083
