16  
    
  C     5.447383  5.455365 -4.202745
  C     6.608277  5.130034 -3.473790
  C     5.773236  8.899355 -3.941422
  C     7.034903  8.505500 -3.379290
  N     7.679280  4.947818 -4.204212
  N     5.656940  5.569163 -5.503812
  N     4.731938  5.602567 -1.726525
  N     8.053547  8.472485 -4.277172
  N     5.836784  9.034750 -5.258240
  N     5.354291  8.833668 -1.440124
  S     7.203794  5.080254 -5.792530
  S     4.051380  5.841361 -3.211741
  S     6.280008  5.168548 -1.787485
  S     7.365184  8.817545 -5.737402
  S     4.459772  9.137060 -2.811764
  S     6.880369  8.147104 -1.686174
