16  
    
  C     5.474636  5.972128 -4.483904
  C     6.685393  5.536007 -3.895664
  C     5.405540  9.865438 -4.539349
  C     6.565198  9.286327 -3.908619
  N     7.689025  5.262756 -4.721931
  N     5.594453  6.181822 -5.812256
  N     5.059648  5.815713 -1.943057
  N     7.643856  9.122038 -4.646143
  N     5.618606 10.114714 -5.800278
  N     4.879082  9.634200 -1.963814
  S     7.070140  5.686142 -6.222016
  S     4.277804  6.354800 -3.331194
  S     6.658419  5.362140 -2.183973
  S     7.196341  9.736349 -6.156915
  S     4.016058  9.969353 -3.440609
  S     6.402887  9.050904 -2.140981
