16  
    
  C     5.593419  5.680589 -4.370134
  C     6.783157  5.439515 -3.594173
  C     5.654188  9.360792 -4.275242
  C     6.914193  9.195359 -3.590331
  N     7.821740  5.212403 -4.354213
  N     5.712867  5.570693 -5.678938
  N     4.868175  5.708034 -1.860988
  N     8.001642  9.312536 -4.377834
  N     5.798259  9.458097 -5.598411
  N     5.195910  8.959144 -1.745371
  S     7.332474  5.402738 -5.894925
  S     4.222951  5.796444 -3.335623
  S     6.478828  5.421050 -1.873356
  S     7.451431  9.437077 -5.887476
  S     4.318470  9.284055 -3.146558
  S     6.861167  8.740336 -1.915184
