16  
    
  C     5.503316  6.079415 -4.455230
  C     6.624413  5.672830 -3.670946
  C     5.651247  9.535336 -4.250360
  C     6.757098  9.153682 -3.466273
  N     7.797711  5.565679 -4.337358
  N     5.701847  6.080522 -5.782598
  N     4.719096  6.140874 -1.952599
  N     7.794756  8.893304 -4.252004
  N     5.796847  9.701402 -5.574700
  N     4.801213  9.410321 -1.848235
  S     7.329610  5.738724 -5.971460
  S     4.064574  6.423666 -3.417605
  S     6.308143  5.590424 -1.865494
  S     7.357896  9.229365 -5.853539
  S     4.218267  9.869418 -3.287997
  S     6.462727  9.037894 -1.762469
