16  
    
  C     5.545148  5.909064 -4.350254
  C     6.800650  5.512349 -3.708180
  C     5.745764  9.459088 -4.458092
  C     6.983681  9.099293 -3.758411
  N     7.852742  5.403950 -4.496260
  N     5.706428  6.024033 -5.701161
  N     4.980772  5.620069 -1.846906
  N     8.074137  8.972719 -4.525662
  N     5.932853  9.692541 -5.723285
  N     5.188258  9.333933 -1.902300
  S     7.308558  5.726245 -6.052163
  S     4.235872  6.110028 -3.250233
  S     6.623727  5.276527 -1.970066
  S     7.511875  9.315638 -6.070845
  S     4.411326  9.510136 -3.408476
  S     6.794346  9.100829 -2.020336
