16  
    
  C     5.528749  6.125577 -4.390488
  C     6.752871  5.591101 -3.881477
  C     5.484338  9.810424 -4.253553
  C     6.605171  9.132265 -3.687061
  N     7.618992  5.385111 -4.837025
  N     5.552297  6.534685 -5.627384
  N     5.086065  5.595945 -1.958700
  N     7.644002  8.863972 -4.515110
  N     5.596656 10.050783 -5.544014
  N     4.957651  9.863653 -1.739512
  S     7.024541  6.005409 -6.252175
  S     4.341153  6.373148 -3.215554
  S     6.684198  5.278663 -2.216464
  S     7.128199  9.492857 -5.947868
  S     4.162854 10.121814 -3.143652
  S     6.456961  9.047938 -1.923902
