16  
    
  C     5.322935  5.531787 -4.306367
  C     6.498300  4.927674 -3.709064
  C     5.528832  9.139421 -4.384988
  C     6.632608  8.372495 -3.850531
  N     7.482960  4.672644 -4.546936
  N     5.440510  5.729296 -5.616209
  N     4.703946  5.160763 -1.898498
  N     7.710306  8.277528 -4.592494
  N     5.762769  9.613987 -5.595151
  N     4.954986  8.824643 -1.946798
  S     7.054508  5.310956 -5.985288
  S     3.991264  5.849256 -3.252704
  S     6.270418  4.553455 -2.089273
  S     7.273293  9.067460 -6.040084
  S     4.234253  9.488863 -3.316546
  S     6.227652  7.845599 -2.240007
