16  
    
  C     5.536661  5.770120 -4.539569
  C     6.781953  5.545066 -3.807101
  C     5.085357  9.440248 -4.466603
  C     6.257116  9.008885 -3.716882
  N     7.804670  5.489941 -4.642169
  N     5.658682  5.899431 -5.846863
  N     4.942829  5.602045 -2.046872
  N     7.325271  8.770994 -4.492851
  N     5.275458  9.356053 -5.804083
  N     4.576407 10.034406 -1.998445
  S     7.265695  5.627626 -6.199559
  S     4.166801  5.936099 -3.489588
  S     6.553996  5.335162 -2.109565
  S     6.837666  9.048308 -6.073458
  S     3.887956 10.200550 -3.505931
  S     6.094091  9.278041 -1.928282
