16  
    
  C     5.230928  6.286884 -4.545274
  C     6.370956  5.734773 -3.807963
  C     5.459073  9.777473 -4.059958
  C     6.778829  9.459778 -3.513035
  N     7.434980  5.476988 -4.577873
  N     5.477774  6.597236 -5.802879
  N     4.541266  6.101319 -2.064963
  N     7.710065  9.618786 -4.437415
  N     5.475241 10.084933 -5.330439
  N     5.049683  9.177796 -1.596268
  S     6.988881  6.136376 -6.155162
  S     3.829080  6.381378 -3.519867
  S     6.109587  5.469659 -2.128582
  S     7.025635 10.028862 -5.893176
  S     4.095447  9.634971 -2.961571
  S     6.671611  9.090922 -1.792297
