16  
    
  C     5.287093  6.190883 -4.380562
  C     6.456384  5.759625 -3.739019
  C     5.462677  9.722429 -4.488623
  C     6.661046  9.233492 -3.797780
  N     7.482800  5.519030 -4.557932
  N     5.342852  6.429398 -5.716008
  N     4.747027  6.018605 -1.871084
  N     7.719444  9.040315 -4.547003
  N     5.703696  9.886050 -5.775907
  N     4.882548  9.656845 -1.994374
  S     6.898606  5.870037 -6.092351
  S     3.992543  6.529260 -3.241459
  S     6.374100  5.623661 -2.003304
  S     7.317240  9.491357 -6.057649
  S     4.071024  9.756727 -3.433087
  S     6.441806  9.050364 -1.996265
