16  
    
  C     5.467744  5.669013 -4.120831
  C     6.664517  5.120355 -3.441377
  C     5.624577  8.945522 -3.994058
  C     6.878121  8.484477 -3.419344
  N     7.763934  5.000262 -4.244965
  N     5.619867  5.916940 -5.435595
  N     4.792148  5.381580 -1.649193
  N     7.825006  8.184130 -4.295429
  N     5.613155  9.037499 -5.292759
  N     5.146559  8.877967 -1.496818
  S     7.166083  5.368640 -5.789634
  S     4.110406  5.890762 -3.055899
  S     6.428075  5.033673 -1.760131
  S     7.122354  8.531226 -5.838582
  S     4.289095  9.104725 -2.909846
  S     6.772969  8.608669 -1.667048
