16  
    
  C     5.211795  5.566316 -4.156045
  C     6.376360  4.837495 -3.592272
  C     5.545423  9.535448 -4.443021
  C     6.730265  9.061683 -3.750767
  N     7.372067  4.513376 -4.456571
  N     5.384675  5.823514 -5.464772
  N     4.732181  5.342751 -1.644156
  N     7.754647  8.733513 -4.520231
  N     5.680430  9.653797 -5.762279
  N     4.955949  9.196539 -1.918422
  S     6.782142  5.013662 -5.987146
  S     3.982827  5.997667 -3.022883
  S     6.275553  4.638311 -1.830619
  S     7.216309  9.090704 -6.084869
  S     4.191563  9.727267 -3.304887
  S     6.583269  8.891857 -2.078647
