16  
    
  C     5.401237  5.756911 -4.433974
  C     6.593529  5.425221 -3.715011
  C     5.263726  9.518896 -4.352405
  C     6.560174  9.213239 -3.794093
  N     7.647613  5.306211 -4.487027
  N     5.581820  5.899728 -5.732216
  N     4.722064  5.768922 -1.932807
  N     7.599711  9.009551 -4.642753
  N     5.282240  9.391347 -5.665349
  N     4.818590  9.262966 -1.848339
  S     7.160935  5.535983 -6.058054
  S     4.012333  6.128988 -3.421672
  S     6.311787  5.215628 -2.076992
  S     6.922668  9.018347 -6.136545
  S     3.964141  9.733402 -3.198134
  S     6.429545  8.955293 -2.064887
