16  
    
  C     5.255464  6.241643 -4.323064
  C     6.402810  5.713808 -3.628101
  C     5.485952  9.742512 -4.221460
  C     6.609061  9.111568 -3.575290
  N     7.404452  5.313396 -4.419524
  N     5.475261  6.443088 -5.631449
  N     4.521012  5.867968 -1.809569
  N     7.661701  8.867255 -4.349007
  N     5.701317  9.911946 -5.521411
  N     5.054172  9.796051 -1.634791
  S     7.036713  5.750805 -5.951895
  S     3.931832  6.567727 -3.238470
  S     6.159401  5.539901 -1.903130
  S     7.215342  9.289184 -5.884732
  S     4.149866 10.016550 -3.106675
  S     6.480989  8.935900 -1.850973
