16  
    
  C     5.862200  5.780708 -4.485606
  C     7.053035  5.421479 -3.771971
  C     5.601729  9.662475 -4.312073
  C     6.883677  9.279983 -3.737251
  N     8.190532  5.302870 -4.478717
  N     6.038043  5.901080 -5.815056
  N     5.157195  5.832134 -2.019706
  N     7.921107  9.228887 -4.559148
  N     5.632209  9.757619 -5.598255
  N     5.117483  9.165649 -1.838114
  S     7.624139  5.504443 -6.034819
  S     4.486522  6.233667 -3.469297
  S     6.775512  5.344198 -2.030884
  S     7.184151  9.509935 -6.080150
  S     4.222336  9.559156 -3.202742
  S     6.707140  8.840021 -2.116326
