16  
    
  C     5.511879  5.281855 -4.115035
  C     6.869651  5.246956 -3.599935
  C     5.509226  9.364781 -4.670980
  C     6.679096  8.906891 -3.925376
  N     7.852787  5.326074 -4.506421
  N     5.408792  5.231939 -5.433873
  N     5.361498  5.079480 -1.513514
  N     7.707249  8.578309 -4.666407
  N     5.654573  9.356748 -5.997970
  N     4.754958  9.173571 -2.249224
  S     6.982552  5.295912 -5.931532
  S     4.311851  5.291196 -2.802258
  S     6.989733  5.020283 -1.858071
  S     7.224626  8.913261 -6.267509
  S     4.235590  9.936213 -3.639184
  S     6.416009  8.758873 -2.190808
