16  
    
  C     5.551237  5.812145 -4.399190
  C     6.821992  5.316607 -3.890469
  C     5.449082  9.877968 -4.595991
  C     6.588300  9.222027 -4.046639
  N     7.745815  5.215440 -4.830386
  N     5.531183  6.034107 -5.721415
  N     5.192390  5.558326 -1.838884
  N     7.538539  8.872588 -4.939296
  N     5.498045 10.058836 -5.912219
  N     4.958755  9.844270 -2.138196
  S     7.081609  5.620573 -6.228615
  S     4.310229  6.110853 -3.173612
  S     6.701603  4.962900 -2.125882
  S     6.872817  9.294443 -6.429889
  S     4.185008 10.374260 -3.466606
  S     6.453334  9.071636 -2.325877
