16  
    
  C     5.613774  5.883623 -4.411709
  C     6.796603  5.312624 -3.739386
  C     5.689013  9.555851 -4.256789
  C     6.857858  9.035695 -3.573502
  N     7.765508  5.006752 -4.571332
  N     5.692281  5.880756 -5.750219
  N     5.016610  5.585871 -1.931565
  N     7.875445  8.675903 -4.332827
  N     5.850304  9.659265 -5.549066
  N     5.053392  9.392705 -1.754640
  S     7.270513  5.411772 -6.082892
  S     4.348045  6.202928 -3.318018
  S     6.546013  4.981479 -2.074991
  S     7.324711  9.033108 -5.931887
  S     4.315578  9.847773 -3.200776
  S     6.542933  8.672230 -1.932338
