16  
    
  C     5.606398  5.901976 -4.107536
  C     6.602190  5.033875 -3.605532
  C     5.687391  9.503967 -4.582858
  C     6.781638  8.809308 -3.931403
  N     7.556482  4.601689 -4.427830
  N     5.747084  6.175849 -5.393851
  N     5.085009  5.714737 -1.539526
  N     7.805602  8.519749 -4.729765
  N     5.874156  9.807098 -5.877532
  N     5.224642  9.443623 -2.005796
  S     7.115002  5.362046 -5.878789
  S     4.475613  6.397488 -2.953483
  S     6.344872  4.690111 -1.871739
  S     7.456294  9.166327 -6.232322
  S     4.392162  9.812811 -3.406961
  S     6.670828  8.657001 -2.219771
