16  
    
  C     5.155528  5.902713 -4.293204
  C     6.313050  5.446104 -3.691739
  C     5.458020  9.492552 -4.087931
  C     6.628356  8.870375 -3.497061
  N     7.304780  5.182278 -4.533125
  N     5.258905  6.130035 -5.588439
  N     4.642437  5.784969 -1.764244
  N     7.506440  8.480853 -4.388432
  N     5.431337  9.608430 -5.384925
  N     5.004316  9.289652 -1.511617
  S     6.773469  5.530855 -6.027898
  S     3.863418  6.086178 -3.195660
  S     6.256086  5.383640 -1.972805
  S     6.903911  8.938416 -5.828687
  S     4.193638  9.799106 -2.921796
  S     6.589674  8.884197 -1.754265
