16  
    
  C     5.322053  6.333567 -4.567783
  C     6.564377  5.984811 -3.933584
  C     5.747971  9.558259 -4.413982
  C     7.003357  9.192177 -3.777691
  N     7.601730  5.764564 -4.761219
  N     5.389435  6.418091 -5.899223
  N     4.775485  6.412435 -1.996603
  N     7.973093  9.142470 -4.697839
  N     5.781343  9.716215 -5.731157
  N     5.265589  9.483957 -1.939414
  S     6.951131  6.023654 -6.305912
  S     3.986789  6.797258 -3.429509
  S     6.407902  5.901869 -2.135977
  S     7.313147  9.353065 -6.204761
  S     4.432320  9.807923 -3.277651
  S     6.932994  9.074708 -2.053582
