16  
    
  C     5.637936  5.929177 -4.141674
  C     6.714347  5.083575 -3.544987
  C     5.792512  9.583644 -4.491013
  C     6.936757  8.918718 -3.878444
  N     7.718113  4.828799 -4.379553
  N     5.836018  6.223198 -5.421159
  N     5.046616  5.556401 -1.628348
  N     7.887724  8.621608 -4.723097
  N     5.820478  9.761021 -5.814650
  N     5.192108  9.346011 -1.993467
  S     7.256276  5.478166 -5.892567
  S     4.350719  6.337732 -3.022492
  S     6.549911  4.766348 -1.833587
  S     7.285462  9.116255 -6.277377
  S     4.449010  9.806599 -3.426062
  S     6.772598  8.795463 -2.130279
