16  
    
  C     5.699618  5.877499 -4.177905
  C     6.830006  5.289599 -3.569186
  C     5.633018  9.533508 -4.440686
  C     6.903682  9.132419 -3.845950
  N     7.849096  5.026581 -4.405973
  N     5.731129  6.068428 -5.510570
  N     5.035026  5.366642 -1.737844
  N     7.957867  8.950441 -4.622302
  N     5.680614  9.494638 -5.754084
  N     5.167075  9.220301 -1.896998
  S     7.314765  5.656327 -5.908146
  S     4.306063  6.045150 -3.077848
  S     6.600702  4.942302 -1.940394
  S     7.269423  9.116692 -6.195249
  S     4.394753  9.889112 -3.206897
  S     6.789335  8.924530 -2.155242
