16  
    
  C     5.323656  6.271561 -4.322312
  C     6.415210  5.680127 -3.610716
  C     5.520496  9.728035 -4.279310
  C     6.627119  9.167790 -3.525251
  N     7.437757  5.390066 -4.364652
  N     5.562110  6.377962 -5.621819
  N     4.622586  5.898914 -1.914424
  N     7.653365  8.818089 -4.307192
  N     5.678578  9.833274 -5.626957
  N     5.002284  9.691507 -1.653146
  S     7.057733  5.735739 -5.938773
  S     3.926774  6.563885 -3.314250
  S     6.217677  5.559845 -1.884267
  S     7.269223  9.279955 -5.816852
  S     4.187275 10.016775 -3.110568
  S     6.451808  8.941857 -1.817233
