16  
    
  C     5.216843  6.412391 -4.642146
  C     6.473599  6.097708 -3.970369
  C     5.733748  9.697532 -4.441589
  C     6.968406  9.324876 -3.812859
  N     7.496604  5.825010 -4.734353
  N     5.299192  6.436981 -5.947476
  N     4.747659  6.337878 -2.130927
  N     7.947412  9.112847 -4.654002
  N     5.818875  9.712525 -5.787033
  N     5.352945  9.442986 -1.859526
  S     6.849660  6.039012 -6.307350
  S     4.004122  6.772783 -3.510478
  S     6.372044  5.964444 -2.298942
  S     7.402786  9.440905 -6.166528
  S     4.468171  9.773989 -3.180270
  S     6.935756  9.069291 -2.161750
