16  
    
  C     5.404122  5.962096 -4.498900
  C     6.610106  5.608478 -3.839446
  C     5.336557  9.844449 -4.680112
  C     6.590964  9.588938 -4.006062
  N     7.713858  5.604983 -4.625820
  N     5.505265  6.199064 -5.801590
  N     4.948629  5.702819 -1.936212
  N     7.605641  9.670598 -4.807011
  N     5.397578 10.092421 -5.969836
  N     4.759397  9.529215 -2.246095
  S     7.076526  5.943493 -6.193018
  S     4.105899  5.998489 -3.323447
  S     6.504789  5.163118 -2.219507
  S     7.044310  9.914059 -6.355678
  S     3.941021 10.026540 -3.612322
  S     6.322011  9.324990 -2.332819
