16  
    
  C     5.432108  5.646274 -4.384661
  C     6.644955  5.080986 -3.762453
  C     5.774688  9.105352 -4.321354
  C     6.955626  8.774386 -3.575493
  N     7.636221  5.003676 -4.654936
  N     5.490643  5.869076 -5.688218
  N     5.087259  5.722322 -1.838935
  N     8.024734  8.610345 -4.336918
  N     5.853125  9.059201 -5.632847
  N     5.126886  9.286629 -1.861405
  S     7.067492  5.440362 -6.130588
  S     4.216448  6.120535 -3.259497
  S     6.633262  5.084663 -2.023659
  S     7.457424  8.807321 -5.948877
  S     4.468749  9.506764 -3.325741
  S     6.722191  8.813745 -1.849020
