16  
    
  C     5.712754  5.800647 -4.289926
  C     6.925786  5.199588 -3.817211
  C     5.719674  9.666463 -4.461320
  C     6.954769  9.248937 -3.868765
  N     7.931162  5.132146 -4.686694
  N     5.709299  6.150420 -5.577184
  N     5.321729  5.265948 -1.788574
  N     8.098684  9.282084 -4.602845
  N     5.953441 10.016140 -5.720439
  N     5.122081  9.063203 -2.079628
  S     7.260028  5.771088 -6.122077
  S     4.361188  5.694164 -3.061454
  S     6.869116  4.707753 -2.152869
  S     7.536462  9.898719 -6.109091
  S     4.448542  9.904763 -3.321852
  S     6.730449  8.774685 -2.202332
