16  
    
  C     5.520018  6.146529 -4.407103
  C     6.725760  5.647060 -3.796332
  C     5.485075  9.801057 -4.207930
  C     6.662596  9.282221 -3.578000
  N     7.746925  5.484842 -4.632465
  N     5.693452  6.503059 -5.655816
  N     4.987415  5.698192 -1.881829
  N     7.604981  8.998733 -4.468264
  N     5.485308  9.873282 -5.541687
  N     4.880950  9.494337 -1.661321
  S     7.285372  5.968746 -6.134836
  S     4.275432  6.357337 -3.249225
  S     6.493828  5.188892 -2.132362
  S     7.058035  9.427009 -5.954399
  S     4.135346  9.981335 -3.094144
  S     6.539826  9.050185 -1.805394
