16  
    
  C     5.460035  5.674780 -4.404223
  C     6.662476  5.216107 -3.786288
  C     5.763272  9.070132 -4.268977
  C     6.990298  8.819888 -3.550986
  N     7.657681  4.891852 -4.605009
  N     5.560732  5.838148 -5.744377
  N     5.010337  5.726677 -1.851128
  N     8.036453  8.627824 -4.359054
  N     5.882127  9.101236 -5.602377
  N     5.146325  9.278099 -1.835786
  S     7.085389  5.418282 -6.117574
  S     4.200416  6.058367 -3.217385
  S     6.574016  5.156098 -2.034583
  S     7.426240  8.752412 -5.912875
  S     4.452800  9.519893 -3.315473
  S     6.744126  8.863985 -1.805349
