16  
    
  C     5.519140  5.728670 -4.390768
  C     6.773246  5.309770 -3.777982
  C     5.499902  9.491967 -4.639198
  C     6.726372  9.294667 -3.887116
  N     7.743696  5.081771 -4.641152
  N     5.623284  5.787682 -5.706310
  N     5.096238  5.717514 -1.833342
  N     7.757796  9.323035 -4.741599
  N     5.547064  9.602114 -5.978462
  N     4.854414  9.332435 -2.167030
  S     7.190650  5.532814 -6.119120
  S     4.340369  6.063802 -3.237285
  S     6.686874  5.228648 -2.035175
  S     7.224904  9.445303 -6.282155
  S     4.052313  9.671735 -3.606774
  S     6.467770  8.981639 -2.199197
