16  
    
  C     5.564898  5.803645 -4.346910
  C     6.762095  5.508109 -3.617651
  C     5.694498  9.284421 -4.291819
  C     6.965731  9.131621 -3.597411
  N     7.865236  5.231730 -4.315827
  N     5.760678  5.840501 -5.651394
  N     4.794634  5.647772 -1.910668
  N     8.074099  9.228020 -4.325989
  N     5.808237  9.457464 -5.615707
  N     5.196312  8.972547 -1.782675
  S     7.380482  5.396420 -5.948989
  S     4.043798  5.860274 -3.433429
  S     6.450266  5.369123 -1.907101
  S     7.464087  9.469563 -5.922203
  S     4.353872  9.365778 -3.140984
  S     6.847065  8.758427 -1.944042
