16  
    
  C     5.628163  5.709635 -4.263957
  C     6.776887  5.163277 -3.592253
  C     5.413882  9.107802 -4.189855
  C     6.646076  8.754886 -3.526326
  N     7.729351  4.757503 -4.428205
  N     5.744887  5.837871 -5.574171
  N     4.995508  5.656782 -1.785708
  N     7.736027  8.643021 -4.298517
  N     5.549930  9.345568 -5.486391
  N     4.816762  8.989934 -1.696184
  S     7.266139  5.310155 -6.000003
  S     4.265933  6.152891 -3.170199
  S     6.497524  4.850973 -1.930160
  S     7.154940  8.986698 -5.851061
  S     4.118724  9.505614 -3.103574
  S     6.398642  8.569644 -1.806319
