16  
    
  C     5.765270  5.608275 -4.284146
  C     7.018730  5.180639 -3.642022
  C     5.511996  9.419967 -4.495426
  C     6.654803  8.842199 -3.841657
  N     8.080018  5.028346 -4.431525
  N     5.875352  5.750493 -5.607474
  N     5.134801  5.355593 -1.759390
  N     7.715307  8.662519 -4.649952
  N     5.655902  9.589951 -5.823523
  N     4.818834  9.212705 -2.010174
  S     7.444642  5.325621 -5.956616
  S     4.458796  5.940212 -3.135938
  S     6.738482  4.877888 -1.926768
  S     7.164664  9.045269 -6.177277
  S     4.089167  9.617548 -3.493186
  S     6.331975  8.571798 -2.135710
