16  
    
  C     5.386068  5.500082 -4.332622
  C     6.600536  5.020999 -3.709192
  C     5.646364  9.280820 -4.342631
  C     6.738495  8.571200 -3.729405
  N     7.590359  4.768929 -4.575297
  N     5.513872  5.786803 -5.623506
  N     4.791549  5.162151 -1.852970
  N     7.726917  8.282868 -4.579399
  N     5.874135  9.638842 -5.596244
  N     4.858130  8.603797 -2.004585
  S     7.039188  5.302957 -6.036645
  S     4.019058  5.497397 -3.307545
  S     6.344259  4.687866 -2.025944
  S     7.294920  8.961353 -6.070933
  S     4.322929  9.578811 -3.179200
  S     6.463196  8.144599 -2.073143
