16  
    
  C     5.600073  6.119531 -4.329366
  C     6.698251  5.427076 -3.671403
  C     5.839924  9.848326 -4.200916
  C     7.027184  9.317686 -3.601277
  N     7.662310  4.912679 -4.481767
  N     5.738033  6.212229 -5.642808
  N     4.973587  6.136147 -1.805732
  N     8.019246  8.955541 -4.414998
  N     5.918969  9.869488 -5.547619
  N     5.214021  9.288302 -1.815900
  S     7.197327  5.502338 -5.986497
  S     4.204879  6.470367 -3.253451
  S     6.445258  5.386152 -1.945225
  S     7.459207  9.224609 -5.937494
  S     4.471597  9.900732 -3.134634
  S     6.839373  9.119709 -1.873865
