16  
    
  C     5.651023  5.865811 -4.187886
  C     6.712363  5.145543 -3.560750
  C     5.738935  9.568030 -4.477931
  C     6.929523  9.047964 -3.850685
  N     7.726766  4.953393 -4.394781
  N     5.861342  6.238413 -5.463374
  N     5.018272  5.497876 -1.651926
  N     7.860312  8.732569 -4.766356
  N     5.760069  9.690509 -5.788061
  N     5.172742  9.275326 -2.004822
  S     7.285534  5.498649 -5.863951
  S     4.355935  6.257988 -3.023354
  S     6.581194  4.817358 -1.858037
  S     7.284539  9.090745 -6.252155
  S     4.479645  9.835864 -3.393940
  S     6.799716  8.828331 -2.079914
