16  
    
  C     5.624532  5.947956 -4.363518
  C     6.869423  5.365431 -3.752351
  C     5.568931  9.486100 -4.678184
  C     6.790077  9.166179 -3.934440
  N     7.858103  5.075453 -4.613634
  N     5.644419  5.967411 -5.708759
  N     5.249317  5.640070 -1.808866
  N     7.861751  9.253108 -4.654318
  N     5.799100  9.905409 -5.923871
  N     4.894937  9.113678 -2.206019
  S     7.205763  5.490201 -6.123072
  S     4.403626  5.967538 -3.175698
  S     6.719376  5.003217 -2.058811
  S     7.408924  9.796149 -6.207579
  S     4.144455  9.525595 -3.623144
  S     6.552071  8.950618 -2.214284
