16  
    
  C     5.468075  5.619476 -4.259861
  C     6.666452  5.099883 -3.599962
  C     5.506226  9.262020 -4.193235
  C     6.722775  8.895411 -3.482470
  N     7.715963  5.002353 -4.388753
  N     5.632296  5.845579 -5.554103
  N     4.893914  5.531433 -1.779789
  N     7.783686  8.795322 -4.289141
  N     5.605976  9.435813 -5.511149
  N     4.920050  9.141916 -1.673806
  S     7.166249  5.340720 -5.940380
  S     4.292661  6.087042 -3.154645
  S     6.413628  4.815843 -1.888240
  S     7.242844  9.168668 -5.831958
  S     4.124830  9.434294 -3.116713
  S     6.510729  8.589244 -1.778513
