16  
    
  C     5.522273  5.988523 -4.481993
  C     6.586308  5.435342 -3.669097
  C     5.785748  9.361759 -4.304471
  C     7.049080  9.001757 -3.651705
  N     7.693692  5.149788 -4.356175
  N     5.791166  6.152361 -5.786345
  N     4.651795  5.599461 -2.077980
  N     8.104532  8.962106 -4.439848
  N     5.863514  9.638114 -5.595013
  N     5.167761  9.014557 -1.837942
  S     7.413105  5.676583 -5.928699
  S     4.137623  6.113413 -3.555600
  S     6.231813  5.254488 -2.012271
  S     7.460779  9.441255 -6.009102
  S     4.433835  9.433586 -3.273766
  S     6.846029  8.828117 -1.866455
