16  
    
  C     5.518336  6.353668 -4.516868
  C     6.704476  5.867374 -3.842016
  C     5.646136  9.842279 -4.431749
  C     6.860889  9.482345 -3.744178
  N     7.693021  5.504470 -4.668045
  N     5.682959  6.514927 -5.845158
  N     4.882048  6.224357 -1.994723
  N     7.937620  9.167948 -4.498546
  N     5.788265  9.814286 -5.777760
  N     5.092872  9.745566 -1.876735
  S     7.222407  5.891868 -6.147738
  S     4.218365  6.723185 -3.414289
  S     6.481640  5.874748 -2.066552
  S     7.431784  9.533170 -6.054286
  S     4.256982  9.907213 -3.368369
  S     6.675132  9.354163 -2.076036
