16  
    
  C     5.128636  6.264074 -4.328812
  C     6.206068  5.490448 -3.632556
  C     5.731617  9.592188 -4.202719
  C     6.952738  9.136654 -3.615022
  N     7.311618  5.255977 -4.354613
  N     5.429794  6.424612 -5.617299
  N     4.455518  6.247543 -1.811097
  N     7.946560  8.928846 -4.437704
  N     5.839316  9.725408 -5.502966
  N     5.277120  9.429119 -1.673165
  S     6.952366  5.829177 -5.888662
  S     3.795474  6.785627 -3.296242
  S     5.879067  5.376845 -1.899677
  S     7.375358  9.349286 -5.971377
  S     4.449008 10.002289 -3.013454
  S     6.806737  8.821000 -1.906502
