16  
    
  C     5.246862  5.756788 -4.540898
  C     6.509980  5.356952 -3.880319
  C     5.407522  9.607937 -4.452676
  C     6.551138  9.092796 -3.765974
  N     7.530317  5.137871 -4.703666
  N     5.346977  5.947687 -5.853235
  N     4.782352  5.730840 -1.924832
  N     7.599475  8.792677 -4.552921
  N     5.533628  9.538645 -5.791703
  N     4.724689  9.603243 -1.983654
  S     6.964831  5.605040 -6.215880
  S     4.015352  6.180253 -3.375641
  S     6.393110  5.213680 -2.103494
  S     6.989635  8.950159 -6.142817
  S     4.110005 10.085329 -3.408311
  S     6.212530  8.898914 -2.078738
