16  
    
  C     5.327499  5.909374 -4.358592
  C     6.449576  5.379393 -3.716346
  C     5.678251  9.649473 -4.208487
  C     6.715713  9.058277 -3.449978
  N     7.548742  5.225516 -4.443754
  N     5.475992  6.094648 -5.658599
  N     4.742747  5.817737 -1.828576
  N     7.788897  8.780968 -4.220898
  N     5.862203  9.870101 -5.521195
  N     4.817520  9.259497 -1.754490
  S     7.051676  5.633562 -5.988802
  S     3.994728  6.241602 -3.264186
  S     6.334847  5.295526 -1.932778
  S     7.405724  9.340039 -5.792474
  S     4.353247 10.002141 -3.234228
  S     6.414211  8.773000 -1.793961
