16  
    
  C     5.547725  5.473518 -4.311069
  C     6.770577  5.343741 -3.566197
  C     5.680138  9.375129 -4.230609
  C     6.944293  9.230846 -3.566698
  N     7.878044  5.234065 -4.337056
  N     5.682303  5.461790 -5.661418
  N     4.957979  5.758165 -1.786721
  N     7.971938  9.314581 -4.371459
  N     5.790975  9.489825 -5.555340
  N     5.181010  8.921256 -1.714135
  S     7.318276  5.382846 -5.921208
  S     4.253482  5.783237 -3.294565
  S     6.582347  5.443533 -1.827369
  S     7.393804  9.413982 -5.911781
  S     4.326758  9.201765 -3.155740
  S     6.808408  8.766633 -1.893100
