16  
    
  C     5.482971  6.169337 -4.400998
  C     6.725866  5.627061 -3.939389
  C     5.468685  9.900174 -4.342309
  C     6.634884  9.241520 -3.745651
  N     7.597615  5.396412 -4.936568
  N     5.472870  6.405911 -5.707053
  N     5.193645  5.719497 -1.866609
  N     7.648372  9.009799 -4.568257
  N     5.622663 10.145435 -5.625160
  N     4.813468  9.681479 -1.844030
  S     7.008526  5.930993 -6.369264
  S     4.278605  6.387037 -3.153159
  S     6.794509  5.281943 -2.261263
  S     7.124939  9.508314 -6.033840
  S     4.199302 10.216597 -3.263940
  S     6.394760  9.012997 -1.981595
