16  
    
  C     5.450121  5.693893 -4.395630
  C     6.668411  5.247968 -3.792683
  C     5.776125  9.063431 -4.259938
  C     7.004054  8.830722 -3.548007
  N     7.661342  4.874259 -4.601811
  N     5.576033  5.831022 -5.739933
  N     4.994779  5.720282 -1.847819
  N     8.029450  8.630558 -4.369536
  N     5.880665  9.111122 -5.594528
  N     5.146116  9.276425 -1.820154
  S     7.096812  5.405209 -6.117416
  S     4.198776  6.041983 -3.215137
  S     6.555033  5.175133 -2.038690
  S     7.429543  8.737780 -5.905927
  S     4.434390  9.522492 -3.303134
  S     6.752286  8.877159 -1.801796
