16  
    
  C     5.529131  5.796494 -4.551998
  C     6.750913  5.543871 -3.895803
  C     5.157830  9.421726 -4.472935
  C     6.320390  9.086244 -3.682701
  N     7.874083  5.492540 -4.636618
  N     5.641981  5.860662 -5.892273
  N     4.864526  5.607392 -2.044527
  N     7.361091  8.760495 -4.457042
  N     5.262752  9.351903 -5.783102
  N     4.593013 10.009903 -2.036554
  S     7.270920  5.667575 -6.156694
  S     4.126550  5.955947 -3.483184
  S     6.560903  5.348571 -2.128281
  S     6.830580  9.028359 -6.071348
  S     3.878319 10.207090 -3.516229
  S     6.120840  9.280457 -1.963160
