16  
    
  C     5.456877  5.610024 -4.374236
  C     6.686187  5.142030 -3.779531
  C     5.704433  9.084617 -4.378612
  C     6.940354  8.796435 -3.674290
  N     7.671666  5.029187 -4.679863
  N     5.499380  5.873321 -5.665613
  N     5.095026  5.683421 -1.842202
  N     8.018611  8.579364 -4.458490
  N     5.909571  9.107139 -5.685793
  N     5.122110  9.239719 -1.823249
  S     6.993885  5.466764 -6.153977
  S     4.285898  6.171489 -3.208172
  S     6.618363  5.004058 -2.066257
  S     7.529844  8.850026 -5.983943
  S     4.349618  9.497514 -3.296068
  S     6.713636  8.751589 -1.939119
