16  
    
  C     5.516039  5.814497 -4.053854
  C     6.736690  5.367321 -3.422289
  C     5.563495  8.862035 -4.054725
  C     6.819080  8.569395 -3.438171
  N     7.712115  5.110977 -4.329319
  N     5.627558  5.897026 -5.377902
  N     4.937276  5.477990 -1.606370
  N     7.738531  8.270628 -4.342836
  N     5.568028  8.944839 -5.375654
  N     5.100505  8.930352 -1.509805
  S     7.140464  5.418578 -5.832415
  S     4.133026  5.962054 -3.027833
  S     6.502465  4.882709 -1.739494
  S     7.074540  8.545131 -5.814911
  S     4.273763  9.085404 -2.932460
  S     6.732745  8.700535 -1.702951
