16  
    
  C     5.590942  5.846869 -4.449356
  C     6.825607  5.458401 -3.816471
  C     5.675616  9.474107 -4.240444
  C     6.961811  9.146041 -3.661119
  N     7.807480  5.466453 -4.709057
  N     5.654977  6.067898 -5.739065
  N     5.130479  5.445034 -1.990112
  N     7.978099  9.215322 -4.498398
  N     5.740892  9.649638 -5.539201
  N     5.219484  9.213410 -1.754765
  S     7.232306  5.737946 -6.233563
  S     4.346923  6.080792 -3.305572
  S     6.761177  5.160504 -2.124435
  S     7.291934  9.439253 -5.972701
  S     4.343189  9.366833 -3.156266
  S     6.777133  8.648513 -1.991223
