16  
    
  C     5.600031  5.672979 -4.256621
  C     6.705320  5.067726 -3.600436
  C     5.461171  9.260317 -4.186149
  C     6.657370  8.834006 -3.520450
  N     7.751158  4.987432 -4.458652
  N     5.643614  5.806597 -5.581164
  N     4.982053  5.594548 -1.724779
  N     7.724337  8.771097 -4.306531
  N     5.611389  9.303199 -5.514515
  N     4.899534  9.093666 -1.652928
  S     7.184352  5.320841 -5.949873
  S     4.303564  6.119695 -3.196384
  S     6.387211  4.822752 -1.891025
  S     7.227621  9.126622 -5.802629
  S     4.124557  9.453362 -3.131915
  S     6.470235  8.566933 -1.781284
