16  
    
  C     5.514363  5.971357 -4.468554
  C     6.681924  5.445326 -3.778117
  C     5.683149  9.449743 -4.222659
  C     6.895020  9.088053 -3.548767
  N     7.731298  5.084342 -4.562364
  N     5.623134  6.048538 -5.801634
  N     4.860800  5.864693 -1.976050
  N     7.962402  9.116537 -4.341241
  N     5.792285  9.580164 -5.563502
  N     5.165119  9.491238 -1.718046
  S     7.151800  5.462010 -6.055249
  S     4.177702  6.407303 -3.382182
  S     6.485353  5.421520 -2.056404
  S     7.399960  9.293376 -5.923486
  S     4.363331  9.778513 -3.129931
  S     6.712592  8.960434 -1.793330
