16  
    
  C     5.497694  5.810218 -4.555711
  C     6.720385  5.571539 -3.832274
  C     5.177281  9.567872 -4.426703
  C     6.396986  9.199026 -3.746796
  N     7.790354  5.479890 -4.587035
  N     5.659968  5.828814 -5.869292
  N     4.895561  5.649557 -2.038492
  N     7.435288  8.818550 -4.511332
  N     5.298046  9.440147 -5.717675
  N     4.656081  9.889698 -2.005711
  S     7.306723  5.742517 -6.180921
  S     4.102614  5.972888 -3.486957
  S     6.518315  5.394131 -2.180621
  S     6.868054  8.925498 -6.020225
  S     3.888129 10.135378 -3.475148
  S     6.159039  9.296695 -2.059453
