16  
    
  C     5.571746  5.753418 -4.323140
  C     6.876215  5.338341 -3.738794
  C     5.524600  9.379727 -4.709653
  C     6.725640  9.119636 -3.934273
  N     7.865245  5.201812 -4.633498
  N     5.705353  5.937960 -5.627011
  N     5.167454  5.738257 -1.819747
  N     7.827886  9.270569 -4.655581
  N     5.666647  9.598287 -5.997953
  N     4.855588  9.261160 -2.136405
  S     7.202620  5.436269 -6.142581
  S     4.293463  6.052322 -3.229680
  S     6.730262  5.079324 -2.035350
  S     7.307308  9.714385 -6.197465
  S     4.137422  9.600165 -3.618708
  S     6.485090  8.974691 -2.286409
