16  
    
  C     5.575069  5.871082 -4.264337
  C     6.825349  5.422520 -3.647296
  C     5.748435  9.505137 -4.464470
  C     6.972632  9.143628 -3.753639
  N     7.868122  5.252870 -4.459893
  N     5.703424  6.095084 -5.583672
  N     4.986131  5.869387 -1.811338
  N     8.039363  8.996925 -4.572990
  N     5.962740  9.669588 -5.730977
  N     5.018719  9.277529 -1.992977
  S     7.239349  5.740220 -6.028562
  S     4.275526  6.122276 -3.248696
  S     6.594848  5.345516 -1.908136
  S     7.523292  9.286849 -6.118164
  S     4.359774  9.528081 -3.447825
  S     6.704991  9.047828 -2.009891
