16  
    
  C     5.543093  6.222143 -4.676333
  C     6.641658  5.595589 -3.955558
  C     5.662096  9.748294 -4.437411
  C     6.824353  9.208051 -3.796493
  N     7.713084  5.325338 -4.723110
  N     5.825113  6.422004 -5.972496
  N     4.708845  5.728324 -2.319368
  N     7.856285  9.062377 -4.606804
  N     5.898770 10.056214 -5.711319
  N     4.967090  9.244540 -2.004554
  S     7.422422  5.987034 -6.189409
  S     4.071929  6.407585 -3.728346
  S     6.284171  5.265361 -2.261897
  S     7.435892  9.547894 -6.072797
  S     4.226753  9.755696 -3.372618
  S     6.582763  8.820751 -2.146152
