16  
    
  C     5.525941  5.821292 -4.474452
  C     6.651220  5.196081 -3.712183
  C     5.704195  9.301064 -4.247174
  C     6.940432  8.901584 -3.624584
  N     7.707590  4.899869 -4.479915
  N     5.718272  5.983551 -5.785922
  N     4.782664  5.511612 -1.968951
  N     7.982613  8.709926 -4.447782
  N     5.854384  9.498415 -5.573007
  N     5.111818  9.139574 -1.732334
  S     7.268755  5.433173 -5.982323
  S     4.199931  6.157084 -3.383648
  S     6.356825  4.966441 -1.988592
  S     7.405834  9.189202 -5.966389
  S     4.375471  9.501526 -3.135390
  S     6.724189  8.757542 -1.821511
