16  
    
  C     5.630269  5.320026 -3.901250
  C     6.890090  4.996492 -3.281828
  C     5.428877  9.372674 -4.190770
  C     6.500225  8.701306 -3.501752
  N     7.976386  4.989618 -4.081359
  N     5.781294  5.541481 -5.200731
  N     5.108010  5.087484 -1.369921
  N     7.551778  8.454365 -4.273091
  N     5.636396  9.628366 -5.478277
  N     4.760770  9.303152 -1.685500
  S     7.358193  5.195503 -5.610957
  S     4.314473  5.405308 -2.800163
  S     6.766283  4.901405 -1.547214
  S     7.247726  9.062060 -5.744069
  S     4.055336  9.711944 -3.140110
  S     6.239892  8.554492 -1.843415
