16  
    
  C     5.472495  5.269482 -4.216871
  C     6.753124  5.060837 -3.597463
  C     5.398191  9.240954 -4.456345
  C     6.571958  8.651926 -3.830664
  N     7.785566  4.922327 -4.411531
  N     5.523735  5.243750 -5.531912
  N     5.142137  5.276325 -1.626891
  N     7.592464  8.417842 -4.651197
  N     5.514985  9.435791 -5.770566
  N     4.863429  9.091243 -1.945882
  S     7.137557  5.151798 -5.946651
  S     4.223226  5.084338 -2.990952
  S     6.753561  5.093256 -1.868966
  S     7.006202  8.849072 -6.225877
  S     4.087368  9.545846 -3.381795
  S     6.459804  8.698044 -2.082960
