16  
    
  C     5.531098  5.804275 -4.067999
  C     6.739244  5.310798 -3.479665
  C     5.451963  8.911928 -4.130864
  C     6.731204  8.704956 -3.484535
  N     7.786491  5.130294 -4.323346
  N     5.521312  5.867468 -5.411703
  N     5.057032  5.512680 -1.560336
  N     7.732002  8.549675 -4.321919
  N     5.500245  8.844898 -5.439938
  N     5.102607  9.082420 -1.565149
  S     7.092593  5.481541 -5.808906
  S     4.316002  5.995334 -2.944087
  S     6.558691  4.936415 -1.834052
  S     7.131696  8.611411 -5.865543
  S     4.174293  9.050218 -2.911533
  S     6.745852  8.699249 -1.762822
