16  
    
  C     5.247518  6.457749 -4.667618
  C     6.476173  6.072331 -4.049487
  C     5.699938  9.660564 -4.422081
  C     6.996173  9.268366 -3.819745
  N     7.462628  5.813016 -4.908465
  N     5.290119  6.464962 -5.979489
  N     4.742738  6.323495 -2.101249
  N     8.019865  9.200617 -4.680402
  N     5.793023  9.896198 -5.739936
  N     5.363531  9.435781 -1.876891
  S     6.869790  6.044502 -6.365957
  S     3.899026  6.746516 -3.543191
  S     6.352337  5.986367 -2.269733
  S     7.366879  9.426900 -6.190258
  S     4.451830  9.807576 -3.253441
  S     6.980775  9.061083 -2.028601
