16  
    
  C     5.506009  5.960274 -4.446444
  C     6.731533  5.501413 -3.791213
  C     5.637961  9.351004 -4.226645
  C     6.879218  9.050522 -3.554336
  N     7.719029  5.141755 -4.592877
  N     5.611064  5.939874 -5.770504
  N     4.886462  5.835745 -1.998615
  N     7.967647  9.069328 -4.342810
  N     5.809158  9.489491 -5.522053
  N     5.145099  9.535025 -1.676803
  S     7.169651  5.482226 -6.105854
  S     4.161518  6.384368 -3.378342
  S     6.471163  5.405635 -2.096706
  S     7.362064  9.338853 -5.916043
  S     4.363400  9.734093 -3.113715
  S     6.674745  8.925670 -1.793422
