16  
    
  C     5.392496  5.415257 -4.339978
  C     6.611647  5.030870 -3.687502
  C     5.735025  9.393151 -4.202014
  C     6.839501  8.652850 -3.618419
  N     7.653269  4.985560 -4.484684
  N     5.509012  5.648842 -5.647352
  N     4.931788  5.356421 -1.780285
  N     7.766322  8.323739 -4.491565
  N     5.846854  9.635417 -5.507785
  N     5.062235  8.951565 -1.780305
  S     7.141621  5.249012 -6.016888
  S     4.078929  5.391068 -3.227565
  S     6.479146  4.793383 -1.970996
  S     7.269060  8.954138 -5.991052
  S     4.343942  9.484726 -3.205894
  S     6.648675  8.340624 -1.923210
