16  
    
  C     5.199694  6.269590 -4.290596
  C     6.377740  5.763913 -3.573316
  C     5.683420  9.596101 -4.073619
  C     6.856754  9.000523 -3.485634
  N     7.397408  5.437218 -4.394750
  N     5.390247  6.243569 -5.609699
  N     4.461458  5.992230 -1.872392
  N     7.773911  8.614812 -4.366257
  N     5.752991  9.780810 -5.384475
  N     5.222571  9.474451 -1.564718
  S     6.926593  5.780627 -5.912876
  S     3.818614  6.493092 -3.287255
  S     6.084309  5.609558 -1.910238
  S     7.135536  9.086257 -5.891460
  S     4.403150  9.882663 -2.927738
  S     6.727790  8.953703 -1.795141
