16  
    
  C     5.373295  5.650780 -4.356969
  C     6.487366  5.034776 -3.688972
  C     5.467129  9.159380 -4.345329
  C     6.618131  8.505044 -3.741016
  N     7.517755  4.676777 -4.436309
  N     5.537937  5.720100 -5.682021
  N     4.610149  5.175714 -1.969911
  N     7.642943  8.307710 -4.533519
  N     5.697680  9.486814 -5.622678
  N     4.858316  8.821756 -1.856818
  S     7.064437  5.253411 -5.953460
  S     3.972127  5.944732 -3.337235
  S     6.221297  4.823846 -2.013081
  S     7.162812  8.903111 -6.024770
  S     4.122976  9.360501 -3.267283
  S     6.485943  8.336188 -2.036813
