16  
    
  C     5.457163  5.613671 -4.312873
  C     6.720100  5.422169 -3.658687
  C     5.292208 10.171538 -4.592109
  C     6.333761  9.408060 -4.022555
  N     7.808123  5.282697 -4.472370
  N     5.542087  5.635016 -5.647791
  N     4.949290  5.524637 -1.754432
  N     7.321162  8.978717 -4.810625
  N     5.522001 10.383813 -5.899514
  N     4.613053  9.610217 -2.114090
  S     7.171582  5.380919 -5.986025
  S     4.128766  5.565479 -3.171266
  S     6.605481  5.368750 -1.903679
  S     6.933220  9.601218 -6.289121
  S     4.029743 10.503091 -3.463368
  S     6.210272  9.131578 -2.275490
