16  
    
  C     5.512811  5.359852 -4.098362
  C     6.910412  5.251678 -3.614259
  C     5.523567  9.307412 -4.592092
  C     6.686841  8.816838 -3.879987
  N     7.803023  5.285676 -4.596028
  N     5.418655  5.428950 -5.445113
  N     5.416115  5.216785 -1.508352
  N     7.751478  8.641268 -4.680078
  N     5.708947  9.474409 -5.889124
  N     4.784110  9.211117 -2.133160
  S     6.949784  5.413903 -6.043940
  S     4.391380  5.335230 -2.829156
  S     7.027940  5.117236 -1.892106
  S     7.291312  8.976626 -6.190943
  S     4.224362  9.845255 -3.575138
  S     6.273053  8.599864 -2.179175
