16  
    
  C     5.450389  5.666745 -4.324850
  C     6.707138  5.409046 -3.680168
  C     5.305461 10.195132 -4.590473
  C     6.355200  9.452470 -4.013962
  N     7.762406  5.282777 -4.517267
  N     5.522829  5.668463 -5.638130
  N     4.954129  5.539739 -1.741364
  N     7.323917  8.973639 -4.818979
  N     5.529813 10.402599 -5.930096
  N     4.652701  9.593902 -2.119683
  S     7.165706  5.405217 -5.987020
  S     4.094550  5.553508 -3.179772
  S     6.607899  5.362054 -1.918412
  S     6.932959  9.632614 -6.280276
  S     4.024838 10.492563 -3.468587
  S     6.218057  9.123587 -2.261279
