16  
    
  C     5.525152  5.956567 -4.755736
  C     6.735830  5.609828 -4.014987
  C     5.607983  9.824505 -4.314473
  C     6.754730  9.215891 -3.729497
  N     7.817043  5.623531 -4.793146
  N     5.703652  6.192901 -6.050370
  N     4.890430  5.678685 -2.253800
  N     7.746379  9.085080 -4.617091
  N     5.764619 10.213289 -5.580300
  N     4.855249  9.211798 -1.953995
  S     7.301104  5.884506 -6.306951
  S     4.201097  6.029489 -3.705910
  S     6.453025  5.361607 -2.291766
  S     7.300736  9.744078 -6.010435
  S     4.193735  9.785661 -3.381758
  S     6.491562  8.860586 -2.006824
