16  
    
  C     5.523986  5.770886 -4.440131
  C     6.654845  5.169885 -3.748642
  C     5.702433  9.379344 -4.291298
  C     6.900168  8.971336 -3.582886
  N     7.734659  4.986245 -4.501660
  N     5.715651  5.962386 -5.761778
  N     4.777117  5.477228 -1.997020
  N     7.925949  8.725205 -4.380258
  N     5.854000  9.537881 -5.592532
  N     5.104591  9.190342 -1.698063
  S     7.280939  5.407787 -6.039362
  S     4.238169  6.210726 -3.357414
  S     6.375687  4.967146 -1.985803
  S     7.395331  9.150922 -5.982831
  S     4.380340  9.577338 -3.160290
  S     6.712848  8.738138 -1.817187
