16  
    
  C     5.360873  5.702204 -4.270526
  C     6.593259  5.309010 -3.652119
  C     5.429752  9.293974 -4.196989
  C     6.707764  8.951535 -3.621986
  N     7.627780  5.198066 -4.482478
  N     5.411371  5.754373 -5.599220
  N     4.859991  5.626941 -1.787226
  N     7.711832  8.799994 -4.503656
  N     5.458057  9.447129 -5.514852
  N     5.010578  9.371385 -1.747054
  S     7.036972  5.554655 -6.003086
  S     4.028167  6.018604 -3.167162
  S     6.469734  5.192191 -1.924514
  S     7.019688  9.121287 -5.957624
  S     4.121503  9.596037 -3.126880
  S     6.498867  8.719718 -1.902634
