16  
    
  C     5.391819  5.725506 -4.533079
  C     6.531564  5.293033 -3.789513
  C     5.311470  9.456013 -4.363310
  C     6.539186  9.120796 -3.721616
  N     7.640631  5.115050 -4.496740
  N     5.539854  5.816470 -5.862807
  N     4.714560  5.781382 -2.037379
  N     7.560115  8.892059 -4.547673
  N     5.369717  9.494435 -5.674337
  N     4.792632  9.370692 -1.874370
  S     7.198777  5.552250 -6.055693
  S     4.028079  6.150099 -3.484353
  S     6.271687  5.250816 -2.001580
  S     6.836224  9.055664 -6.074870
  S     3.996996  9.696731 -3.292024
  S     6.376330  8.895862 -2.019535
