16  
    
  C     5.575685  5.453225 -4.167185
  C     6.914037  5.273776 -3.674209
  C     5.507938  9.356515 -4.585233
  C     6.649904  8.825409 -3.884780
  N     7.845929  5.219364 -4.634454
  N     5.393619  5.510968 -5.489286
  N     5.391002  5.241492 -1.550919
  N     7.762087  8.584201 -4.576662
  N     5.752877  9.549961 -5.883840
  N     4.783329  9.291801 -2.104306
  S     6.956230  5.455842 -6.031264
  S     4.394270  5.356027 -2.844051
  S     7.046561  5.127097 -1.869947
  S     7.301920  9.018242 -6.164384
  S     4.171972  9.762469 -3.545275
  S     6.300516  8.518867 -2.190101
