16  
    
  C     5.197412  6.382420 -4.284131
  C     6.307734  5.720159 -3.604390
  C     5.832967  9.571813 -4.185205
  C     7.059375  9.055662 -3.604343
  N     7.326363  5.547256 -4.445738
  N     5.310944  6.481241 -5.603295
  N     4.399033  5.970010 -1.858562
  N     7.994236  8.853015 -4.507788
  N     5.923392  9.786778 -5.483783
  N     5.391046  9.634146 -1.659027
  S     6.901722  5.987020 -5.952637
  S     3.845577  6.716997 -3.261913
  S     5.956781  5.420355 -1.962014
  S     7.372205  9.198538 -5.995281
  S     4.584762  9.920936 -3.035208
  S     6.943778  8.862690 -1.802185
