16  
    
  C     5.466157  5.689357 -4.357238
  C     6.738924  5.224128 -3.801746
  C     5.701782  9.095779 -4.404730
  C     6.911817  8.791262 -3.698947
  N     7.694214  4.988349 -4.691972
  N     5.483172  5.856470 -5.700554
  N     5.078502  5.633180 -1.824745
  N     8.001297  8.594912 -4.429505
  N     5.916790  9.192943 -5.727902
  N     5.118610  9.192091 -1.867901
  S     6.990457  5.467578 -6.166412
  S     4.323700  6.170720 -3.151364
  S     6.574621  4.981772 -2.091279
  S     7.520825  8.854216 -6.018743
  S     4.313083  9.476162 -3.280182
  S     6.722574  8.734004 -1.982213
