16  
    
  C     5.499418  5.786699 -4.133310
  C     6.501781  4.917273 -3.578905
  C     5.696547  9.475046 -4.444793
  C     6.882507  8.936374 -3.818570
  N     7.341267  4.408810 -4.448816
  N     5.503619  5.973615 -5.445732
  N     4.945962  5.576132 -1.576140
  N     7.949068  8.775912 -4.624800
  N     5.768529  9.584792 -5.781796
  N     4.947724  9.140515 -2.053337
  S     6.917285  5.185541 -5.909050
  S     4.299161  6.285304 -2.950406
  S     6.283402  4.653343 -1.942046
  S     7.280300  9.144095 -6.199314
  S     4.395099  9.928614 -3.417001
  S     6.539230  8.673563 -2.115403
