16  
    
  C     5.626337  5.408379 -4.152239
  C     6.890794  4.960836 -3.505258
  C     5.497921  9.418724 -4.686296
  C     6.625294  8.842246 -3.971738
  N     7.875243  4.707964 -4.353153
  N     5.763388  5.673624 -5.452270
  N     5.121614  5.052957 -1.631323
  N     7.624394  8.501774 -4.800258
  N     5.588591  9.529239 -6.007150
  N     4.825319  9.300256 -2.201141
  S     7.346137  5.267424 -5.811966
  S     4.277099  5.317918 -3.078125
  S     6.766280  4.842636 -1.747575
  S     7.087304  8.988424 -6.376752
  S     4.141889  9.678503 -3.657819
  S     6.502365  8.883304 -2.265286
