16  
    
  C     5.649388  6.190743 -4.219988
  C     6.838623  5.576102 -3.713734
  C     5.816539  9.463607 -4.284121
  C     6.999302  8.880501 -3.640848
  N     7.820513  5.458706 -4.607896
  N     5.758603  6.534205 -5.517418
  N     5.171698  5.732252 -1.750069
  N     7.954828  8.696974 -4.520751
  N     5.942473  9.737552 -5.581347
  N     5.444126  9.217650 -1.725955
  S     7.273379  6.064313 -6.033273
  S     4.374148  6.209650 -3.125219
  S     6.754551  5.224151 -2.015336
  S     7.399855  9.184160 -6.004365
  S     4.578242  9.680741 -3.061135
  S     7.058588  8.812141 -1.893769
