16  
    
  C     5.298804  5.843455 -4.423912
  C     6.626625  5.448682 -3.861853
  C     5.382258  9.540237 -4.536732
  C     6.534231  9.003299 -3.848769
  N     7.580852  5.262433 -4.746454
  N     5.378911  6.045196 -5.717416
  N     4.957671  5.725359 -1.883156
  N     7.534447  8.673193 -4.664340
  N     5.517879  9.650043 -5.885791
  N     4.780254  9.638661 -2.027050
  S     6.885919  5.519106 -6.237424
  S     4.029318  6.078067 -3.285520
  S     6.540162  5.257684 -2.155081
  S     7.044042  9.125906 -6.242350
  S     4.068945 10.006886 -3.442228
  S     6.361497  9.166456 -2.155053
