16  
    
  C     5.628471  5.816662 -4.449220
  C     6.875483  5.412488 -3.844375
  C     5.842493  9.586085 -3.918053
  C     7.057688  8.981412 -3.437124
  N     7.868107  5.220171 -4.709448
  N     5.733530  5.959127 -5.755696
  N     5.185802  5.336843 -1.893317
  N     7.985347  8.835734 -4.404834
  N     5.837308  9.884610 -5.212038
  N     5.377069  8.801897 -1.496856
  S     7.349898  5.659422 -6.170170
  S     4.391471  5.803068 -3.248783
  S     6.780784  5.108890 -2.131512
  S     7.246436  9.298958 -5.816709
  S     4.529926  9.550545 -2.755213
  S     6.958487  8.402477 -1.841851
