16  
    
  C     5.528198  6.029079 -4.394500
  C     6.588423  5.400868 -3.687987
  C     5.778209  9.750610 -4.224550
  C     6.989523  9.372225 -3.581760
  N     7.567314  5.003330 -4.511839
  N     5.751131  6.213533 -5.695489
  N     4.908052  5.992085 -1.886452
  N     7.994492  8.989479 -4.357705
  N     5.919260  9.727004 -5.550224
  N     5.154306  9.325813 -1.726226
  S     7.199115  5.446680 -6.065563
  S     4.223887  6.436707 -3.336885
  S     6.465789  5.436513 -1.948069
  S     7.428384  9.233082 -5.905545
  S     4.390558  9.861767 -3.151963
  S     6.808189  9.064870 -1.901159
