16  
    
  C     5.591926  6.366292 -4.568191
  C     6.550858  5.582850 -3.823735
  C     5.785130  9.457596 -4.414087
  C     7.009126  9.032608 -3.735474
  N     7.634391  5.222594 -4.539396
  N     5.942514  6.584636 -5.869331
  N     4.607851  5.858194 -2.204748
  N     8.072165  9.016267 -4.524186
  N     5.859679  9.656260 -5.710143
  N     5.100612  9.241895 -1.939969
  S     7.479476  5.965564 -6.014672
  S     4.096997  6.577731 -3.645925
  S     6.032375  5.029174 -2.289508
  S     7.477110  9.406837 -6.095597
  S     4.404917  9.650934 -3.408790
  S     6.710777  8.738703 -2.015848
