16  
    
  C     5.604801  5.668806 -4.101641
  C     6.870134  5.246600 -3.535503
  C     5.537232  8.975526 -4.150090
  C     6.839351  8.981471 -3.532380
  N     7.742758  4.943796 -4.461921
  N     5.572459  5.763197 -5.403075
  N     5.202074  5.412664 -1.568500
  N     7.838515  8.989066 -4.408518
  N     5.559486  9.023185 -5.506324
  N     5.096615  9.045456 -1.650869
  S     7.089297  5.377542 -5.879760
  S     4.417922  5.852975 -2.941090
  S     6.822480  5.290905 -1.824741
  S     7.143444  9.019994 -5.917620
  S     4.202775  8.969306 -3.078953
  S     6.728677  8.804874 -1.749563
