16  
    
  C     5.455293  6.014708 -4.411379
  C     6.607388  5.549156 -3.745857
  C     5.330684  9.528217 -4.303200
  C     6.584076  9.199823 -3.712319
  N     7.684560  5.522913 -4.502907
  N     5.571423  6.234960 -5.728532
  N     4.753020  5.472342 -1.942494
  N     7.634840  9.091943 -4.549561
  N     5.405963  9.800694 -5.624859
  N     4.857099  9.464220 -1.716723
  S     7.175892  6.021177 -6.030095
  S     3.997956  5.991538 -3.356831
  S     6.409611  5.284204 -1.991546
  S     6.985821  9.441725 -6.052642
  S     4.049107  9.689642 -3.172666
  S     6.477206  9.083954 -1.953754
