16  
    
  C     5.628666  5.700676 -4.435562
  C     6.973121  5.397663 -3.838199
  C     5.203243  9.621824 -4.347738
  C     6.440588  9.118369 -3.746428
  N     7.963566  5.228950 -4.743929
  N     5.646740  5.745073 -5.773807
  N     5.265146  5.699834 -1.892007
  N     7.394478  8.839090 -4.628674
  N     5.250656  9.772915 -5.647498
  N     4.728298  9.523165 -1.878868
  S     7.197439  5.493189 -6.220036
  S     4.360240  5.875661 -3.265693
  S     6.816100  5.201884 -2.077201
  S     6.789739  9.299166 -6.126063
  S     3.945840 10.159276 -3.218094
  S     6.377350  9.138993 -2.055500
