16  
    
  C     5.644655  5.683309 -4.138936
  C     6.887167  5.371180 -3.551104
  C     5.559393  9.109303 -4.219168
  C     6.834049  8.962232 -3.577118
  N     7.856813  5.113406 -4.461026
  N     5.671966  5.690585 -5.499404
  N     5.226545  5.680831 -1.600674
  N     7.869016  8.990161 -4.410484
  N     5.667081  9.327009 -5.520475
  N     5.141355  8.839458 -1.644002
  S     7.171846  5.163604 -5.960825
  S     4.288385  5.688920 -2.981299
  S     6.890901  5.339466 -1.748821
  S     7.275899  9.264122 -5.870158
  S     4.231119  8.946799 -3.057752
  S     6.738217  8.972227 -1.870905
