16  
    
  C     5.459829  5.969045 -4.494022
  C     6.686936  5.531110 -3.899063
  C     5.409889  9.869671 -4.547138
  C     6.561363  9.284214 -3.892364
  N     7.697271  5.252020 -4.717842
  N     5.600359  6.191375 -5.821711
  N     5.059139  5.807470 -1.948520
  N     7.621276  9.124372 -4.641227
  N     5.617394 10.107354 -5.816984
  N     4.887703  9.642075 -1.963371
  S     7.069328  5.684039 -6.218082
  S     4.265352  6.357687 -3.329531
  S     6.651025  5.364194 -2.172669
  S     7.199632  9.740747 -6.157143
  S     4.013653  9.960399 -3.433891
  S     6.413098  9.048532 -2.144373
