16  
    
  C     5.383117  6.041478 -4.398845
  C     6.593695  5.612785 -3.749930
  C     5.669691  9.671963 -4.404179
  C     6.818295  9.097647 -3.733243
  N     7.676621  5.482977 -4.472927
  N     5.523474  6.116090 -5.718120
  N     4.858129  5.945073 -1.859710
  N     7.869168  8.870874 -4.535780
  N     5.903619  9.920360 -5.699758
  N     5.063738  9.464452 -1.943857
  S     7.090194  5.762368 -6.121458
  S     4.095517  6.370856 -3.250256
  S     6.414776  5.350984 -2.046709
  S     7.403526  9.272564 -6.066515
  S     4.345309 10.004180 -3.323900
  S     6.611778  8.857397 -2.086678
