16  
    
  C     5.574035  5.720997 -4.451425
  C     6.864340  5.328004 -3.854136
  C     5.262100  9.730406 -4.374550
  C     6.414486  9.184100 -3.684492
  N     7.852774  5.198646 -4.741310
  N     5.670507  5.860462 -5.776839
  N     5.234157  5.731066 -1.867126
  N     7.333067  8.813345 -4.583716
  N     5.295375  9.801996 -5.700948
  N     4.614824  9.512108 -1.865762
  S     7.235304  5.535247 -6.231713
  S     4.337450  5.840402 -3.292821
  S     6.827811  5.306301 -2.107210
  S     6.692165  9.144220 -6.116154
  S     3.940549 10.058540 -3.280076
  S     6.200166  9.179031 -1.939717
