16  
    
  C     5.749848  5.348786 -4.275204
  C     6.957788  4.867382 -3.592573
  C     5.648096  9.483225 -4.476554
  C     6.739115  8.871359 -3.785450
  N     7.927484  4.727557 -4.475258
  N     5.831607  5.518463 -5.603988
  N     5.186969  5.338980 -1.764247
  N     7.858777  8.733833 -4.525429
  N     5.916926  9.737511 -5.754064
  N     4.849617  9.103350 -2.035435
  S     7.383202  5.075455 -6.003033
  S     4.373234  5.504909 -3.204737
  S     6.806392  4.944638 -1.828676
  S     7.490495  9.302717 -6.002859
  S     4.247326  9.677845 -3.484135
  S     6.451050  8.728528 -2.034258
