16  
    
  C     5.244457  5.512547 -4.143165
  C     6.356552  4.862986 -3.580437
  C     5.492207  9.495659 -4.379073
  C     6.668508  8.960499 -3.768228
  N     7.290745  4.516378 -4.437833
  N     5.300801  5.642884 -5.450474
  N     4.662548  5.254707 -1.646505
  N     7.718610  8.727444 -4.559837
  N     5.678895  9.631043 -5.677556
  N     4.934489  9.295762 -1.879628
  S     6.779277  5.011284 -5.897040
  S     3.940100  5.863497 -3.018036
  S     6.222095  4.677304 -1.910311
  S     7.165328  9.114986 -6.050693
  S     4.155211  9.655145 -3.273652
  S     6.561165  8.984603 -2.052011
