16  
    
  C     5.490107  6.046752 -4.244484
  C     6.694897  5.481518 -3.691105
  C     5.426186  9.510847 -4.337549
  C     6.709069  9.185478 -3.782096
  N     7.778070  5.434709 -4.495914
  N     5.649639  6.392355 -5.528067
  N     4.939989  5.597466 -1.771392
  N     7.680119  9.083659 -4.688670
  N     5.404708  9.656157 -5.637807
  N     4.927713  9.179217 -1.834924
  S     7.167555  6.000139 -5.947265
  S     4.135985  6.075048 -3.122056
  S     6.507752  5.059256 -1.982572
  S     6.964428  9.452593 -6.175057
  S     4.028387  9.675494 -3.227249
  S     6.549781  8.880728 -2.049693
