16  
    
  C     5.387110  5.454480 -4.325240
  C     6.614976  5.031088 -3.687593
  C     5.747796  9.392682 -4.200645
  C     6.833821  8.629474 -3.625680
  N     7.650946  4.958836 -4.496357
  N     5.499850  5.651121 -5.629096
  N     4.918272  5.351344 -1.805423
  N     7.778047  8.319994 -4.507982
  N     5.835449  9.647503 -5.500542
  N     5.044014  8.903832 -1.784729
  S     7.133867  5.256350 -6.021042
  S     4.055305  5.393822 -3.246806
  S     6.481702  4.776368 -1.978780
  S     7.263483  8.946757 -5.998388
  S     4.339403  9.496606 -3.222303
  S     6.629010  8.328657 -1.946558
