16  
    
  C     5.806443  5.678708 -4.082180
  C     6.976085  5.102357 -3.398719
  C     5.654369  9.582200 -4.260349
  C     6.884565  9.060289 -3.707125
  N     8.036157  4.814961 -4.157147
  N     6.088634  5.930820 -5.352899
  N     5.089469  5.156938 -1.673745
  N     7.914416  9.136097 -4.551907
  N     5.731432 10.095159 -5.474579
  N     5.099037  8.893916 -1.841079
  S     7.663141  5.528619 -5.645926
  S     4.479562  5.811524 -3.039300
  S     6.696904  4.596125 -1.754736
  S     7.273046  9.811059 -5.990476
  S     4.361064  9.739989 -3.103384
  S     6.726471  8.424426 -2.079739
