16  
    
  C     5.283507  5.919719 -4.394218
  C     6.485896  5.405532 -3.686724
  C     5.702732  9.656426 -4.211555
  C     6.749936  9.013234 -3.494224
  N     7.561006  5.174052 -4.450558
  N     5.527574  6.109366 -5.707557
  N     4.705834  5.812680 -1.842847
  N     7.800315  8.781269 -4.226037
  N     5.873811  9.891608 -5.480295
  N     4.848805  9.274058 -1.783103
  S     7.062950  5.643778 -5.967987
  S     3.966729  6.238631 -3.277544
  S     6.342241  5.297517 -1.918433
  S     7.393255  9.317883 -5.788432
  S     4.368278 10.021628 -3.236671
  S     6.432929  8.778555 -1.767938
