16  
    
  C     5.564002  6.251888 -4.691876
  C     6.634212  5.569994 -3.916584
  C     5.647022  9.723008 -4.450469
  C     6.804470  9.185971 -3.818429
  N     7.670902  5.321860 -4.682531
  N     5.810369  6.482647 -5.962578
  N     4.665222  5.731900 -2.338131
  N     7.888721  9.059925 -4.570631
  N     5.903778  9.995740 -5.755960
  N     4.975831  9.231635 -1.988789
  S     7.423231  5.988110 -6.182028
  S     4.116364  6.431550 -3.727841
  S     6.247127  5.255371 -2.262435
  S     7.449641  9.542217 -6.083273
  S     4.243039  9.765417 -3.369026
  S     6.606985  8.808217 -2.145004
