16  
    
  C     5.195860  6.179634 -4.308350
  C     6.319012  5.539192 -3.686593
  C     5.413168  9.753906 -4.317993
  C     6.677755  9.255942 -3.752639
  N     7.368224  5.370163 -4.492570
  N     5.336676  6.311502 -5.622299
  N     4.647575  5.962588 -1.808032
  N     7.682362  9.011355 -4.565958
  N     5.553337  9.970484 -5.603245
  N     5.057829  9.516929 -1.714486
  S     6.860975  5.849701 -6.012128
  S     3.936031  6.519419 -3.212899
  S     6.130012  5.311003 -1.974246
  S     7.069266  9.446062 -6.083348
  S     4.174397 10.036730 -3.094741
  S     6.608496  9.017512 -1.982609
