16  
    
  C     5.498864  5.884992 -4.366705
  C     6.746335  5.411127 -3.869766
  C     5.529978  9.942849 -4.666191
  C     6.651066  9.215771 -4.078889
  N     7.656178  5.164736 -4.827620
  N     5.488902  6.136306 -5.684538
  N     5.142029  5.548663 -1.901216
  N     7.517962  8.812383 -4.989957
  N     5.529705 10.027388 -6.005863
  N     5.086053  9.848181 -2.050508
  S     6.995381  5.692213 -6.238110
  S     4.283020  6.127952 -3.180955
  S     6.699036  5.102569 -2.189980
  S     6.968655  9.355337 -6.453054
  S     4.369674 10.315695 -3.443512
  S     6.609798  9.028933 -2.322266
