16  
    
  C     5.437571  5.706080 -4.309910
  C     6.703569  5.406132 -3.677131
  C     5.342090 10.215687 -4.625971
  C     6.431195  9.448245 -3.951119
  N     7.689124  5.274770 -4.510207
  N     5.513616  5.720294 -5.650412
  N     4.956266  5.560778 -1.749018
  N     7.312568  9.002684 -4.825610
  N     5.513272 10.428946 -5.925082
  N     4.675062  9.606692 -2.156173
  S     7.138222  5.449773 -6.019022
  S     4.059272  5.546769 -3.195227
  S     6.615237  5.349089 -1.944673
  S     6.937934  9.674119 -6.281297
  S     4.016730 10.461569 -3.465301
  S     6.228200  9.118926 -2.259566
