16  
    
  C     5.312054  5.620501 -4.374397
  C     6.460152  5.086267 -3.684487
  C     5.487702  9.121277 -4.350525
  C     6.649335  8.585821 -3.668668
  N     7.488431  4.718916 -4.439242
  N     5.523219  5.782817 -5.664331
  N     4.601438  5.248775 -1.981826
  N     7.656167  8.334863 -4.507531
  N     5.640583  9.419836 -5.632670
  N     4.884950  8.804170 -1.859273
  S     7.107041  5.222899 -5.926255
  S     4.001375  5.908733 -3.374536
  S     6.231013  4.871176 -2.018469
  S     7.126754  8.878203 -6.051272
  S     4.138559  9.368243 -3.255456
  S     6.519161  8.437439 -1.951567
