16  
    
  C     5.409966  5.917318 -4.428482
  C     6.586351  5.355875 -3.746493
  C     5.386271  9.322666 -4.210495
  C     6.618305  8.894551 -3.597749
  N     7.624428  5.205621 -4.558165
  N     5.605163  6.074381 -5.750683
  N     4.804042  5.692765 -2.005524
  N     7.643989  8.840824 -4.460144
  N     5.463183  9.602041 -5.534070
  N     5.034298  9.128636 -1.599664
  S     7.198886  5.645106 -6.032427
  S     4.074130  6.219795 -3.436236
  S     6.332951  5.063357 -2.064437
  S     7.025811  9.133004 -5.938835
  S     4.172670  9.591485 -2.937174
  S     6.651183  8.781260 -1.900473
