16  
    
  C     5.733315  5.846145 -4.373973
  C     6.999623  5.431027 -3.880186
  C     5.758559  9.362771 -4.028737
  C     6.995536  8.806637 -3.553332
  N     7.954022  5.443556 -4.837748
  N     5.758114  6.239452 -5.653995
  N     5.263733  5.179073 -2.040607
  N     7.881045  8.634836 -4.524650
  N     5.738288  9.727843 -5.310109
  N     5.484056  8.847266 -1.476681
  S     7.266924  5.865645 -6.240878
  S     4.399271  5.794181 -3.311304
  S     6.878860  4.840770 -2.190007
  S     7.231393  9.304771 -5.903935
  S     4.585094  9.421425 -2.750474
  S     7.012906  8.368936 -1.844426
