16  
    
  C     5.551610  5.631633 -4.538068
  C     6.847465  5.400383 -3.850219
  C     5.380304  9.648942 -4.226360
  C     6.610932  9.167527 -3.643735
  N     7.838711  5.589012 -4.720547
  N     5.604768  5.950715 -5.840513
  N     5.106241  5.427138 -2.013058
  N     7.636595  9.064846 -4.460967
  N     5.481718  9.944072 -5.537531
  N     4.979445  9.262656 -1.688151
  S     7.213509  5.863372 -6.212980
  S     4.225252  5.471866 -3.377416
  S     6.769677  5.117310 -2.139339
  S     7.123083  9.563305 -5.937409
  S     4.093807  9.647563 -3.079696
  S     6.620696  9.029872 -1.912264
