16  
    
  C     5.741272  5.769553 -4.479879
  C     6.955493  5.342162 -3.826780
  C     5.545317  9.424989 -4.213326
  C     6.848870  9.144101 -3.706594
  N     7.955491  5.128711 -4.620284
  N     5.935757  5.931638 -5.768516
  N     5.196690  5.843050 -2.016458
  N     7.829809  9.135815 -4.655540
  N     5.542489  9.796169 -5.504502
  N     5.064044  8.938703 -1.776067
  S     7.459174  5.408193 -6.193195
  S     4.417399  6.105905 -3.482777
  S     6.779745  5.306765 -2.123810
  S     7.101187  9.706559 -6.004158
  S     4.196218  9.379957 -3.141717
  S     6.718166  8.937400 -2.025754
