16  
    
  C     5.379973  6.233160 -4.352378
  C     6.572681  5.699640 -3.603772
  C     5.538352  9.656251 -4.212966
  C     6.704069  9.138823 -3.480968
  N     7.636462  5.387344 -4.354256
  N     5.558906  6.294327 -5.661351
  N     4.600901  5.999171 -1.935758
  N     7.707290  8.831450 -4.254094
  N     5.737037  9.736845 -5.506092
  N     4.847083  9.556332 -1.730881
  S     7.099546  5.749051 -5.886258
  S     3.998048  6.522378 -3.389540
  S     6.252217  5.585799 -1.921073
  S     7.290513  9.269154 -5.830426
  S     4.243012 10.009150 -3.180506
  S     6.431015  8.975542 -1.802130
