16  
    
  C     5.408729  6.086097 -4.142109
  C     6.658824  5.629075 -3.585676
  C     5.688640  9.594204 -4.455949
  C     6.820014  9.100718 -3.700617
  N     7.620907  5.418742 -4.460396
  N     5.462067  6.185636 -5.446383
  N     5.017023  5.669741 -1.673535
  N     7.903789  8.989188 -4.442222
  N     5.884120  9.832524 -5.753098
  N     4.855751  9.309433 -2.051032
  S     7.012015  5.780624 -5.976179
  S     4.217298  6.310621 -2.965246
  S     6.578602  5.234206 -1.913354
  S     7.522599  9.442254 -5.979620
  S     4.247369  9.951965 -3.462627
  S     6.450652  8.946392 -2.047144
