16  
    
  C     5.529171  5.717186 -4.284511
  C     6.769685  5.348736 -3.592063
  C     5.434531  9.313783 -4.380745
  C     6.698957  8.990490 -3.742101
  N     7.806071  5.302668 -4.416408
  N     5.586608  5.921045 -5.599178
  N     4.984641  5.568304 -1.741894
  N     7.765309  8.956099 -4.537799
  N     5.562909  9.449618 -5.660117
  N     5.037743  9.230519 -1.768824
  S     7.179526  5.499697 -5.969609
  S     4.230126  5.852913 -3.145096
  S     6.579206  5.181514 -1.878403
  S     7.212209  9.284356 -6.036344
  S     4.230944  9.595606 -3.175572
  S     6.584881  8.685271 -1.964144
