16  
    
  C     5.393213  5.617088 -4.418426
  C     6.540745  5.089052 -3.705771
  C     5.513050  9.127354 -4.245572
  C     6.771264  8.817332 -3.615704
  N     7.619168  4.862521 -4.447416
  N     5.622908  5.753713 -5.720970
  N     4.621831  5.623322 -1.928608
  N     7.769969  8.599131 -4.452488
  N     5.552658  9.069545 -5.586769
  N     4.960278  8.958313 -1.696026
  S     7.185808  5.254581 -6.032802
  S     3.916391  5.834222 -3.426504
  S     6.189069  4.993905 -1.926634
  S     7.078035  8.745544 -6.014648
  S     4.202185  9.367867 -3.139622
  S     6.603348  8.754886 -1.887304
