16  
    
  C     5.630738  5.779144 -4.110238
  C     6.827924  5.230669 -3.566259
  C     5.808432  9.155480 -3.952956
  C     7.063662  8.767453 -3.356725
  N     7.836048  4.999186 -4.396116
  N     5.679195  5.986138 -5.429915
  N     5.226044  5.273555 -1.618861
  N     8.077103  8.746148 -4.239927
  N     5.869152  9.487378 -5.237840
  N     5.300712  9.016465 -1.415593
  S     7.201330  5.489143 -5.862778
  S     4.459894  5.985603 -2.897498
  S     6.801635  4.867827 -1.899889
  S     7.485554  9.244598 -5.708105
  S     4.468376  9.280472 -2.839539
  S     6.932173  8.672908 -1.587705
