16  
    
  C     5.349032  6.076562 -4.375207
  C     6.618077  5.730973 -3.729303
  C     5.434706  9.766986 -4.392698
  C     6.640221  9.361250 -3.711787
  N     7.598573  5.702675 -4.623272
  N     5.418131  6.204110 -5.698455
  N     4.885957  5.957618 -1.877736
  N     7.682010  9.097466 -4.474847
  N     5.591017  9.834419 -5.729530
  N     4.822955  9.365352 -1.846512
  S     7.020626  5.865746 -6.152093
  S     4.051114  6.228992 -3.311545
  S     6.516354  5.644248 -1.996745
  S     7.205744  9.422526 -6.032056
  S     4.120816  9.955618 -3.251724
  S     6.493288  9.006255 -1.964139
