16  
    
  C     5.744870  5.342633 -4.270048
  C     6.962032  4.868720 -3.590175
  C     5.652790  9.486439 -4.466245
  C     6.750207  8.880736 -3.787478
  N     7.939803  4.735772 -4.470840
  N     5.845866  5.537655 -5.599527
  N     5.194321  5.336841 -1.758850
  N     7.858416  8.727394 -4.532883
  N     5.914826  9.744412 -5.742554
  N     4.852498  9.104621 -2.023051
  S     7.401212  5.069251 -5.995879
  S     4.366157  5.514834 -3.207392
  S     6.798145  4.938086 -1.824729
  S     7.489030  9.319084 -6.006584
  S     4.256264  9.674724 -3.482177
  S     6.449749  8.727718 -2.036072
