16  
    
  C     5.540281  6.693911 -4.551813
  C     6.714712  6.133949 -3.923257
  C     5.579020 10.190319 -4.554833
  C     6.731650  9.619374 -3.887002
  N     7.794598  5.875388 -4.653704
  N     5.694795  6.673629 -5.912510
  N     5.028132  6.481268 -2.042398
  N     7.703609  9.171289 -4.680817
  N     5.775734 10.234540 -5.832242
  N     4.880511 10.040932 -2.049123
  S     7.228080  6.214997 -6.267448
  S     4.341954  7.086450 -3.418968
  S     6.551366  5.837070 -2.244532
  S     7.313064  9.628044 -6.207777
  S     4.295877 10.541017 -3.474500
  S     6.514344  9.521825 -2.182244
