16  
    
  C     5.627492  5.696595 -4.434292
  C     6.903015  5.282734 -3.772655
  C     5.325130  9.747346 -4.388305
  C     6.620429  9.270593 -3.885200
  N     7.915104  5.126560 -4.635905
  N     5.708269  5.721602 -5.778194
  N     5.120066  5.420978 -1.876959
  N     7.579534  9.041408 -4.775421
  N     5.412200  9.924284 -5.702284
  N     4.977997  9.704554 -1.847142
  S     7.295549  5.414919 -6.131181
  S     4.309456  5.905656 -3.254031
  S     6.730876  5.117314 -2.074898
  S     6.835699  9.449811 -6.265590
  S     4.096380 10.127778 -3.226445
  S     6.477074  9.035105 -2.115799
