16  
    
  C     5.524192  5.847532 -4.059432
  C     6.766079  5.400788 -3.408032
  C     5.513682  8.878028 -4.093943
  C     6.770236  8.586592 -3.446434
  N     7.709718  5.114047 -4.323324
  N     5.593004  5.880414 -5.405427
  N     4.962224  5.509372 -1.607334
  N     7.759442  8.325588 -4.300264
  N     5.520811  8.918468 -5.410239
  N     5.108431  8.963075 -1.505221
  S     7.122821  5.442481 -5.824776
  S     4.181949  5.970024 -3.007638
  S     6.520918  4.866136 -1.756171
  S     7.079842  8.556400 -5.832310
  S     4.255801  9.076151 -2.939869
  S     6.739610  8.709066 -1.710773
