16  
    
  C     5.585149  5.963522 -4.469095
  C     6.634734  5.272616 -3.774212
  C     5.492287  9.606266 -4.169161
  C     6.719100  9.070016 -3.664918
  N     7.679856  4.976000 -4.541249
  N     5.801525  6.117614 -5.753945
  N     4.827114  5.674315 -2.033183
  N     7.700602  8.903871 -4.528461
  N     5.547169  9.959542 -5.442790
  N     5.145399  9.232804 -1.660850
  S     7.305002  5.548432 -6.136407
  S     4.150247  6.126200 -3.450601
  S     6.416355  5.124804 -2.041450
  S     7.023185  9.388827 -5.985374
  S     4.241444  9.732262 -2.965024
  S     6.684725  8.768977 -1.944410
