16  
    
  C     5.289421  5.767307 -4.516551
  C     6.465478  5.359133 -3.869232
  C     5.332741  9.600168 -4.492979
  C     6.524576  9.137197 -3.820612
  N     7.457492  5.149385 -4.711799
  N     5.318278  5.907116 -5.853608
  N     4.836781  5.727955 -1.928963
  N     7.581372  8.797054 -4.540259
  N     5.497343  9.559503 -5.796056
  N     4.766461  9.630966 -2.025159
  S     6.966841  5.637875 -6.233955
  S     4.040452  6.165461 -3.343738
  S     6.402697  5.229016 -2.104960
  S     7.001938  8.956421 -6.129119
  S     4.103310 10.102774 -3.444752
  S     6.273757  8.899917 -2.076860
