16  
    
  C     5.816822  5.694972 -4.416176
  C     6.983524  5.066225 -3.676370
  C     5.582737  9.522508 -4.286373
  C     6.798894  9.006465 -3.684900
  N     8.065882  4.954069 -4.425110
  N     6.072135  6.027133 -5.690857
  N     5.069253  5.323162 -1.908233
  N     7.910310  8.978745 -4.432705
  N     5.765543  9.869930 -5.547921
  N     4.915273  8.756587 -1.926251
  S     7.666688  5.583271 -5.905384
  S     4.398530  5.812877 -3.361113
  S     6.630730  4.647362 -2.012680
  S     7.341667  9.432152 -5.972839
  S     4.202896  9.500772 -3.209558
  S     6.488036  8.248020 -2.146116
