16  
    
  C     5.600462  5.732811 -4.379829
  C     6.935278  5.424656 -3.801396
  C     5.740947  9.694099 -4.266394
  C     7.024830  9.282405 -3.739897
  N     7.912002  5.315930 -4.714232
  N     5.603223  5.842600 -5.722242
  N     5.270411  5.629625 -1.834311
  N     8.006741  9.295258 -4.629084
  N     5.711134  9.912357 -5.578550
  N     5.285572  9.047648 -1.798752
  S     7.174232  5.602446 -6.164335
  S     4.383561  5.948889 -3.199326
  S     6.848817  5.193774 -2.025712
  S     7.181156  9.543158 -6.163246
  S     4.400171  9.552882 -3.140994
  S     6.899130  8.734379 -2.064975
