16  
    
  C     5.527476  6.375349 -4.428986
  C     6.699416  5.790438 -3.753391
  C     5.626056  9.702178 -4.414322
  C     6.839104  9.380178 -3.737006
  N     7.743851  5.550173 -4.498532
  N     5.698813  6.437634 -5.726960
  N     4.868647  6.280733 -1.994962
  N     7.890714  9.295748 -4.578340
  N     5.816266  9.941921 -5.727881
  N     5.027842  9.619282 -1.935857
  S     7.208818  6.011315 -6.100094
  S     4.158924  6.689819 -3.449835
  S     6.520210  5.831229 -2.009354
  S     7.328774  9.537625 -6.135878
  S     4.283903  9.867126 -3.418322
  S     6.661195  9.321802 -1.930995
