16  
    
  C     5.500644  5.239782 -4.065472
  C     6.908576  5.243021 -3.593800
  C     5.511028  9.367242 -4.650288
  C     6.655870  8.852495 -3.910807
  N     7.817509  5.361479 -4.558430
  N     5.402145  5.293899 -5.414826
  N     5.365756  5.135736 -1.537449
  N     7.749598  8.610709 -4.644068
  N     5.672160  9.335017 -5.953695
  N     4.698700  9.155188 -2.236512
  S     6.976708  5.322753 -5.960616
  S     4.339448  5.305739 -2.776328
  S     6.997860  5.058668 -1.907679
  S     7.230466  8.942585 -6.269817
  S     4.268405  9.936319 -3.626285
  S     6.379504  8.713747 -2.159142
