16  
    
  C     5.626195  5.860956 -4.464190
  C     6.886704  5.442752 -3.892197
  C     5.657029  9.503025 -4.225331
  C     6.926286  9.199809 -3.641086
  N     7.921028  5.379170 -4.722517
  N     5.680780  6.043968 -5.793703
  N     5.126967  5.420724 -1.992705
  N     7.988267  9.218497 -4.476793
  N     5.717778  9.629896 -5.560121
  N     5.183449  9.189480 -1.759488
  S     7.220634  5.660705 -6.208578
  S     4.317331  6.061871 -3.331752
  S     6.758587  5.197269 -2.126901
  S     7.262538  9.495177 -5.989535
  S     4.291412  9.336303 -3.103298
  S     6.742679  8.682701 -2.046283
