16  
    
  C     5.653508  5.803255 -4.346878
  C     6.849696  5.396102 -3.749624
  C     5.509137  9.373788 -4.681825
  C     6.736655  9.100960 -3.990787
  N     7.811757  5.192587 -4.630746
  N     5.715686  5.966738 -5.659238
  N     5.179878  5.720147 -1.800766
  N     7.860031  9.276609 -4.710116
  N     5.684719  9.706699 -5.995751
  N     4.872797  9.206025 -2.167100
  S     7.199537  5.434739 -6.132339
  S     4.329140  6.021049 -3.216448
  S     6.745692  5.026928 -2.030407
  S     7.384343  9.762753 -6.174747
  S     4.146964  9.566550 -3.610436
  S     6.495836  8.971661 -2.249510
