16  
    
  C     5.454559  6.059179 -4.385614
  C     6.688754  5.852633 -3.811217
  C     5.517513  9.693083 -4.243293
  C     6.739698  9.227027 -3.650307
  N     7.711112  5.625050 -4.621175
  N     5.487285  6.059438 -5.702423
  N     4.970981  5.832745 -1.857342
  N     7.784324  9.147294 -4.494168
  N     5.569957  9.858828 -5.565136
  N     4.933873  9.536148 -1.772543
  S     7.082443  5.845181 -6.131674
  S     4.136339  6.234613 -3.245514
  S     6.559033  5.537475 -2.104135
  S     7.083775  9.447058 -6.032930
  S     4.134017  9.870030 -3.206549
  S     6.519176  8.912546 -1.995349
