16  
    
  C     5.430974  6.203907 -4.366915
  C     6.635658  5.721125 -3.744879
  C     5.482606  9.621322 -4.353651
  C     6.713210  9.301909 -3.676903
  N     7.696341  5.509241 -4.545083
  N     5.546540  6.212406 -5.687633
  N     4.857036  6.007977 -1.821699
  N     7.778932  9.201949 -4.462183
  N     5.591989  9.872993 -5.650908
  N     4.891746  9.306689 -1.770410
  S     7.104993  5.801565 -6.128347
  S     4.083867  6.512396 -3.270122
  S     6.474473  5.589490 -1.990728
  S     7.233560  9.560371 -5.970703
  S     4.077366  9.586407 -3.174475
  S     6.554867  9.009562 -2.034140
