16  
    
  C     5.565612  6.134948 -4.343420
  C     6.805482  5.530519 -3.791196
  C     5.491606  9.572531 -4.265698
  C     6.761836  9.080250 -3.693860
  N     7.782518  5.320613 -4.702148
  N     5.590631  6.279387 -5.666516
  N     5.036651  5.645034 -1.897031
  N     7.753584  8.931214 -4.565504
  N     5.629552  9.923997 -5.514089
  N     5.109955  9.416493 -1.735104
  S     7.133556  5.882272 -6.144997
  S     4.303438  6.327537 -3.221233
  S     6.645861  5.365259 -2.098642
  S     7.147967  9.464907 -5.977929
  S     4.171959  9.681957 -3.126151
  S     6.691543  8.959083 -2.020674
