16  
    
  C     5.236176  5.984247 -4.408005
  C     6.372352  5.548891 -3.726356
  C     5.468421  9.616204 -4.155350
  C     6.694720  9.118225 -3.474394
  N     7.421415  5.219253 -4.466847
  N     5.450022  6.047945 -5.719861
  N     4.594228  6.096571 -2.018845
  N     7.681164  9.057905 -4.331633
  N     5.579494  9.811105 -5.428346
  N     4.776239  9.396129 -1.717902
  S     7.020874  5.467296 -6.022189
  S     3.962132  6.677936 -3.466323
  S     6.140678  5.532860 -1.991025
  S     7.139971  9.584176 -5.801364
  S     3.981455  9.767948 -3.190729
  S     6.308935  8.791133 -1.818217
