16  
    
  C     5.449420  5.999459 -4.523255
  C     6.691930  5.471608 -3.880414
  C     5.394026  9.851506 -4.531998
  C     6.534977  9.305686 -3.827331
  N     7.686651  5.230521 -4.727437
  N     5.572897  6.223333 -5.810099
  N     5.029290  5.780114 -1.979975
  N     7.566313  9.143447 -4.654056
  N     5.593452 10.095396 -5.871252
  N     4.886488  9.677855 -1.996133
  S     7.096197  5.671268 -6.228068
  S     4.198636  6.367775 -3.311393
  S     6.605254  5.373944 -2.124005
  S     7.212219  9.739987 -6.145523
  S     4.030382  9.925061 -3.389301
  S     6.462516  9.036378 -2.165646
