16  
    
  C     5.615577  5.862023 -4.484592
  C     6.875318  5.482607 -3.827871
  C     5.079939  9.631566 -4.425801
  C     6.257040  9.156414 -3.745574
  N     7.866394  5.259913 -4.709023
  N     5.668891  5.912780 -5.829586
  N     5.039036  5.728002 -1.933257
  N     7.324311  8.737805 -4.440541
  N     5.310701  9.610691 -5.716764
  N     4.599311  9.899819 -1.946208
  S     7.237581  5.572953 -6.201591
  S     4.214229  5.836682 -3.403772
  S     6.676023  5.319822 -2.111807
  S     6.783494  9.026928 -6.008339
  S     3.772229 10.093621 -3.361064
  S     6.121190  9.184426 -2.045625
