16  
    
  C     5.584560  5.423315 -4.205898
  C     6.893697  5.267422 -3.558373
  C     5.671824  9.303131 -4.172578
  C     6.928874  9.093493 -3.539834
  N     7.917094  5.195142 -4.380201
  N     5.677427  5.370345 -5.509923
  N     5.142278  5.801280 -1.713038
  N     7.930817  9.131511 -4.448575
  N     5.733247  9.497813 -5.498587
  N     5.135418  8.812455 -1.713187
  S     7.255564  5.296773 -5.892472
  S     4.269154  5.748047 -3.109900
  S     6.761576  5.414434 -1.845405
  S     7.298192  9.384046 -5.905872
  S     4.279902  9.031085 -3.174799
  S     6.779689  8.919353 -1.804087
