16  
    
  C     5.468674  5.829020 -4.494077
  C     6.698960  5.522287 -3.792585
  C     5.620139  9.249097 -4.080641
  C     6.892871  8.908057 -3.473940
  N     7.762061  5.494832 -4.599152
  N     5.631649  6.112261 -5.777291
  N     4.939860  5.703541 -1.969101
  N     7.834950  8.701049 -4.349965
  N     5.643204  9.450026 -5.390977
  N     5.100540  8.753112 -1.627499
  S     7.236844  5.794516 -6.158044
  S     4.177699  5.859189 -3.389583
  S     6.582193  5.496583 -2.061493
  S     7.245344  9.051971 -5.822733
  S     4.280238  9.162846 -3.084212
  S     6.768506  8.643548 -1.745873
