16  
    
  C     5.410805  5.968755 -4.575605
  C     6.559882  5.506546 -3.792698
  C     5.281516  9.492541 -4.408427
  C     6.385042  8.833464 -3.752471
  N     7.515041  5.057326 -4.588919
  N     5.571255  5.971503 -5.916245
  N     4.646389  5.683647 -2.024874
  N     7.454232  8.553114 -4.501492
  N     5.526047  9.691420 -5.686392
  N     4.764237  9.478386 -1.935712
  S     7.086934  5.376414 -6.151365
  S     3.992135  6.158710 -3.521972
  S     6.261985  5.217873 -2.079867
  S     7.057172  9.064543 -5.986927
  S     3.998755  9.845640 -3.389238
  S     6.310112  8.888712 -1.992260
