16  
    
  C     5.515317  6.064233 -4.356983
  C     6.658232  5.499082 -3.676720
  C     5.725494  9.546706 -4.185528
  C     6.940462  8.956408 -3.606579
  N     7.747095  5.228472 -4.391962
  N     5.736969  6.225098 -5.654061
  N     4.705031  5.621896 -1.917793
  N     7.924110  8.801265 -4.497793
  N     5.816329  9.792339 -5.489407
  N     5.170508  9.578280 -1.691212
  S     7.288469  5.753896 -5.911779
  S     4.148185  6.371509 -3.318348
  S     6.285338  5.148045 -2.002366
  S     7.315624  9.300277 -5.959442
  S     4.375780  9.914796 -3.128811
  S     6.727105  8.831268 -1.890773
