16  
    
  C     5.737512  5.859426 -4.293943
  C     6.931450  5.228836 -3.843206
  C     5.776088  9.219996 -4.039825
  C     7.073353  8.858373 -3.535059
  N     7.836967  5.146914 -4.797665
  N     5.748926  6.327357 -5.530983
  N     5.325886  5.254792 -1.818205
  N     8.039621  8.832541 -4.461397
  N     5.781047  9.452964 -5.361859
  N     5.364751  8.791492 -1.527338
  S     7.248653  5.921101 -6.077305
  S     4.528923  5.888282 -3.102867
  S     6.875509  4.792430 -2.160231
  S     7.257506  9.156239 -5.942882
  S     4.493985  9.253472 -2.855971
  S     6.905414  8.308323 -1.803793
