16  
    
  C     5.352075  5.786035 -4.484376
  C     6.635892  5.509413 -3.863043
  C     5.285378  9.938947 -4.728358
  C     6.458106  9.524594 -4.020022
  N     7.651140  5.486306 -4.689327
  N     5.418758  6.046679 -5.795473
  N     4.950048  5.620818 -1.913990
  N     7.537488  9.500143 -4.782390
  N     5.434480 10.121206 -6.032501
  N     4.745273  9.626305 -2.124648
  S     7.052846  5.886086 -6.155010
  S     4.014148  5.865876 -3.289999
  S     6.510308  5.154459 -2.130133
  S     7.049649  9.981516 -6.274113
  S     3.921545 10.097996 -3.570149
  S     6.324951  9.201869 -2.335874
