16  
    
  C     5.746817  5.378693 -4.186692
  C     6.909837  4.928875 -3.534776
  C     5.368159  9.304369 -4.688935
  C     6.573377  8.874583 -4.005434
  N     8.003214  4.843881 -4.313852
  N     5.906717  5.702151 -5.462326
  N     5.095983  5.174574 -1.687802
  N     7.656674  8.718200 -4.723620
  N     5.543197  9.386577 -6.000509
  N     4.788104  9.121459 -2.163097
  S     7.483943  5.288571 -5.839111
  S     4.337948  5.565587 -3.148479
  S     6.674233  4.750850 -1.830175
  S     7.154348  9.030126 -6.336970
  S     4.114706  9.742335 -3.501800
  S     6.440114  8.743614 -2.262932
