16  
    
  C     5.631278  5.545418 -4.330468
  C     6.899659  5.198213 -3.744121
  C     5.733929  9.523922 -4.003346
  C     6.931243  8.881124 -3.495480
  N     7.923152  5.200916 -4.601261
  N     5.709818  5.716082 -5.653275
  N     5.101766  5.563869 -1.904419
  N     7.926293  8.831441 -4.344715
  N     5.785058  9.814694 -5.310540
  N     5.271695  8.812423 -1.521300
  S     7.298093  5.469621 -6.120606
  S     4.290241  5.903422 -3.346527
  S     6.768129  5.249682 -2.024108
  S     7.418614  9.453044 -5.779909
  S     4.488918  9.672788 -2.770317
  S     6.887517  8.500440 -1.793741
