16  
    
  C     5.467862  5.715297 -4.308355
  C     6.645255  5.093550 -3.635172
  C     5.495118  9.738819 -4.619305
  C     6.668686  9.166791 -3.979163
  N     7.649409  4.867707 -4.481028
  N     5.629013  5.915852 -5.602226
  N     4.783022  5.411166 -1.920141
  N     7.812147  9.188314 -4.698396
  N     5.788096 10.080736 -5.865034
  N     4.743308  9.247447 -2.204381
  S     7.192910  5.450907 -5.959942
  S     4.180611  6.143932 -3.239994
  S     6.307876  4.800259 -1.975188
  S     7.333930  9.789086 -6.188135
  S     4.123687 10.034420 -3.521309
  S     6.331024  8.682506 -2.330728
