16  
    
  C     5.594432  5.769212 -4.350158
  C     6.914083  5.420192 -3.772492
  C     5.574266  9.599493 -4.287359
  C     6.894463  9.286090 -3.798160
  N     7.853275  5.307367 -4.708160
  N     5.585304  5.822454 -5.682181
  N     5.195220  5.635703 -1.838877
  N     7.857839  9.196412 -4.692472
  N     5.587796  9.778842 -5.601163
  N     5.276419  9.259637 -1.788103
  S     7.135902  5.637290 -6.204924
  S     4.326505  5.958954 -3.231835
  S     6.830152  5.333410 -2.095039
  S     7.185902  9.532148 -6.098245
  S     4.357687  9.643383 -3.104830
  S     6.854332  8.825382 -2.117190
