16  
    
  C     5.542910  5.907982 -4.271751
  C     6.667491  5.277551 -3.638137
  C     5.947351  9.161835 -3.979658
  C     7.210410  8.772909 -3.375175
  N     7.670168  4.849101 -4.446266
  N     5.703313  6.107362 -5.589133
  N     4.929965  5.762405 -1.782438
  N     8.157324  8.653995 -4.249462
  N     5.941566  9.489805 -5.264852
  N     5.451805  8.871828 -1.497334
  S     7.207178  5.485889 -5.917198
  S     4.163374  6.163657 -3.231306
  S     6.490938  5.195546 -1.894706
  S     7.520780  9.153072 -5.751254
  S     4.612394  9.026554 -2.912093
  S     7.081042  8.417966 -1.658591
