16  
    
  C     5.607474  5.574147 -4.435687
  C     6.834507  5.363674 -3.720034
  C     5.699375  9.372563 -4.071879
  C     6.906693  8.837611 -3.504933
  N     7.899811  5.124378 -4.462377
  N     5.674438  5.482195 -5.751345
  N     5.053065  5.719477 -1.883049
  N     7.916801  8.772004 -4.370992
  N     5.785775  9.857753 -5.285366
  N     5.202000  9.034088 -1.630961
  S     7.324871  5.245317 -6.067622
  S     4.316364  5.857423 -3.315920
  S     6.666504  5.276744 -1.960319
  S     7.362161  9.500075 -5.775590
  S     4.421091  9.649051 -2.970475
  S     6.774037  8.597130 -1.804488
