16  
    
  C     5.412126  6.397536 -4.466525
  C     6.620936  5.991846 -3.758047
  C     5.506959  9.779012 -4.399078
  C     6.754080  9.473380 -3.718090
  N     7.683559  5.911549 -4.520421
  N     5.510624  6.427367 -5.785848
  N     4.781174  6.242203 -1.907151
  N     7.758802  9.260907 -4.567947
  N     5.640192  9.858357 -5.745880
  N     5.086203  9.385013 -1.846934
  S     7.130251  6.150833 -6.106071
  S     3.989621  6.522251 -3.354160
  S     6.409022  5.794171 -2.006454
  S     7.265329  9.630298 -6.096634
  S     4.176796  9.762311 -3.265303
  S     6.703496  9.119583 -2.050117
