16  
    
  C     5.499840  5.906221 -4.473081
  C     6.734551  5.569870 -3.854145
  C     5.428517  9.402436 -4.338154
  C     6.714256  9.022110 -3.776930
  N     7.803951  5.401406 -4.639842
  N     5.605787  5.961568 -5.809530
  N     5.069377  5.721922 -1.882461
  N     7.647855  8.921044 -4.708542
  N     5.454607  9.742363 -5.642197
  N     5.061991  9.431746 -1.798916
  S     7.201595  5.632251 -6.194623
  S     4.204591  5.924813 -3.340729
  S     6.697018  5.475676 -2.117190
  S     7.032618  9.381005 -6.146402
  S     4.187513  9.837923 -3.174308
  S     6.663028  9.171105 -2.027129
