16  
    
  C     5.597917  5.750735 -4.374296
  C     6.821398  5.272584 -3.754756
  C     5.451007  9.419646 -4.652283
  C     6.714858  9.252590 -3.942756
  N     7.859077  5.116599 -4.598566
  N     5.612632  5.830870 -5.709916
  N     5.151656  5.721392 -1.850308
  N     7.784267  9.304258 -4.700811
  N     5.619476  9.560679 -5.949084
  N     4.848842  9.324482 -2.190704
  S     7.186184  5.504372 -6.121419
  S     4.311715  6.067918 -3.219668
  S     6.680515  5.185886 -2.042234
  S     7.247183  9.558581 -6.247635
  S     4.093740  9.649343 -3.622896
  S     6.486136  8.965378 -2.225830
