16  
    
  C     5.344090  6.084901 -4.634884
  C     6.635337  5.756743 -4.090165
  C     5.686560  9.414844 -4.140243
  C     6.902913  8.910779 -3.599942
  N     7.617287  5.731166 -4.986482
  N     5.375592  6.469099 -5.888618
  N     4.998118  5.733483 -2.066978
  N     7.972037  8.892230 -4.356720
  N     5.800511  9.803820 -5.425222
  N     5.194371  8.863155 -1.623294
  S     6.987064  6.210708 -6.384597
  S     4.075673  6.100763 -3.387499
  S     6.635298  5.524828 -2.349944
  S     7.367218  9.386357 -5.861652
  S     4.407252  9.418708 -2.926216
  S     6.842596  8.697647 -1.818304
