16  
    
  C     5.531226  6.036504 -4.469509
  C     6.837989  5.642592 -3.922670
  C     5.451128  9.991947 -4.465988
  C     6.603542  9.360735 -3.807859
  N     7.733663  5.422630 -4.867339
  N     5.546138  6.200629 -5.801860
  N     5.179645  5.905981 -1.903692
  N     7.658103  9.133546 -4.599022
  N     5.626728 10.124000 -5.763510
  N     4.756241  9.391370 -2.037502
  S     6.991159  5.754310 -6.388373
  S     4.291339  6.365697 -3.222435
  S     6.725418  5.287587 -2.164164
  S     7.149499  9.615160 -6.132706
  S     4.112818 10.181914 -3.428236
  S     6.354734  9.022840 -2.078100
