16  
    
  C     5.569891  5.856308 -4.433096
  C     6.821094  5.491454 -3.832451
  C     5.697423  9.417760 -4.250289
  C     6.966691  9.119244 -3.631679
  N     7.810331  5.470564 -4.700014
  N     5.631325  6.076954 -5.750785
  N     5.110244  5.478498 -1.951841
  N     7.961102  9.166000 -4.503241
  N     5.707243  9.679720 -5.556390
  N     5.252411  9.204923 -1.735249
  S     7.231516  5.808653 -6.217451
  S     4.358604  6.095267 -3.266550
  S     6.752809  5.142913 -2.129576
  S     7.336168  9.412903 -5.991318
  S     4.377797  9.400346 -3.193941
  S     6.814256  8.638540 -1.937252
