16  
    
  C     5.192826  6.240687 -4.280338
  C     6.360930  5.764858 -3.594888
  C     5.705151  9.615754 -4.106145
  C     6.856051  8.984529 -3.503478
  N     7.371194  5.426897 -4.401691
  N     5.405053  6.318323 -5.593499
  N     4.481520  6.034848 -1.868118
  N     7.743875  8.617713 -4.370111
  N     5.734966  9.799111 -5.403809
  N     5.224432  9.473068 -1.573310
  S     6.940584  5.788592 -5.914537
  S     3.850012  6.498400 -3.306921
  S     6.077141  5.610753 -1.919293
  S     7.149678  9.106348 -5.876046
  S     4.388502  9.873828 -2.966363
  S     6.760778  8.960119 -1.796832
