16  
    
  C     5.891518  5.510514 -4.103848
  C     7.053608  4.961323 -3.412222
  C     5.683490  9.679632 -4.288734
  C     6.869948  9.096311 -3.734818
  N     8.178961  5.000062 -4.157111
  N     6.106814  5.737735 -5.385751
  N     5.055695  5.155180 -1.708999
  N     7.905725  9.125274 -4.584551
  N     5.768748  9.972290 -5.582426
  N     5.081864  8.888019 -1.890681
  S     7.675613  5.360118 -5.707650
  S     4.496385  5.854764 -3.144652
  S     6.599359  4.638739 -1.741268
  S     7.362720  9.733803 -5.989258
  S     4.337356  9.728426 -3.119603
  S     6.634933  8.488014 -2.139518
