16  
    
  C     5.304492  6.213452 -4.478285
  C     6.448237  5.686563 -3.800895
  C     5.450215  9.588495 -4.167867
  C     6.662393  9.177250 -3.472591
  N     7.515568  5.337557 -4.560604
  N     5.549953  6.478334 -5.771557
  N     4.607847  5.868253 -2.028397
  N     7.700292  9.093730 -4.261124
  N     5.604749  9.762119 -5.454596
  N     4.865214  9.432194 -1.670808
  S     7.070216  5.948702 -6.127533
  S     3.944741  6.443646 -3.390883
  S     6.197196  5.505110 -2.090377
  S     7.231971  9.470367 -5.790644
  S     4.144216  9.543523 -3.105566
  S     6.526317  8.891414 -1.761520
