16  
    
  C     5.219030  6.417875 -4.644728
  C     6.485884  6.116755 -3.981367
  C     5.738287  9.686211 -4.445153
  C     6.950748  9.301867 -3.825690
  N     7.499603  5.805473 -4.810078
  N     5.288534  6.453873 -6.010583
  N     4.738275  6.325435 -2.110980
  N     7.953584  9.163618 -4.664755
  N     5.821382  9.785937 -5.775907
  N     5.333667  9.447366 -1.901643
  S     6.846059  6.044724 -6.314713
  S     3.959816  6.765172 -3.526746
  S     6.368071  5.973337 -2.294427
  S     7.394415  9.432947 -6.176069
  S     4.466036  9.782618 -3.189413
  S     6.969714  9.060023 -2.103714
