16  
    
  C     5.687995  5.819010 -4.117375
  C     6.768838  5.176488 -3.373093
  C     5.515468  9.437647 -4.009544
  C     6.630957  8.803261 -3.353755
  N     7.790734  4.847026 -4.155525
  N     5.921401  6.037444 -5.416774
  N     4.914110  5.377786 -1.613401
  N     7.714475  8.610674 -4.125643
  N     5.710152  9.748292 -5.276262
  N     4.866458  9.183114 -1.517760
  S     7.510048  5.514238 -5.652443
  S     4.212772  5.920769 -3.096165
  S     6.589252  5.092063 -1.662608
  S     7.213781  9.183879 -5.676319
  S     4.183161  9.607454 -2.977039
  S     6.402610  8.583032 -1.631600
