16  
    
  C     5.674231  5.843771 -4.365874
  C     6.855306  5.394757 -3.749043
  C     5.493757  9.388954 -4.684866
  C     6.720770  9.112633 -4.003806
  N     7.813342  5.169351 -4.612933
  N     5.691104  5.970097 -5.688699
  N     5.198553  5.704279 -1.798799
  N     7.882049  9.276172 -4.720191
  N     5.711918  9.749880 -5.962401
  N     4.876863  9.185345 -2.188580
  S     7.196943  5.444665 -6.127192
  S     4.347978  6.006081 -3.205833
  S     6.740169  5.016823 -2.033308
  S     7.402236  9.774292 -6.178487
  S     4.150792  9.554624 -3.610640
  S     6.508073  8.967174 -2.229892
