16  
    
  C     5.465926  6.319517 -4.442686
  C     6.674855  5.800617 -3.769360
  C     5.600367  9.609593 -4.481659
  C     6.801061  9.177457 -3.794473
  N     7.653755  5.513565 -4.606499
  N     5.681150  6.450500 -5.723099
  N     4.909351  6.188201 -1.918007
  N     7.847162  8.930186 -4.568539
  N     5.738928  9.782194 -5.801728
  N     5.143303  9.542587 -1.926063
  S     7.202918  5.885659 -6.146463
  S     4.098633  6.581004 -3.363786
  S     6.516807  5.842880 -2.022396
  S     7.340487  9.196307 -6.101945
  S     4.260587  9.866033 -3.285320
  S     6.792927  9.134441 -2.062394
