16  
    
  C     5.603217  5.777727 -4.284056
  C     6.726626  5.076573 -3.641014
  C     5.430672  9.173491 -4.180991
  C     6.632758  8.689619 -3.541619
  N     7.707647  4.762145 -4.459459
  N     5.789562  5.914449 -5.599239
  N     5.058258  5.588738 -1.768667
  N     7.679509  8.588203 -4.370713
  N     5.557454  9.350463 -5.495618
  N     4.807884  8.964076 -1.678711
  S     7.299403  5.269671 -5.946942
  S     4.294806  6.135411 -3.177652
  S     6.522887  4.904711 -1.924615
  S     7.116222  8.929293 -5.863890
  S     4.098821  9.519845 -3.125163
  S     6.398488  8.562540 -1.788429
