16  
    
  C     5.654988  5.765682 -4.338942
  C     6.929725  5.326568 -3.756907
  C     5.722126  9.617500 -4.304885
  C     6.978709  9.157409 -3.746049
  N     7.937219  5.264049 -4.623658
  N     5.778997  5.900485 -5.648985
  N     5.237507  5.525228 -1.815015
  N     7.928296  9.018709 -4.651787
  N     5.801904  9.985110 -5.596003
  N     5.307325  8.812174 -1.878499
  S     7.340018  5.560341 -6.122331
  S     4.384554  5.912136 -3.197211
  S     6.839867  5.052594 -2.100442
  S     7.339933  9.684618 -6.074063
  S     4.453446  9.439050 -3.140168
  S     6.937983  8.740441 -2.077953
