16  
    
  C     5.798327  5.594336 -4.272571
  C     6.998940  5.206363 -3.634978
  C     5.521363  9.400090 -4.523625
  C     6.680921  8.855040 -3.832372
  N     8.083563  5.007166 -4.405881
  N     5.854885  5.691801 -5.611192
  N     5.136996  5.325071 -1.734549
  N     7.751903  8.704746 -4.621040
  N     5.639654  9.549818 -5.824827
  N     4.820276  9.219105 -2.063820
  S     7.460263  5.323836 -5.923384
  S     4.461437  5.902673 -3.150163
  S     6.719798  4.829984 -1.905381
  S     7.116417  9.046784 -6.202536
  S     4.086307  9.626049 -3.507834
  S     6.336250  8.567501 -2.175110
