16  
    
  C     5.316631  6.206036 -4.575150
  C     6.608090  5.825213 -4.037321
  C     5.671311  9.430183 -4.054473
  C     6.923660  8.943275 -3.482947
  N     7.611993  5.784723 -4.918295
  N     5.334855  6.436178 -5.922306
  N     4.969724  5.737614 -2.074344
  N     7.867120  8.848340 -4.409354
  N     5.813058  9.805475 -5.324900
  N     5.189295  8.885962 -1.593687
  S     6.879300  6.244741 -6.484562
  S     4.059142  6.194089 -3.404782
  S     6.585600  5.549863 -2.313590
  S     7.348848  9.478199 -5.828455
  S     4.295688  9.358014 -2.960730
  S     6.823236  8.636317 -1.809541
