16  
    
  C     5.535085  5.853590 -4.139113
  C     6.509058  4.918969 -3.542734
  C     5.663756  9.504888 -4.604649
  C     6.758517  8.815239 -3.934348
  N     7.474403  4.636575 -4.419383
  N     5.739824  6.188627 -5.436506
  N     5.079791  5.705578 -1.579163
  N     7.821952  8.582453 -4.687383
  N     5.897670  9.691096 -5.888642
  N     5.153964  9.373244 -2.017349
  S     7.067105  5.271457 -5.924581
  S     4.403238  6.448412 -2.925300
  S     6.360838  4.618873 -1.853413
  S     7.416989  9.196965 -6.197740
  S     4.404935  9.860392 -3.429702
  S     6.642463  8.612565 -2.183947
