16  
    
  C     5.453010  6.055093 -4.389852
  C     6.689519  5.859667 -3.800786
  C     5.514305  9.704336 -4.254897
  C     6.732003  9.237592 -3.664215
  N     7.720709  5.626906 -4.619287
  N     5.490606  6.065377 -5.717496
  N     4.969876  5.842390 -1.854647
  N     7.782198  9.150932 -4.480627
  N     5.569644  9.851297 -5.551035
  N     4.928135  9.528927 -1.784850
  S     7.070280  5.846041 -6.126944
  S     4.124198  6.232085 -3.248656
  S     6.555102  5.543677 -2.101843
  S     7.081972  9.443425 -6.027076
  S     4.141657  9.875487 -3.210518
  S     6.513163  8.916629 -2.002180
