16  
    
  C     5.365077  5.946725 -4.525176
  C     6.550778  5.471612 -3.844286
  C     5.383122  9.508449 -4.448917
  C     6.473448  8.927393 -3.671212
  N     7.594288  5.089363 -4.610049
  N     5.497706  6.012476 -5.851153
  N     4.679548  5.698256 -2.044056
  N     7.437849  8.587137 -4.480937
  N     5.556345  9.634582 -5.767669
  N     4.736963  9.492975 -1.983015
  S     7.040695  5.403925 -6.162466
  S     4.000738  6.156182 -3.488162
  S     6.267740  5.207871 -2.111901
  S     7.030769  9.051094 -6.058502
  S     4.009738  9.937739 -3.406300
  S     6.294729  8.863621 -1.954042
