16  
    
  C     5.541045  5.324525 -4.161891
  C     6.819587  5.115976 -3.510683
  C     5.369866  9.239072 -4.376403
  C     6.577710  8.745098 -3.763883
  N     7.844434  4.974416 -4.365065
  N     5.613346  5.350084 -5.493180
  N     4.944249  5.214672 -1.662671
  N     7.524579  8.498696 -4.668501
  N     5.422043  9.355667 -5.702123
  N     4.897553  9.038620 -1.842949
  S     7.231003  5.134672 -5.848286
  S     4.242037  5.447646 -3.106476
  S     6.594725  4.922017 -1.739167
  S     6.928546  8.796945 -6.145384
  S     4.162522  9.714797 -3.149306
  S     6.468569  8.501001 -2.055703
