16  
    
  C     5.729477  5.881306 -4.236087
  C     6.968517  5.265532 -3.811360
  C     5.789259  9.214112 -4.037589
  C     7.102514  8.883629 -3.512646
  N     7.839030  5.098256 -4.793938
  N     5.738257  6.306409 -5.484806
  N     5.305933  5.251992 -1.801674
  N     8.050153  8.844432 -4.434202
  N     5.765612  9.470570 -5.351020
  N     5.359088  8.784576 -1.527324
  S     7.248897  5.889622 -6.095212
  S     4.535622  5.893112 -3.086824
  S     6.846309  4.798517 -2.131322
  S     7.293493  9.141528 -5.939053
  S     4.467360  9.243664 -2.838918
  S     6.893186  8.329896 -1.809748
