16  
    
  C     5.635623  6.146219 -4.287647
  C     6.824634  5.550258 -3.740175
  C     5.785947  9.424307 -4.287719
  C     6.995456  8.875635 -3.671174
  N     7.847199  5.476539 -4.612644
  N     5.733136  6.541627 -5.567672
  N     5.198241  5.735645 -1.750362
  N     7.967046  8.682738 -4.504206
  N     5.952116  9.728565 -5.575516
  N     5.405713  9.183737 -1.726103
  S     7.248955  6.066743 -6.027680
  S     4.362623  6.201305 -3.143540
  S     6.764428  5.197070 -2.009203
  S     7.403509  9.206193 -5.998327
  S     4.564863  9.663191 -3.059357
  S     7.052593  8.815289 -1.914997
