16  
    
  C     5.364951  6.136199 -4.399547
  C     6.553889  5.536481 -3.778750
  C     5.459780  9.799479 -4.360100
  C     6.728273  9.366653 -3.801429
  N     7.516794  5.267715 -4.646948
  N     5.434980  6.335149 -5.689455
  N     4.795156  5.853871 -1.975704
  N     7.725588  9.254430 -4.736489
  N     5.508151  9.969763 -5.703715
  N     4.874662  9.488274 -1.924927
  S     6.964562  5.708071 -6.126319
  S     4.086419  6.395322 -3.332577
  S     6.359736  5.304820 -2.069805
  S     7.049243  9.613696 -6.210790
  S     4.149771  9.969946 -3.302219
  S     6.541256  9.010213 -2.050622
