16  
    
  C     5.557014  6.085064 -4.271130
  C     6.656511  5.463612 -3.598557
  C     5.868165  9.678672 -4.233030
  C     7.044685  9.190050 -3.581536
  N     7.662673  5.143090 -4.404607
  N     5.744389  6.229336 -5.555225
  N     5.055587  6.182663 -1.789105
  N     8.017671  8.939219 -4.457961
  N     5.987974  9.902893 -5.569038
  N     5.263023  9.370792 -1.713743
  S     7.209207  5.542976 -5.931384
  S     4.290816  6.512959 -3.219623
  S     6.487418  5.300753 -1.896218
  S     7.439360  9.308481 -6.003735
  S     4.547078  9.967960 -3.155499
  S     6.922000  9.101323 -1.830710
