16  
    
  C     5.549040  5.847453 -4.559759
  C     6.732474  5.554765 -3.854889
  C     5.273453  9.755570 -4.480656
  C     6.485195  9.386094 -3.784433
  N     7.833740  5.540525 -4.616525
  N     5.619155  5.997481 -5.906407
  N     4.876797  5.808577 -2.009003
  N     7.454589  8.851311 -4.517517
  N     5.399804  9.643834 -5.802502
  N     4.764371  9.620725 -1.886708
  S     7.239902  5.717235 -6.180153
  S     4.124360  5.943070 -3.501877
  S     6.536372  5.438403 -2.093392
  S     6.923375  8.888308 -6.102499
  S     3.952957  9.964886 -3.327249
  S     6.358409  9.296665 -1.978070
