16  
    
  C     5.624513  5.437410 -4.433769
  C     6.885122  5.117697 -3.718214
  C     5.443702  9.357985 -4.492225
  C     6.628990  8.950063 -3.777691
  N     7.992521  4.955631 -4.452488
  N     5.813675  5.541193 -5.741827
  N     5.128239  5.460919 -1.877211
  N     7.690528  8.756492 -4.556085
  N     5.559274  9.349974 -5.813193
  N     4.840005  9.273992 -1.901951
  S     7.411941  5.233397 -6.008313
  S     4.324796  5.514036 -3.332290
  S     6.742725  5.046333 -2.003419
  S     7.146337  9.004271 -6.145480
  S     4.154703  9.824578 -3.341533
  S     6.427440  8.825275 -2.097753
