16  
    
  C     5.206023  6.397371 -4.350090
  C     6.354891  5.781113 -3.686469
  C     5.807210  9.609724 -4.163345
  C     6.976975  9.063897 -3.626715
  N     7.369748  5.560313 -4.505464
  N     5.340625  6.633826 -5.664576
  N     4.537643  5.863397 -1.919499
  N     7.948804  8.706212 -4.468777
  N     5.896963  9.713918 -5.496525
  N     5.411949  9.633129 -1.728656
  S     6.844891  6.014415 -5.991489
  S     3.871727  6.634575 -3.244440
  S     6.144646  5.530786 -2.003627
  S     7.389378  9.223787 -5.972787
  S     4.575372  9.805765 -3.044642
  S     6.910495  8.934893 -1.891880
