16  
    
  C     5.513339  6.096846 -4.450795
  C     6.738017  5.671368 -3.844281
  C     5.390815  9.963879 -4.716206
  C     6.621779  9.687588 -4.037459
  N     7.746707  5.596340 -4.758604
  N     5.547770  6.323523 -5.747470
  N     4.936387  5.753446 -1.975275
  N     7.636272  9.619797 -4.851035
  N     5.422196 10.050190 -6.043819
  N     4.666912  9.519087 -2.213790
  S     7.138964  5.992188 -6.217188
  S     4.101874  6.139865 -3.362834
  S     6.531777  5.237482 -2.151361
  S     7.012665  9.873184 -6.394308
  S     4.002280  9.989063 -3.653473
  S     6.422672  9.398275 -2.248457
