16  
    
  C     5.309758  5.914122 -4.377831
  C     6.459741  5.390136 -3.714529
  C     5.697528  9.649579 -4.212454
  C     6.721150  9.042505 -3.465743
  N     7.558536  5.203053 -4.443909
  N     5.498529  6.100037 -5.681462
  N     4.724133  5.817096 -1.835400
  N     7.791570  8.780432 -4.217384
  N     5.864586  9.879592 -5.503046
  N     4.831358  9.261631 -1.762168
  S     7.054554  5.638002 -5.978075
  S     3.981798  6.240425 -3.269616
  S     6.340280  5.296117 -1.923693
  S     7.398777  9.331767 -5.791790
  S     4.364068 10.011115 -3.239024
  S     6.421628  8.775497 -1.782332
