16  
    
  C     5.755720  5.806538 -4.331750
  C     6.899710  5.229761 -3.727347
  C     5.526558  9.387902 -4.351024
  C     6.608186  8.678640 -3.745112
  N     7.829756  4.852095 -4.583725
  N     5.829027  5.990738 -5.640663
  N     5.194575  5.550930 -1.824604
  N     7.658192  8.438577 -4.542382
  N     5.778413  9.714984 -5.627376
  N     4.833966  9.183277 -1.929470
  S     7.335922  5.452011 -6.061386
  S     4.461351  6.057707 -3.215912
  S     6.804328  5.107861 -1.990633
  S     7.285301  9.077836 -5.958847
  S     4.162417  9.775026 -3.358901
  S     6.439108  8.683009 -2.051837
