16  
    
  C     5.524748  6.091472 -4.323250
  C     6.726291  5.605505 -3.732835
  C     5.630720  9.376759 -4.459487
  C     6.862377  9.104407 -3.794699
  N     7.756934  5.371793 -4.487589
  N     5.654068  6.157354 -5.645708
  N     5.005144  5.919772 -1.756617
  N     7.993703  9.093517 -4.509927
  N     5.794454  9.564376 -5.780157
  N     5.032515  9.246310 -1.907789
  S     7.223907  5.707950 -6.022477
  S     4.193112  6.271643 -3.192375
  S     6.559528  5.533284 -1.946771
  S     7.453354  9.326323 -6.093589
  S     4.283310  9.665192 -3.370365
  S     6.629564  8.838755 -2.044217
