16  
    
  C     5.579727  5.900727 -4.127575
  C     6.566820  5.001021 -3.611002
  C     5.672132  9.514640 -4.589278
  C     6.762207  8.802139 -3.942534
  N     7.544222  4.607094 -4.406985
  N     5.739136  6.187082 -5.395260
  N     5.083984  5.716229 -1.534635
  N     7.813231  8.526578 -4.699458
  N     5.876244  9.779656 -5.902647
  N     5.217589  9.426334 -2.004517
  S     7.100341  5.335355 -5.896341
  S     4.462990  6.412243 -2.950557
  S     6.348348  4.666933 -1.862007
  S     7.450645  9.178844 -6.225610
  S     4.393027  9.824852 -3.415363
  S     6.665455  8.639875 -2.205446
