16  
    
  C     5.589427  5.549995 -4.404566
  C     6.853068  5.342100 -3.728057
  C     5.708755  9.356875 -4.064577
  C     6.933518  8.839855 -3.493032
  N     7.939594  5.127600 -4.493148
  N     5.690776  5.516676 -5.754823
  N     5.064773  5.700907 -1.894903
  N     7.919028  8.772230 -4.360770
  N     5.827784  9.838009 -5.290757
  N     5.202006  8.994136 -1.625201
  S     7.297460  5.292077 -6.060200
  S     4.334689  5.867774 -3.316897
  S     6.663193  5.280908 -1.975062
  S     7.357233  9.512260 -5.763693
  S     4.426397  9.668829 -2.922895
  S     6.803308  8.582887 -1.809158
