16  
    
  C     5.554027  6.275359 -4.384589
  C     6.749742  5.570322 -3.898332
  C     5.394251  9.734915 -4.238437
  C     6.543620  9.192583 -3.627068
  N     7.734119  5.374354 -4.769269
  N     5.613785  6.479065 -5.698734
  N     5.035278  5.592416 -1.932745
  N     7.605124  8.941480 -4.411571
  N     5.649300 10.038046 -5.522607
  N     5.033945  9.739713 -1.674567
  S     7.100734  6.018820 -6.165556
  S     4.218355  6.399528 -3.234411
  S     6.683760  5.207218 -2.171865
  S     7.123352  9.418942 -5.934345
  S     4.148399 10.062217 -3.084751
  S     6.481409  9.066867 -1.948792
