16  
    
  C     5.247399  6.276964 -4.356888
  C     6.492055  5.718481 -3.800153
  C     5.708094  9.538859 -4.247612
  C     6.943769  9.104870 -3.628155
  N     7.470475  5.499846 -4.695112
  N     5.377220  6.527891 -5.653235
  N     4.747471  6.088938 -1.853515
  N     7.929210  8.954532 -4.499902
  N     5.800800  9.675375 -5.559477
  N     5.181025  9.435863 -1.792444
  S     6.913634  6.019040 -6.154024
  S     3.925032  6.539580 -3.211746
  S     6.336751  5.575318 -2.014507
  S     7.338474  9.317217 -6.026570
  S     4.355393  9.749157 -3.127190
  S     6.749006  8.941420 -1.940034
