16  
    
  C     5.416468  5.483850 -4.205784
  C     6.585802  5.034457 -3.465492
  C     5.652198  8.945068 -4.005106
  C     6.881693  8.562839 -3.391655
  N     7.618365  4.745261 -4.215798
  N     5.593784  5.606665 -5.511489
  N     4.720391  5.381517 -1.732114
  N     7.856698  8.327465 -4.260048
  N     5.721133  9.088063 -5.350279
  N     5.320132  8.938201 -1.450046
  S     7.237042  5.307600 -5.748767
  S     4.023727  5.831819 -3.201508
  S     6.407628  5.201919 -1.712842
  S     7.303738  8.628793 -5.752387
  S     4.417771  9.095480 -2.818292
  S     6.825635  8.311210 -1.681974
