16  
    
  C     5.302239  6.235491 -4.394348
  C     6.346548  5.521105 -3.622666
  C     5.464872  9.651520 -4.233380
  C     6.558681  9.090345 -3.545272
  N     7.286854  5.028472 -4.419784
  N     5.482389  6.218318 -5.701547
  N     4.472433  6.141743 -1.944980
  N     7.647217  8.933270 -4.340392
  N     5.733834 10.039088 -5.535562
  N     4.905542  9.441643 -1.639076
  S     6.922697  5.405175 -5.973102
  S     3.978755  6.744976 -3.395123
  S     6.000768  5.567847 -1.931338
  S     7.274244  9.503327 -5.832722
  S     4.093814  9.696030 -3.128650
  S     6.451368  8.819193 -1.853533
