16  
    
  C     5.349399  5.663876 -4.166549
  C     6.423080  4.865067 -3.587900
  C     5.602663  9.557713 -4.431796
  C     6.795065  9.091531 -3.782876
  N     7.301033  4.505745 -4.518014
  N     5.485964  5.902123 -5.467819
  N     4.847812  5.456197 -1.645480
  N     7.777726  8.797736 -4.636268
  N     5.697195  9.607813 -5.777576
  N     4.937713  9.117739 -2.000172
  S     6.823572  5.078252 -5.980722
  S     4.138529  6.120986 -2.990350
  S     6.266260  4.641700 -1.820958
  S     7.286722  9.086450 -6.151567
  S     4.297472  9.835835 -3.363538
  S     6.574459  8.765301 -2.030588
