16  
    
  C     5.687050  5.778248 -4.210324
  C     6.911487  5.401006 -3.619887
  C     5.714788  9.567006 -4.349153
  C     6.907181  9.049486 -3.724650
  N     7.930691  5.191978 -4.442857
  N     5.722178  5.930092 -5.521649
  N     5.154023  5.443265 -1.735564
  N     7.888805  8.926061 -4.649102
  N     5.755991  9.867206 -5.632346
  N     5.077986  8.943074 -1.952758
  S     7.309868  5.638947 -5.950559
  S     4.320816  5.691621 -3.135075
  S     6.776643  5.108671 -1.889995
  S     7.294452  9.385160 -6.093458
  S     4.282059  9.626594 -3.297371
  S     6.753786  8.807468 -2.028366
