16  
    
  C     5.610387  5.532301 -4.062152
  C     6.877520  5.214235 -3.423082
  C     5.834326  9.309251 -3.901231
  C     7.109937  9.029212 -3.298232
  N     7.877297  4.890395 -4.263052
  N     5.716943  5.534471 -5.395187
  N     5.114784  5.395855 -1.515622
  N     8.123375  8.864211 -4.166385
  N     5.884903  9.332444 -5.211369
  N     5.295475  9.123947 -1.403441
  S     7.236019  5.172279 -5.807739
  S     4.212740  5.651049 -2.874437
  S     6.771275  5.046341 -1.693876
  S     7.419946  8.984825 -5.677842
  S     4.520298  9.586639 -2.789838
  S     6.896043  8.863024 -1.560155
