16  
    
  C     5.633052  6.192097 -4.356103
  C     6.791915  5.449796 -3.744562
  C     5.585689  9.576238 -4.239979
  C     6.888530  9.187916 -3.679281
  N     7.781659  5.236644 -4.617447
  N     5.794675  6.444938 -5.666117
  N     5.016661  5.797398 -1.875918
  N     7.861323  8.997203 -4.526087
  N     5.647222  9.720860 -5.546269
  N     5.155927  9.301791 -1.757024
  S     7.229998  5.851763 -6.060245
  S     4.291145  6.362477 -3.249085
  S     6.511643  5.137477 -2.097663
  S     7.171081  9.334752 -6.049657
  S     4.334341  9.703359 -3.088181
  S     6.745765  8.875321 -1.977373
