16  
    
  C     5.395371  6.031400 -4.246961
  C     6.576207  5.462670 -3.643106
  C     5.513607  9.607831 -4.259821
  C     6.625523  9.087983 -3.584722
  N     7.527984  5.260663 -4.519228
  N     5.402099  6.108155 -5.559785
  N     4.871628  5.714936 -1.746160
  N     7.778297  8.916088 -4.287641
  N     5.796692  9.915990 -5.542458
  N     4.810268  9.385821 -1.768523
  S     6.988470  5.658312 -6.047578
  S     4.072046  6.287007 -3.147651
  S     6.436858  5.185464 -1.926810
  S     7.351604  9.383601 -5.836104
  S     4.129351  9.801758 -3.250838
  S     6.404399  8.726586 -1.906602
