16  
    
  C     5.415704  5.638452 -4.352490
  C     6.641872  5.065158 -3.788048
  C     5.781168  9.107284 -4.324694
  C     6.958581  8.767847 -3.587320
  N     7.632584  5.032634 -4.666271
  N     5.481815  5.875323 -5.664590
  N     5.103412  5.715785 -1.836130
  N     8.012095  8.603200 -4.353313
  N     5.849517  9.053922 -5.655920
  N     5.121695  9.284441 -1.852054
  S     7.060456  5.443587 -6.136547
  S     4.229754  6.136743 -3.268951
  S     6.641830  5.063509 -2.023615
  S     7.477754  8.821558 -5.958318
  S     4.449924  9.505109 -3.321138
  S     6.717686  8.798496 -1.870315
