16  
    
  C     5.871264  5.475303 -4.108140
  C     7.167868  5.145479 -3.555610
  C     5.416228  9.319293 -4.330312
  C     6.544065  8.731176 -3.649805
  N     8.095237  5.133171 -4.496939
  N     5.868705  5.784736 -5.401318
  N     5.446977  5.213855 -1.588484
  N     7.565224  8.323586 -4.421455
  N     5.649174  9.427033 -5.634847
  N     4.725554  9.096081 -1.897446
  S     7.414821  5.468115 -5.929665
  S     4.605884  5.592183 -2.915727
  S     7.027954  4.918545 -1.884795
  S     7.175174  8.751535 -5.940629
  S     4.178368  9.902159 -3.268200
  S     6.325253  8.560436 -1.933826
