16  
    
  C     5.252230  6.355170 -4.367617
  C     6.432430  5.788078 -3.733728
  C     5.701018  9.528271 -4.272834
  C     6.883491  9.041672 -3.652989
  N     7.394481  5.463730 -4.582561
  N     5.367169  6.589934 -5.686993
  N     4.676194  5.964819 -1.871576
  N     7.949848  8.876072 -4.457832
  N     5.847013  9.759155 -5.620718
  N     5.331998  9.533906 -1.671972
  S     6.857194  6.053321 -6.085399
  S     3.911624  6.562646 -3.231098
  S     6.260245  5.582511 -2.033771
  S     7.408842  9.230330 -6.008596
  S     4.392366  9.781761 -3.085869
  S     6.892289  8.927221 -1.900424
