16  
    
  C     5.680102  6.211980 -4.171986
  C     6.813905  5.596311 -3.582860
  C     5.916165  9.627397 -4.198077
  C     7.164761  9.137595 -3.657247
  N     7.800579  5.455425 -4.447129
  N     5.809972  6.514301 -5.471076
  N     5.061688  5.630633 -1.779716
  N     8.102898  8.879262 -4.545494
  N     5.921558  9.681692 -5.501610
  N     5.561940  9.613775 -1.658597
  S     7.298667  5.897840 -5.949888
  S     4.391880  6.428755 -3.070167
  S     6.737615  5.331404 -1.878402
  S     7.374871  9.183063 -6.037933
  S     4.636798  9.830406 -3.013871
  S     6.955642  8.784621 -1.925647
