16  
    
  C     5.380992  5.720405 -4.528510
  C     6.519726  5.230399 -3.726433
  C     5.269649  9.445259 -4.355076
  C     6.504986  9.060183 -3.714033
  N     7.566317  5.073174 -4.519081
  N     5.555046  5.803463 -5.842116
  N     4.679212  5.771850 -2.061489
  N     7.518451  8.802824 -4.545882
  N     5.357603  9.556365 -5.682223
  N     4.766146  9.430773 -1.859622
  S     7.224248  5.541401 -6.087624
  S     4.040490  6.159285 -3.516620
  S     6.262540  5.274158 -2.020970
  S     6.873507  9.079305 -6.078477
  S     4.010589  9.684144 -3.340832
  S     6.374378  8.875915 -1.951334
