16  
    
  C     5.405281  6.095455 -4.177749
  C     6.625922  5.394014 -3.657146
  C     5.504509  9.553009 -4.276714
  C     6.720166  9.054967 -3.657154
  N     7.565699  5.206062 -4.561705
  N     5.537467  6.348263 -5.455980
  N     4.920450  5.537475 -1.716901
  N     7.737714  8.908573 -4.531403
  N     5.649636  9.868338 -5.569496
  N     4.789761  9.300732 -1.814989
  S     7.060555  5.789900 -6.020328
  S     4.156088  6.239293 -3.053004
  S     6.524952  5.201781 -1.952115
  S     7.183682  9.477207 -6.026890
  S     4.019027  9.643361 -3.264781
  S     6.452500  8.812352 -1.968564
