16  
    
  C     5.502860  6.013044 -4.418343
  C     6.573106  5.391871 -3.698240
  C     5.727872  9.687222 -4.204968
  C     6.955946  9.327454 -3.576977
  N     7.557635  5.051998 -4.494358
  N     5.740706  6.190542 -5.695917
  N     4.910077  5.940360 -1.895990
  N     7.993119  9.027093 -4.377403
  N     5.855753  9.704468 -5.548115
  N     5.141159  9.365214 -1.719985
  S     7.189901  5.438016 -6.082122
  S     4.230784  6.427858 -3.372583
  S     6.472263  5.442152 -1.967679
  S     7.445882  9.233512 -5.903193
  S     4.380829  9.846562 -3.159579
  S     6.799333  9.037721 -1.873142
