16  
    
  C     5.229882  5.857811 -4.273837
  C     6.479303  5.375832 -3.662813
  C     5.419545  9.457826 -4.165434
  C     6.620367  8.913665 -3.548605
  N     7.438620  5.173967 -4.552274
  N     5.323648  5.958169 -5.588454
  N     4.719524  5.660348 -1.766230
  N     7.511435  8.555892 -4.451497
  N     5.466011  9.640398 -5.523170
  N     4.951877  9.239456 -1.604416
  S     6.860547  5.499728 -6.051550
  S     3.962093  6.039445 -3.188785
  S     6.337944  5.254145 -1.944650
  S     6.962493  8.955841 -5.942865
  S     4.091557  9.643793 -2.988431
  S     6.560811  8.880438 -1.778452
