16  
    
  C     5.778246  5.880336 -3.848799
  C     6.884791  5.062761 -3.501121
  C     5.618934  9.635603 -4.082405
  C     6.809473  8.959501 -3.586023
  N     7.825220  4.921886 -4.463653
  N     5.858592  6.397108 -5.069482
  N     5.123176  4.957414 -1.557979
  N     7.786050  8.963589 -4.469319
  N     5.716963 10.119601 -5.315871
  N     5.156628  8.900499 -1.663568
  S     7.354676  5.909861 -5.657106
  S     4.419697  5.801160 -2.831167
  S     6.758043  4.542479 -1.764070
  S     7.246727  9.631998 -5.862392
  S     4.316076  9.635036 -2.886793
  S     6.766978  8.507246 -1.923887
