16  
    
  C     5.246106  6.059271 -4.457416
  C     6.385885  5.540978 -3.641896
  C     5.448156  9.612784 -4.141625
  C     6.616570  9.089238 -3.533029
  N     7.364872  5.138316 -4.427084
  N     5.454982  6.071193 -5.759081
  N     4.555388  6.111161 -1.983489
  N     7.727289  9.001159 -4.324741
  N     5.565969  9.898055 -5.463361
  N     4.783651  9.430887 -1.759833
  S     6.975700  5.441926 -6.009360
  S     3.982252  6.726730 -3.452332
  S     6.101417  5.545975 -1.967162
  S     7.180644  9.570706 -5.794863
  S     4.066121  9.728282 -3.153823
  S     6.315720  8.796364 -1.825510
