16  
    
  C     5.499119  5.901077 -4.361854
  C     6.752358  5.651925 -3.714916
  C     5.607484  8.973911 -4.143907
  C     6.873370  8.677613 -3.527978
  N     7.781562  5.516943 -4.516794
  N     5.643507  5.982681 -5.675077
  N     4.880863  5.727982 -1.949251
  N     7.938358  8.757911 -4.351085
  N     5.696629  9.222552 -5.444350
  N     5.169383  8.820938 -1.624830
  S     7.255273  5.811644 -6.077947
  S     4.085830  5.892163 -3.410776
  S     6.515027  5.380151 -2.044784
  S     7.345990  9.153227 -5.866341
  S     4.282117  9.036563 -2.969296
  S     6.756430  8.496057 -1.829738
