16  
    
  C     5.386481  5.621414 -4.424825
  C     6.533769  5.080487 -3.709808
  C     5.520125  9.133124 -4.247966
  C     6.769253  8.810096 -3.615418
  N     7.620464  4.863139 -4.443737
  N     5.629997  5.759408 -5.723387
  N     4.621890  5.612528 -1.923725
  N     7.763957  8.591205 -4.460551
  N     5.551155  9.075282 -5.592672
  N     4.954242  8.949836 -1.700110
  S     7.181304  5.251416 -6.032795
  S     3.916010  5.834550 -3.425417
  S     6.189953  4.990603 -1.924481
  S     7.077972  8.749208 -6.017238
  S     4.203281  9.367157 -3.142542
  S     6.597809  8.747766 -1.884497
