16  
    
  C     5.423494  5.817934 -4.389272
  C     6.587909  5.463613 -3.717586
  C     5.258482  9.498989 -4.396358
  C     6.553496  9.254311 -3.810165
  N     7.661228  5.363834 -4.480599
  N     5.547869  5.927765 -5.701334
  N     4.731428  5.748585 -1.933300
  N     7.568966  9.024697 -4.623171
  N     5.303816  9.364149 -5.711772
  N     4.829600  9.244502 -1.820053
  S     7.154758  5.536739 -6.066317
  S     4.013212  6.116767 -3.387054
  S     6.326368  5.210986 -2.070154
  S     6.922829  9.030178 -6.163842
  S     3.977782  9.742161 -3.193530
  S     6.468469  8.979284 -2.050309
