16  
    
  C     5.594128  5.606438 -4.548103
  C     6.904419  5.488154 -3.915967
  C     5.394155  9.689376 -4.192575
  C     6.653946  9.311526 -3.588335
  N     7.906993  5.577272 -4.805873
  N     5.552530  5.877118 -5.859164
  N     5.106162  5.410446 -2.055621
  N     7.694694  9.197050 -4.378059
  N     5.506932  9.974495 -5.495258
  N     4.869229  9.200870 -1.729018
  S     7.156133  5.881992 -6.317055
  S     4.263338  5.451956 -3.494714
  S     6.741123  5.245843 -2.261725
  S     7.056673  9.685119 -5.906553
  S     4.067874  9.694550 -3.054516
  S     6.517402  8.916626 -1.911629
