16  
    
  C     5.371055  5.678670 -4.353235
  C     6.630761  5.455451 -3.692168
  C     5.368906 10.171450 -4.508292
  C     6.447364  9.445555 -3.985720
  N     7.684100  5.237443 -4.482566
  N     5.492219  5.843696 -5.646107
  N     4.926997  5.589705 -1.836981
  N     7.412751  9.101784 -4.846073
  N     5.483990 10.450108 -5.820918
  N     4.649085  9.677873 -2.193274
  S     7.046817  5.560434 -6.081595
  S     4.063665  5.571206 -3.223014
  S     6.611440  5.315803 -1.969907
  S     6.956847  9.742472 -6.317532
  S     4.019195 10.371614 -3.490535
  S     6.241790  9.121555 -2.275388
