16  
    
  C     5.624548  5.728683 -4.342656
  C     6.865111  5.156815 -3.849180
  C     5.732609  9.886570 -4.496617
  C     6.899877  9.421533 -3.824704
  N     7.865193  5.026003 -4.707167
  N     5.730977  6.121054 -5.597562
  N     5.264143  5.482936 -1.782545
  N     7.947912  9.292066 -4.678582
  N     5.853964 10.162198 -5.806822
  N     4.957302  8.960933 -2.225517
  S     7.216236  5.618356 -6.157686
  S     4.338564  5.938389 -3.142417
  S     6.831758  4.924738 -2.071902
  S     7.436695  9.749703 -6.154533
  S     4.265167  9.534976 -3.586815
  S     6.597378  8.876532 -2.237986
