16  
    
  C     5.204718  6.214567 -4.358366
  C     6.217949  5.539152 -3.610131
  C     5.671183  9.629091 -4.191031
  C     6.900579  9.070255 -3.593427
  N     7.273283  5.116621 -4.328968
  N     5.459451  6.444346 -5.656864
  N     4.430794  6.269199 -1.843968
  N     7.953757  8.963248 -4.440423
  N     5.796773  9.818734 -5.509958
  N     5.225762  9.391208 -1.711626
  S     6.931649  5.772723 -5.885154
  S     3.825723  6.763729 -3.278915
  S     5.873035  5.412639 -1.896251
  S     7.340438  9.372643 -5.998582
  S     4.428777  9.963733 -3.065662
  S     6.748529  8.822255 -1.829367
