16  
    
  C     5.842222  5.496388 -4.305623
  C     7.086107  5.177233 -3.681182
  C     5.455224  9.391271 -4.432235
  C     6.614051  8.795051 -3.784152
  N     8.139023  5.167334 -4.516922
  N     5.831128  5.721287 -5.617388
  N     5.289075  5.214389 -1.760164
  N     7.616160  8.415601 -4.574034
  N     5.593856  9.444818 -5.731765
  N     4.919768  9.516159 -1.917879
  S     7.386457  5.371756 -6.061509
  S     4.482897  5.550409 -3.190863
  S     6.874760  4.953032 -2.016744
  S     7.095012  8.823715 -6.134350
  S     4.116957  9.741817 -3.390273
  S     6.386330  8.711942 -2.024959
