16  
    
  C     5.711233  5.885798 -4.398241
  C     6.967301  5.405837 -3.842917
  C     5.832893  9.552431 -3.893426
  C     7.069955  8.923236 -3.491650
  N     7.982080  5.344276 -4.717175
  N     5.763330  6.135871 -5.710841
  N     5.209006  5.237049 -1.941456
  N     7.967431  8.736678 -4.474255
  N     5.771350  9.813974 -5.177513
  N     5.424732  8.850243 -1.517233
  S     7.290474  5.742293 -6.225141
  S     4.346724  5.784890 -3.273636
  S     6.840355  4.980460 -2.214226
  S     7.200383  9.281697 -5.855305
  S     4.547605  9.483017 -2.793911
  S     7.013847  8.361321 -1.837656
