16  
    
  C     5.849325  6.075273 -4.336271
  C     7.004624  5.556631 -3.668771
  C     5.718554  9.494979 -4.395702
  C     6.923499  8.970468 -3.769940
  N     8.045188  5.357711 -4.445713
  N     6.092368  6.355868 -5.613642
  N     5.077632  5.711688 -1.957506
  N     7.936007  8.643483 -4.562288
  N     5.950938  9.669190 -5.658819
  N     5.181379  9.284807 -1.888793
  S     7.596504  5.780687 -6.007817
  S     4.405293  6.094846 -3.444424
  S     6.703031  5.366277 -2.033652
  S     7.458446  9.225754 -6.039223
  S     4.406154  9.883136 -3.276313
  S     6.781216  8.916449 -2.056861
