16  
    
  C     5.109358  5.962833 -4.308636
  C     6.325592  5.568242 -3.653376
  C     5.495135  9.421464 -4.016831
  C     6.724402  8.947671 -3.445433
  N     7.410673  5.376598 -4.400487
  N     5.168644  5.953735 -5.634747
  N     4.537583  5.862693 -1.772603
  N     7.672242  8.719283 -4.318840
  N     5.472813  9.473435 -5.359045
  N     5.237771  9.610812 -1.491021
  S     6.793494  5.693484 -5.960236
  S     3.800306  6.324209 -3.233836
  S     6.144423  5.544005 -1.904195
  S     7.015258  9.004143 -5.767013
  S     4.348358  9.986199 -2.830348
  S     6.590411  8.724176 -1.789832
