16  
    
  C     5.323285  5.169857 -3.904069
  C     6.599042  4.920428 -3.211912
  C     5.392800  9.397202 -4.140543
  C     6.587245  8.949300 -3.473951
  N     7.672926  4.903786 -3.990408
  N     5.529943  5.427323 -5.197526
  N     4.744473  5.168711 -1.408834
  N     7.606647  8.681935 -4.290822
  N     5.547857  9.572612 -5.437084
  N     4.649743  9.072950 -1.732769
  S     7.133360  5.137856 -5.524313
  S     3.967213  5.232946 -2.852333
  S     6.347882  4.815215 -1.526412
  S     6.996552  9.105491 -5.799713
  S     4.013220  9.659185 -3.155758
  S     6.287801  8.782298 -1.766587
