16  
    
  C     5.474825  5.833320 -4.489567
  C     6.712978  5.523950 -3.796859
  C     5.626616  9.206049 -4.093441
  C     6.887146  8.875510 -3.461854
  N     7.788373  5.506081 -4.590403
  N     5.630117  6.122956 -5.790102
  N     4.932039  5.713068 -1.967729
  N     7.840083  8.710836 -4.349809
  N     5.643648  9.442136 -5.406252
  N     5.110785  8.755029 -1.618838
  S     7.228172  5.793923 -6.137032
  S     4.166960  5.853166 -3.391175
  S     6.578933  5.489916 -2.058154
  S     7.245773  9.056428 -5.817689
  S     4.277237  9.150821 -3.086540
  S     6.776609  8.626706 -1.748610
