16  
    
  C     5.402671  6.581769 -4.524033
  C     6.495563  5.941944 -3.827769
  C     5.494472 10.077199 -4.333574
  C     6.703974  9.777586 -3.679634
  N     7.547200  5.574281 -4.497020
  N     5.650057  6.718793 -5.827891
  N     4.757895  6.434924 -2.021052
  N     7.768814  9.805892 -4.456354
  N     5.658178 10.304239 -5.611365
  N     4.948031  9.897744 -1.839563
  S     7.138998  6.073678 -6.113911
  S     4.026086  6.838775 -3.447097
  S     6.322184  5.797876 -2.103506
  S     7.256826 10.036625 -5.987606
  S     4.089054 10.202107 -3.271125
  S     6.568961  9.430952 -1.969197
