16  
    
  C     5.684157  5.781424 -4.211109
  C     6.921010  5.408931 -3.614224
  C     5.707019  9.559463 -4.337669
  C     6.901324  9.043420 -3.725938
  N     7.935470  5.186845 -4.440286
  N     5.717412  5.929869 -5.524595
  N     5.145301  5.448856 -1.736089
  N     7.893380  8.925695 -4.646312
  N     5.754362  9.853492 -5.630633
  N     5.073414  8.943766 -1.947364
  S     7.306375  5.635113 -5.951002
  S     4.312693  5.694638 -3.136275
  S     6.776382  5.110219 -1.888260
  S     7.290624  9.383934 -6.093276
  S     4.278161  9.627259 -3.297201
  S     6.751725  8.806514 -2.029392
