16  
    
  C     5.378989  5.734294 -4.369295
  C     6.649143  5.350035 -3.825321
  C     5.302478  9.968197 -4.629928
  C     6.490705  9.443743 -4.026359
  N     7.643292  5.375229 -4.648515
  N     5.430077  5.957383 -5.671282
  N     4.881527  5.606642 -1.851098
  N     7.559961  9.342176 -4.842290
  N     5.434796 10.349259 -5.876190
  N     4.674001  9.724360 -2.149654
  S     6.996213  5.777495 -6.153561
  S     4.063204  5.714387 -3.287064
  S     6.511714  5.238742 -2.054584
  S     7.008423  9.906213 -6.317783
  S     3.975330 10.197072 -3.534211
  S     6.263963  9.133865 -2.278548
