16  
    
  C     5.551485  5.693445 -4.619027
  C     6.876493  5.562026 -4.045131
  C     5.453054  9.702024 -4.107872
  C     6.724186  9.295389 -3.566592
  N     7.893171  5.561914 -4.900409
  N     5.619880  5.796634 -5.917355
  N     5.102071  5.361670 -2.140888
  N     7.746592  9.328983 -4.458851
  N     5.471321  9.962163 -5.425020
  N     4.859063  9.195648 -1.719562
  S     7.191392  5.892933 -6.367223
  S     4.189364  5.478148 -3.497888
  S     6.781238  5.315445 -2.243960
  S     7.071447  9.739511 -5.909674
  S     4.052084  9.745773 -3.112726
  S     6.441059  8.838932 -1.900708
