16  
    
  C     5.273009  5.661574 -4.323568
  C     6.542472  5.321194 -3.673170
  C     5.438287  9.402217 -4.166197
  C     6.646961  8.935624 -3.571404
  N     7.596415  5.221478 -4.481886
  N     5.360043  5.897055 -5.637219
  N     4.807768  5.633701 -1.763779
  N     7.610075  8.680735 -4.443264
  N     5.463136  9.483173 -5.526921
  N     4.934165  9.338805 -1.641389
  S     6.931660  5.512925 -6.013915
  S     4.036123  6.032872 -3.176272
  S     6.393418  5.214915 -1.925457
  S     6.979494  9.065537 -5.986277
  S     4.143961  9.592643 -3.081894
  S     6.511919  8.787441 -1.850488
