16  
    
  C     5.424276  6.057678 -4.328386
  C     6.600284  5.489951 -3.598272
  C     5.717164  9.720634 -4.246606
  C     6.785042  9.025386 -3.546834
  N     7.608478  5.208562 -4.412066
  N     5.690290  6.307455 -5.584050
  N     4.678537  5.677512 -1.918872
  N     7.796721  8.704235 -4.390348
  N     5.898333  9.927841 -5.573869
  N     5.175894  9.561702 -1.724062
  S     7.218489  5.655805 -5.967901
  S     4.054604  6.259572 -3.396181
  S     6.259527  5.212548 -1.906468
  S     7.406908  9.243027 -5.849789
  S     4.413926  9.923769 -3.120007
  S     6.632162  8.822832 -1.840293
