16  
    
  C     5.466976  5.970080 -4.488639
  C     6.685836  5.534002 -3.897707
  C     5.407893  9.867975 -4.544046
  C     6.563222  9.285229 -3.901272
  N     7.693418  5.257147 -4.719551
  N     5.597957  6.186675 -5.817514
  N     5.059430  5.811529 -1.945695
  N     7.632478  9.123045 -4.643343
  N     5.618089 10.110732 -5.808248
  N     4.883857  9.638116 -1.963191
  S     7.069471  5.685126 -6.219835
  S     4.271728  6.356245 -3.330502
  S     6.654838  5.363167 -2.178376
  S     7.197983  9.738707 -6.157079
  S     4.014642  9.964802 -3.437410
  S     6.407916  9.049735 -2.142501
