16  
    
  C     5.539202  5.960763 -4.437141
  C     6.771993  5.684914 -3.677726
  C     5.655701  9.456065 -4.403992
  C     6.862415  9.124398 -3.680352
  N     7.786301  5.468305 -4.533183
  N     5.764384  6.110525 -5.742032
  N     4.823605  5.778112 -1.937000
  N     7.877620  9.068288 -4.549100
  N     5.670245  9.582260 -5.758467
  N     4.942691  9.504341 -1.905862
  S     7.316416  5.713433 -6.124127
  S     4.174659  6.188843 -3.405153
  S     6.532643  5.685410 -1.934505
  S     7.296933  9.361125 -6.066157
  S     4.282627  9.533884 -3.384532
  S     6.608928  9.058787 -1.938785
