16  
    
  C     5.352306  6.176481 -4.479859
  C     6.496692  5.654805 -3.779384
  C     5.506271  9.558410 -4.151671
  C     6.689100  9.119364 -3.449925
  N     7.537373  5.340418 -4.597365
  N     5.538418  6.466990 -5.772207
  N     4.604049  5.870292 -2.011101
  N     7.736451  9.074720 -4.257868
  N     5.615217  9.811953 -5.463372
  N     4.897857  9.432995 -1.678460
  S     7.086511  5.915089 -6.085700
  S     3.963857  6.442301 -3.391674
  S     6.203520  5.505197 -2.082138
  S     7.235956  9.452680 -5.811775
  S     4.152468  9.573475 -3.148556
  S     6.507754  8.903763 -1.779290
