16  
    
  C     5.602876  5.787454 -4.427629
  C     6.765045  5.271752 -3.777592
  C     5.695259  9.547025 -4.236141
  C     6.873526  9.020271 -3.589025
  N     7.849017  5.005164 -4.552259
  N     5.694979  5.874499 -5.753607
  N     4.887898  5.507878 -1.955587
  N     7.921814  8.756391 -4.368287
  N     5.856604  9.655688 -5.547845
  N     5.105430  9.353498 -1.802874
  S     7.245439  5.411242 -6.065438
  S     4.307020  6.260422 -3.320003
  S     6.475357  4.971985 -2.069140
  S     7.338593  9.029453 -5.878096
  S     4.313462  9.785920 -3.175358
  S     6.617792  8.692432 -1.930793
