16  
    
  C     5.391639  6.082473 -4.381654
  C     6.618313  5.746476 -3.791928
  C     5.480511  9.751640 -4.383901
  C     6.674771  9.373584 -3.658056
  N     7.674097  5.720068 -4.604118
  N     5.407984  6.174235 -5.699021
  N     4.888771  5.939757 -1.898134
  N     7.671588  9.120881 -4.491226
  N     5.548187  9.832150 -5.703285
  N     4.900181  9.395158 -1.846842
  S     7.036598  5.844054 -6.145919
  S     4.051287  6.221168 -3.301395
  S     6.553192  5.613011 -2.005543
  S     7.161683  9.422711 -5.986092
  S     4.152090  9.937937 -3.237146
  S     6.473469  8.975881 -1.985039
