16  
    
  C     5.680913  6.108587 -4.530265
  C     6.806780  5.522775 -3.885080
  C     5.584932  9.704019 -4.425417
  C     6.737309  9.179066 -3.732667
  N     7.873618  5.311772 -4.641754
  N     5.782837  6.330087 -5.859952
  N     4.988043  5.834325 -1.999935
  N     7.783082  9.087416 -4.534172
  N     5.814486 10.112386 -5.662952
  N     4.921197  9.342589 -1.960551
  S     7.350416  5.839808 -6.170103
  S     4.279535  6.132534 -3.464422
  S     6.531021  5.435186 -2.119369
  S     7.280578  9.553253 -6.057368
  S     4.227791  9.871637 -3.418823
  S     6.483809  8.950247 -2.007737
