16  
    
  C     5.933475  5.556072 -4.083934
  C     7.035358  4.986393 -3.395996
  C     5.652662  9.662244 -4.248425
  C     6.875356  9.080603 -3.743098
  N     8.126708  4.951234 -4.153443
  N     6.068782  5.797480 -5.388731
  N     5.079353  5.148066 -1.708611
  N     7.926083  9.141729 -4.575670
  N     5.754257  9.994796 -5.532560
  N     5.068333  8.891387 -1.882286
  S     7.680197  5.413679 -5.677547
  S     4.497063  5.843647 -3.104798
  S     6.608757  4.634837 -1.755284
  S     7.341165  9.767191 -6.003566
  S     4.344673  9.736836 -3.110563
  S     6.670204  8.458850 -2.119779
