16  
    
  C     5.580271  6.108582 -4.329000
  C     6.774985  5.625706 -3.680466
  C     5.383537  9.672087 -4.181789
  C     6.673363  9.278146 -3.622069
  N     7.793164  5.416134 -4.494965
  N     5.769496  6.315413 -5.615029
  N     4.950903  5.859366 -1.981291
  N     7.713368  9.222720 -4.469683
  N     5.429609  9.851050 -5.498582
  N     4.864087  9.321666 -1.720815
  S     7.363442  5.957175 -6.018009
  S     4.193173  6.394460 -3.397500
  S     6.492997  5.245816 -2.014535
  S     7.006643  9.462836 -5.936838
  S     4.103389  9.860171 -3.065873
  S     6.526814  9.077146 -1.865527
