16  
    
  C     5.375666  6.162838 -4.410972
  C     6.499555  5.560563 -3.763197
  C     5.560908  9.522915 -4.199060
  C     6.805516  9.071557 -3.557010
  N     7.577068  5.399519 -4.557429
  N     5.560990  6.351889 -5.716017
  N     4.656056  5.870829 -1.977916
  N     7.882541  8.975384 -4.343514
  N     5.741561  9.857849 -5.450166
  N     4.931855  9.418414 -1.742966
  S     7.100121  5.858483 -6.060687
  S     4.010036  6.454272 -3.444507
  S     6.268838  5.478228 -2.031508
  S     7.244047  9.425849 -5.840850
  S     4.147261  9.667298 -3.200790
  S     6.479279  8.919616 -1.794186
