16  
    
  C     5.538892  5.787675 -4.548768
  C     6.753622  5.545077 -3.884005
  C     5.146032  9.421907 -4.478679
  C     6.304261  9.067314 -3.686746
  N     7.861381  5.493949 -4.639384
  N     5.643372  5.870310 -5.884724
  N     4.879688  5.604496 -2.045831
  N     7.353004  8.760860 -4.462526
  N     5.268732  9.347200 -5.789313
  N     4.584712 10.019271 -2.030637
  S     7.269084  5.657875 -6.163727
  S     4.133841  5.952487 -3.484641
  S     6.560077  5.344852 -2.122417
  S     6.828842  9.035842 -6.073895
  S     3.880154 10.208181 -3.514974
  S     6.116762  9.279446 -1.951789
