16  
    
  C     5.122848  5.971858 -4.315393
  C     6.298090  5.650503 -3.602640
  C     5.491533  9.539106 -4.069334
  C     6.719882  9.041155 -3.476273
  N     7.368080  5.553351 -4.389041
  N     5.251485  6.053958 -5.644717
  N     4.479220  5.827300 -1.824625
  N     7.690925  8.728162 -4.272166
  N     5.557111  9.509758 -5.372359
  N     5.254337  9.568400 -1.512641
  S     6.821842  5.664408 -5.922894
  S     3.846033  6.395148 -3.223713
  S     6.104075  5.582705 -1.895829
  S     7.061800  9.010958 -5.818012
  S     4.375856  9.994175 -2.858299
  S     6.680800  8.726882 -1.716040
