16  
    
  C     5.638576  6.035442 -4.455500
  C     6.816917  5.632992 -3.805290
  C     5.643721  9.715615 -4.386758
  C     6.807385  9.165913 -3.707491
  N     7.846831  5.409547 -4.576562
  N     5.828525  6.303746 -5.737713
  N     4.950146  5.894551 -2.045169
  N     7.822239  8.997813 -4.558651
  N     5.725921  9.926952 -5.694957
  N     4.788892  9.372340 -1.995789
  S     7.338048  5.833874 -6.151307
  S     4.221931  6.236158 -3.512713
  S     6.629706  5.483243 -2.079174
  S     7.332652  9.528654 -6.086024
  S     4.180812  9.897861 -3.414564
  S     6.491500  8.960227 -1.975696
