16  
    
  C     5.495985  5.958230 -4.413313
  C     6.682053  5.726496 -3.635697
  C     5.571951  9.650448 -4.344591
  C     6.712161  9.200597 -3.609448
  N     7.776028  5.546237 -4.371723
  N     5.749953  6.041498 -5.706238
  N     4.803847  6.087396 -1.941135
  N     7.830072  8.902669 -4.296471
  N     5.802009  9.628577 -5.676875
  N     4.895878  9.439903 -1.777132
  S     7.375637  5.736747 -5.935224
  S     4.123056  6.348852 -3.495636
  S     6.401266  5.607004 -1.981048
  S     7.436078  9.236778 -5.829773
  S     4.193803  9.737158 -3.288726
  S     6.510135  9.066262 -1.882115
