16  
    
  C     5.528283  6.349119 -4.433347
  C     6.720120  5.802242 -3.730901
  C     5.674087  9.681779 -4.425401
  C     6.875784  9.351479 -3.735429
  N     7.766193  5.605624 -4.541504
  N     5.661659  6.454240 -5.733580
  N     4.870971  6.300370 -1.986463
  N     7.897854  9.319880 -4.556475
  N     5.774159  9.969363 -5.697184
  N     5.023488  9.573923 -1.874912
  S     7.205064  6.025389 -6.057775
  S     4.150199  6.667244 -3.430784
  S     6.485651  5.823104 -2.006111
  S     7.296380  9.538064 -6.142771
  S     4.282290  9.853137 -3.423067
  S     6.635889  9.306963 -1.960160
