16  
    
  C     5.477949  6.030150 -4.224233
  C     6.602038  5.294932 -3.678357
  C     5.757193  9.865245 -4.447788
  C     6.776396  9.088292 -3.797991
  N     7.558674  4.918109 -4.546947
  N     5.601865  6.314041 -5.523580
  N     4.972785  5.891240 -1.669382
  N     7.825240  8.905604 -4.586981
  N     6.023954 10.313618 -5.684839
  N     4.686375  9.146685 -2.257798
  S     7.029186  5.636530 -5.932637
  S     4.168515  6.223730 -3.091318
  S     6.462145  5.050495 -1.916531
  S     7.478693  9.686828 -6.071390
  S     4.190559  9.963822 -3.621600
  S     6.294711  8.730032 -2.171975
