16  
    
  C     5.587216  5.930167 -4.411684
  C     6.859705  5.493395 -3.844772
  C     5.727469  9.391297 -4.290911
  C     6.997237  9.001400 -3.668800
  N     7.911068  5.446621 -4.712412
  N     5.625354  6.111983 -5.750734
  N     5.155574  5.566976 -1.826566
  N     8.004128  8.952581 -4.495889
  N     5.834295  9.635786 -5.590361
  N     5.246218  9.158313 -1.757001
  S     7.213523  5.964863 -6.135787
  S     4.321915  6.139985 -3.184246
  S     6.707175  5.140238 -2.159517
  S     7.366832  9.396039 -6.023670
  S     4.439134  9.476584 -3.142981
  S     6.877504  8.691901 -1.890911
