16  
    
  C     5.597114  6.074867 -4.395167
  C     6.690176  5.418457 -3.720835
  C     5.620121  9.513671 -4.298352
  C     6.815255  9.128858 -3.661129
  N     7.803152  5.324713 -4.471960
  N     5.777217  6.296855 -5.706269
  N     4.850311  5.701057 -1.917443
  N     7.855586  8.965229 -4.493229
  N     5.677598  9.675469 -5.620966
  N     5.180977  9.387126 -1.690280
  S     7.303315  5.834196 -5.995747
  S     4.243830  6.459438 -3.297084
  S     6.397377  5.059671 -1.974061
  S     7.272353  9.320522 -6.017944
  S     4.411072  9.817653 -3.090937
  S     6.804503  8.831230 -1.928379
