16  
    
  C     5.621879  5.626962 -4.439553
  C     6.878995  5.265733 -3.790416
  C     5.747045  9.549730 -4.000368
  C     6.951835  8.986905 -3.445525
  N     7.922815  5.176275 -4.603547
  N     5.725043  5.811863 -5.728556
  N     5.132115  5.477699 -1.916490
  N     7.933780  8.838539 -4.339231
  N     5.801908  9.865955 -5.291362
  N     5.316684  8.790941 -1.527010
  S     7.301492  5.558758 -6.149605
  S     4.297943  5.878841 -3.306619
  S     6.810850  5.202613 -2.018080
  S     7.379307  9.390795 -5.804417
  S     4.540005  9.620288 -2.724921
  S     6.900470  8.453221 -1.799077
