16  
    
  C     5.724632  5.843723 -4.378695
  C     7.002466  5.439398 -3.892078
  C     5.784919  9.384606 -4.015027
  C     7.023638  8.838441 -3.535472
  N     7.971154  5.437706 -4.827364
  N     5.778369  6.235324 -5.661943
  N     5.264313  5.185767 -2.036498
  N     7.875365  8.646291 -4.510759
  N     5.759595  9.742348 -5.305950
  N     5.473502  8.853384 -1.493090
  S     7.260280  5.840833 -6.233211
  S     4.375702  5.794719 -3.309590
  S     6.877513  4.854955 -2.184729
  S     7.213504  9.304782 -5.893379
  S     4.583083  9.427281 -2.754019
  S     7.013803  8.364215 -1.839376
