16  
    
  C     5.385639  5.957186 -4.345441
  C     6.676724  5.577438 -3.789382
  C     5.567287  9.402402 -4.483330
  C     6.825358  9.117565 -3.787059
  N     7.624904  5.498204 -4.715130
  N     5.446314  6.150597 -5.660129
  N     4.965278  5.916493 -1.814387
  N     7.843369  8.958399 -4.638745
  N     5.627666  9.473787 -5.804629
  N     4.879921  9.082965 -2.022906
  S     6.996801  5.863770 -6.183746
  S     4.188429  6.260978 -3.191533
  S     6.541822  5.421005 -2.080483
  S     7.247146  9.269796 -6.150639
  S     4.187376  9.245144 -3.459071
  S     6.578306  8.792822 -2.090386
