16  
    
  C     5.436862  6.053645 -4.399488
  C     6.700896  5.859088 -3.775828
  C     5.503100  9.720212 -4.269744
  C     6.722016  9.256779 -3.682888
  N     7.734244  5.633335 -4.617283
  N     5.493153  6.076867 -5.741920
  N     4.964732  5.856669 -1.853296
  N     7.774076  9.153401 -4.465352
  N     5.568755  9.841374 -5.540396
  N     4.924669  9.515248 -1.803558
  S     7.052732  5.846779 -6.121494
  S     4.106937  6.228931 -3.253810
  S     6.551607  5.553462 -2.095995
  S     7.082840  9.438528 -6.017300
  S     4.153730  9.882872 -3.216101
  S     6.503067  8.923447 -2.009089
