16  
    
  C     5.602456  5.827229 -4.221474
  C     6.869031  5.320085 -3.641304
  C     5.583784  9.471092 -4.387479
  C     6.836412  9.158669 -3.788973
  N     7.867287  5.187693 -4.514109
  N     5.765797  6.022757 -5.512235
  N     4.987944  5.334944 -1.769880
  N     7.868033  9.029268 -4.657473
  N     5.634673  9.486844 -5.720836
  N     5.189818  9.305353 -1.849897
  S     7.297043  5.707844 -5.958394
  S     4.252258  5.957774 -3.164851
  S     6.686243  4.939211 -1.890144
  S     7.275084  9.172388 -6.139150
  S     4.338679  9.858859 -3.173405
  S     6.781867  8.945465 -2.127236
