16  
    
  C     5.542361  5.696901 -4.348527
  C     6.837666  5.328385 -3.719466
  C     5.534018  9.479718 -4.345189
  C     6.782720  9.112231 -3.705404
  N     7.910765  5.433117 -4.495489
  N     5.654504  6.037239 -5.620151
  N     5.081308  5.306241 -1.863957
  N     7.810846  9.029590 -4.558132
  N     5.545976  9.613537 -5.673412
  N     5.115543  9.473303 -1.781495
  S     7.255663  5.768579 -6.030640
  S     4.286733  5.743882 -3.241514
  S     6.674362  5.002030 -2.007606
  S     7.136188  9.347044 -6.102461
  S     4.300654  9.723121 -3.194222
  S     6.739236  8.986247 -1.951508
