16  
    
  C     5.550589  5.788690 -4.361332
  C     6.788577  5.292158 -3.829692
  C     5.285383  9.946639 -4.654319
  C     6.410787  9.315365 -4.042699
  N     7.803249  5.115933 -4.635644
  N     5.623013  5.941970 -5.675517
  N     5.192531  5.532291 -1.848214
  N     7.391307  8.856098 -4.842415
  N     5.399847  9.937194 -5.984945
  N     4.867474  9.761255 -2.052477
  S     7.144854  5.562653 -6.197946
  S     4.373549  6.058464 -3.175363
  S     6.729591  4.964122 -2.156341
  S     6.923056  9.312966 -6.356078
  S     4.130660 10.373131 -3.507187
  S     6.347615  9.093306 -2.310259
