16  
    
  C     5.590355  5.767183 -4.355662
  C     6.913579  5.421945 -3.778725
  C     5.568115  9.597826 -4.295049
  C     6.882092  9.280111 -3.800027
  N     7.858500  5.307726 -4.706971
  N     5.583584  5.828196 -5.688317
  N     5.197266  5.634328 -1.840347
  N     7.852742  9.187669 -4.690723
  N     5.579510  9.772041 -5.606792
  N     5.276454  9.267243 -1.782492
  S     7.134263  5.637023 -6.203203
  S     4.321035  5.959926 -3.231873
  S     6.827088  5.339894 -2.094387
  S     7.185597  9.532856 -6.097646
  S     4.354684  9.648289 -3.103773
  S     6.852197  8.832035 -2.116959
