16  
    
  C     5.360302  6.320150 -4.458861
  C     6.457440  5.788598 -3.719739
  C     5.485778 10.005172 -4.217435
  C     6.748017  9.749458 -3.606909
  N     7.537862  5.655101 -4.496108
  N     5.472817  6.444147 -5.799117
  N     4.486502  6.043348 -2.077757
  N     7.751913  9.754814 -4.469234
  N     5.501319 10.315119 -5.500966
  N     4.995902  9.642331 -1.653666
  S     7.091487  6.075258 -6.023316
  S     3.967349  6.738898 -3.514594
  S     6.074684  5.576325 -2.021826
  S     7.080182 10.186232 -5.948648
  S     4.063736  9.880893 -3.070605
  S     6.620754  9.407821 -1.897163
