16  
    
  C     5.836027  5.515139 -3.986116
  C     7.086992  5.179475 -3.369609
  C     5.489598  9.363050 -4.211446
  C     6.621612  8.774971 -3.542653
  N     8.005239  4.983765 -4.305459
  N     5.832428  5.615451 -5.319285
  N     5.368523  5.182736 -1.494767
  N     7.635327  8.502547 -4.335188
  N     5.647712  9.515367 -5.523315
  N     4.756935  9.293887 -1.743781
  S     7.410417  5.360280 -5.787248
  S     4.489152  5.527057 -2.873771
  S     7.038871  4.853242 -1.620950
  S     7.185573  8.870486 -5.872853
  S     4.160315  9.790073 -3.244536
  S     6.187010  8.405660 -1.823600
