16  
    
  C     5.432886  6.037412 -4.144565
  C     6.674706  5.670685 -3.627404
  C     5.694566  9.682032 -4.391588
  C     6.841539  9.245779 -3.654933
  N     7.667988  5.521298 -4.491954
  N     5.441928  6.261229 -5.449797
  N     5.014767  5.719735 -1.608996
  N     7.880083  9.049991 -4.485347
  N     5.786487  9.706009 -5.721892
  N     4.912610  9.421920 -1.963690
  S     6.985858  5.811107 -5.995999
  S     4.138214  6.184437 -3.008865
  S     6.595795  5.257454 -1.917540
  S     7.339032  9.286363 -6.076735
  S     4.260334  9.907475 -3.415013
  S     6.525849  9.063767 -1.928338
