16  
    
  C     5.305023  6.189655 -4.577142
  C     6.612096  5.819027 -4.045056
  C     5.659880  9.429367 -4.063634
  C     6.911034  8.932288 -3.488500
  N     7.619678  5.771632 -4.916652
  N     5.338768  6.442565 -5.922466
  N     4.976115  5.736303 -2.074206
  N     7.882433  8.856481 -4.415982
  N     5.823661  9.803381 -5.329855
  N     5.180489  8.881875 -1.602071
  S     6.893618  6.243799 -6.481973
  S     4.061141  6.181228 -3.402817
  S     6.593975  5.546882 -2.315354
  S     7.355011  9.464398 -5.835506
  S     4.310281  9.365486 -2.952203
  S     6.829796  8.645143 -1.809882
