16  
    
  C     5.584808  5.598722 -4.549540
  C     6.895878  5.476457 -3.922288
  C     5.390491  9.688038 -4.196469
  C     6.637004  9.304325 -3.588065
  N     7.903002  5.586256 -4.795269
  N     5.553279  5.889623 -5.841760
  N     5.108458  5.415148 -2.038643
  N     7.675711  9.186320 -4.380282
  N     5.515405  9.974916 -5.511457
  N     4.882350  9.200287 -1.724250
  S     7.155319  5.877085 -6.306321
  S     4.275753  5.450963 -3.495660
  S     6.737334  5.235242 -2.255732
  S     7.059227  9.675764 -5.904265
  S     4.070987  9.689072 -3.053156
  S     6.527183  8.927657 -1.911425
