16  
    
  C     5.411545  6.057596 -4.204937
  C     6.606775  5.428561 -3.674026
  C     5.500629  9.600581 -4.283913
  C     6.736409  9.055234 -3.652391
  N     7.594064  5.195231 -4.534914
  N     5.530889  6.349620 -5.491101
  N     4.911983  5.542472 -1.705400
  N     7.740372  8.883105 -4.488892
  N     5.656661  9.850443 -5.532850
  N     4.799320  9.322643 -1.832272
  S     7.030240  5.764825 -6.007484
  S     4.154710  6.249666 -3.047971
  S     6.510094  5.206166 -1.965832
  S     7.193400  9.485686 -6.011652
  S     4.047040  9.649445 -3.279983
  S     6.428649  8.801112 -1.942372
