16  
    
  C     5.723499  5.318061 -4.261966
  C     6.950024  4.924763 -3.612232
  C     5.683284  9.483228 -4.433820
  C     6.818381  8.923486 -3.747247
  N     8.017567  4.753900 -4.419242
  N     5.909547  5.593403 -5.547483
  N     5.194442  5.330030 -1.736903
  N     7.857911  8.703202 -4.535496
  N     5.896038  9.793840 -5.707644
  N     4.860467  9.116277 -1.993520
  S     7.475871  5.053991 -5.954126
  S     4.350910  5.562151 -3.212137
  S     6.769436  4.898717 -1.827002
  S     7.471418  9.391184 -6.032335
  S     4.279477  9.665478 -3.463593
  S     6.460241  8.714283 -2.052324
