16  
    
  C     5.138463  5.271673 -4.133467
  C     6.341017  4.781405 -3.440522
  C     5.399439  9.309955 -4.281409
  C     6.626690  8.914525 -3.659384
  N     7.330301  4.687146 -4.317483
  N     5.280012  5.489138 -5.439207
  N     4.533537  5.080234 -1.598460
  N     7.639833  8.755944 -4.515258
  N     5.500313  9.454261 -5.630234
  N     4.861860  9.429282 -1.781690
  S     6.827960  5.014506 -5.854626
  S     3.766844  5.579233 -3.031928
  S     6.210684  4.694562 -1.698128
  S     7.026980  9.187123 -6.024203
  S     4.092413  9.620697 -3.227008
  S     6.496640  9.032645 -1.863003
