16  
    
  C     5.558558  5.773617 -4.418367
  C     6.820582  5.331679 -3.849397
  C     5.451387  9.894371 -4.630120
  C     6.560734  9.221676 -4.026672
  N     7.740240  5.198365 -4.808238
  N     5.548126  6.016828 -5.696531
  N     5.198667  5.555559 -1.858137
  N     7.489323  8.878687 -4.906897
  N     5.467966 10.026100 -5.962667
  N     4.903731  9.838705 -2.115104
  S     7.106534  5.601113 -6.215573
  S     4.333279  6.097596 -3.166331
  S     6.700826  4.955864 -2.133755
  S     6.872383  9.300015 -6.392014
  S     4.163770 10.376439 -3.466679
  S     6.433626  9.075101 -2.337958
