16  
    
  C     5.357668  5.951719 -4.258961
  C     6.626365  5.466858 -3.638896
  C     5.432097  9.599836 -4.443228
  C     6.650468  9.173975 -3.802107
  N     7.580822  5.346065 -4.543157
  N     5.418840  6.242560 -5.561080
  N     4.964596  5.663218 -1.659333
  N     7.705846  8.899398 -4.529880
  N     5.657507  9.692649 -5.769588
  N     5.042946  9.729091 -1.875551
  S     7.028744  5.925170 -5.989593
  S     4.104824  6.063901 -3.073145
  S     6.589053  5.364035 -1.930587
  S     7.198205  9.223946 -6.077025
  S     4.175366  9.692999 -3.282412
  S     6.622299  9.198556 -2.061551
