16  
    
  C     5.843460  5.733617 -4.055297
  C     6.922412  5.068226 -3.406597
  C     5.639722  9.588485 -4.222591
  C     6.871248  9.023953 -3.715936
  N     7.943947  4.820407 -4.202263
  N     6.092140  6.095941 -5.322986
  N     5.156205  5.128341 -1.591613
  N     7.865739  9.115378 -4.591812
  N     5.723268 10.129277 -5.450144
  N     5.162698  8.898564 -1.810019
  S     7.631974  5.594030 -5.638444
  S     4.411249  5.798500 -2.993176
  S     6.743898  4.583729 -1.758407
  S     7.251073  9.819407 -5.935448
  S     4.387023  9.709452 -3.080758
  S     6.730945  8.434795 -2.057371
