16  
    
  C     5.604742  6.155962 -4.416877
  C     6.796947  5.778237 -3.714898
  C     5.660008  9.647130 -4.385463
  C     6.891912  9.226024 -3.743790
  N     7.803229  5.591364 -4.547470
  N     5.708869  6.199408 -5.719540
  N     4.915432  6.032535 -2.007800
  N     7.905235  8.906825 -4.583087
  N     5.688672  9.666564 -5.703704
  N     4.926376  9.637797 -1.947734
  S     7.282928  5.806904 -6.044727
  S     4.201675  6.512513 -3.431017
  S     6.574959  5.682976 -1.987367
  S     7.287298  9.335421 -6.095262
  S     4.255538  9.870847 -3.381665
  S     6.521575  9.026377 -1.988606
