16  
    
  C     5.123375  6.146187 -4.304987
  C     6.363621  5.777707 -3.581574
  C     5.652521  9.577195 -4.075264
  C     6.832454  9.000179 -3.482806
  N     7.442561  5.512736 -4.350335
  N     5.291742  6.113949 -5.632480
  N     4.474694  5.832240 -1.828271
  N     7.744807  8.706582 -4.395006
  N     5.644087  9.669005 -5.407175
  N     5.186746  9.512719 -1.450525
  S     6.896152  5.708186 -5.941616
  S     3.766945  6.483470 -3.256327
  S     6.101620  5.595803 -1.860335
  S     7.128713  9.011364 -5.877315
  S     4.385124  9.951671 -2.861590
  S     6.702425  8.846356 -1.717311
