16  
    
  C     5.637233  5.749569 -4.275053
  C     6.930967  5.222872 -3.764695
  C     5.795934  9.624945 -4.505987
  C     6.969254  9.155354 -3.832569
  N     7.889754  5.308100 -4.674101
  N     5.784240  6.158813 -5.528011
  N     5.331771  5.217169 -1.779995
  N     8.048780  9.244292 -4.662499
  N     5.877598 10.011857 -5.786497
  N     5.164695  9.224874 -1.943054
  S     7.281496  5.750406 -6.118240
  S     4.399310  5.651598 -3.073964
  S     6.879106  4.675334 -2.116582
  S     7.541543  9.882308 -6.077800
  S     4.522316  9.901529 -3.312596
  S     6.750832  8.753448 -2.178556
