16  
    
  C     5.172571  6.328096 -4.332319
  C     6.265751  5.731536 -3.655535
  C     5.825031  9.594748 -4.189700
  C     6.995021  9.064192 -3.535465
  N     7.366997  5.480591 -4.367882
  N     5.325960  6.479839 -5.649142
  N     4.420245  6.038191 -1.860683
  N     7.964226  8.898085 -4.441530
  N     5.886818  9.775323 -5.545902
  N     5.433874  9.574171 -1.670958
  S     6.864428  5.977817 -5.891548
  S     3.874232  6.722725 -3.278253
  S     5.918147  5.386399 -1.946561
  S     7.386724  9.216930 -5.996063
  S     4.594116  9.941098 -3.016098
  S     6.913816  8.859883 -1.842273
