16  
    
  C     5.205228  6.230201 -4.378771
  C     6.338577  5.627535 -3.609284
  C     5.617835  9.653621 -4.164409
  C     6.781373  9.015701 -3.562021
  N     7.408527  5.366630 -4.385793
  N     5.447855  6.523741 -5.670064
  N     4.556178  6.178478 -1.842700
  N     7.707828  8.647423 -4.434804
  N     5.727320  9.797355 -5.480604
  N     5.182062  9.490812 -1.635865
  S     6.948349  5.838255 -5.945528
  S     3.868028  6.560040 -3.335482
  S     6.100660  5.596398 -1.905587
  S     7.219147  9.182527 -5.884372
  S     4.354185  9.847906 -3.052933
  S     6.829310  8.951318 -1.793502
