16  
    
  C     5.621536  5.837939 -4.324640
  C     6.846066  5.465388 -3.666709
  C     5.793680  9.478908 -4.456380
  C     6.992431  9.078007 -3.743353
  N     7.829730  5.309493 -4.530791
  N     5.705812  6.075631 -5.611797
  N     5.005356  5.776318 -1.779567
  N     8.046915  9.008173 -4.513471
  N     5.926012  9.725505 -5.785035
  N     5.064357  9.299068 -1.966391
  S     7.272538  5.727820 -6.017507
  S     4.263311  6.119451 -3.245240
  S     6.574715  5.324113 -1.924524
  S     7.515079  9.287234 -6.114223
  S     4.395354  9.514201 -3.425992
  S     6.720152  9.083130 -2.017829
