16  
    
  C     5.765801  5.763088 -4.469323
  C     6.962906  5.349405 -3.820067
  C     5.536232  9.449647 -4.217623
  C     6.841742  9.148389 -3.724032
  N     7.974081  5.121119 -4.616181
  N     5.941989  5.909758 -5.754853
  N     5.212900  5.869287 -2.017818
  N     7.823903  9.134227 -4.652547
  N     5.563928  9.794630 -5.524328
  N     5.055235  8.939446 -1.775364
  S     7.469945  5.411752 -6.189250
  S     4.422584  6.114130 -3.482626
  S     6.765689  5.306783 -2.130876
  S     7.097286  9.709234 -6.011765
  S     4.194189  9.381498 -3.136046
  S     6.720668  8.938154 -2.020407
