16  
    
  C     5.401247  6.037853 -4.148369
  C     6.671896  5.573565 -3.591050
  C     5.652918  9.622896 -4.492299
  C     6.763645  9.048344 -3.740073
  N     7.632923  5.350053 -4.478538
  N     5.466666  6.214112 -5.467093
  N     5.006440  5.667444 -1.641562
  N     7.909132  8.959493 -4.435009
  N     5.981411  9.868272 -5.743964
  N     4.846365  9.313323 -2.091555
  S     7.018770  5.775047 -5.955443
  S     4.204833  6.339537 -2.974155
  S     6.581440  5.232674 -1.924514
  S     7.550595  9.485608 -5.968691
  S     4.199782  9.946089 -3.462231
  S     6.457057  8.912806 -2.083339
