16  
    
  C     5.738591  5.852092 -4.376347
  C     7.001184  5.421905 -3.872121
  C     5.739570  9.349550 -4.034218
  C     6.976113  8.782915 -3.566539
  N     7.942581  5.444075 -4.838711
  N     5.744223  6.239133 -5.649890
  N     5.262366  5.174320 -2.038435
  N     7.887723  8.628774 -4.533975
  N     5.724039  9.717246 -5.310857
  N     5.488848  8.843580 -1.466328
  S     7.271012  5.883546 -6.246284
  S     4.416032  5.793551 -3.310890
  S     6.878528  4.833492 -2.195907
  S     7.244049  9.304197 -5.910682
  S     4.585035  9.418243 -2.748460
  S     7.013273  8.372224 -1.849155
