16  
    
  C     5.336304  5.736406 -4.493140
  C     6.573870  5.380782 -3.757844
  C     5.314079  9.502364 -4.334532
  C     6.595430  9.156484 -3.730757
  N     7.688995  5.214081 -4.505451
  N     5.590965  5.860871 -5.799402
  N     4.727663  5.779481 -1.962014
  N     7.578096  8.981496 -4.608704
  N     5.297335  9.431548 -5.675717
  N     4.813851  9.300908 -1.877090
  S     7.166312  5.544048 -6.042407
  S     4.020267  6.138427 -3.455107
  S     6.290999  5.225969 -2.039211
  S     6.887131  9.024030 -6.102699
  S     3.964416  9.719376 -3.220507
  S     6.392090  8.932102 -2.075627
