16  
    
  C     5.106855  6.321691 -4.529251
  C     6.358979  5.925100 -3.924425
  C     5.373327  9.582822 -4.179335
  C     6.647205  9.265020 -3.621300
  N     7.407910  5.988693 -4.779341
  N     5.145266  6.535259 -5.844868
  N     4.593515  6.009970 -2.008128
  N     7.694180  9.314709 -4.464845
  N     5.400864  9.995776 -5.488884
  N     5.023333  9.222381 -1.657570
  S     6.779490  6.337661 -6.184681
  S     3.765707  6.377818 -3.427499
  S     6.215198  5.757533 -2.239084
  S     7.013103  9.650091 -5.948587
  S     4.115318  9.501930 -2.943209
  S     6.667465  8.976928 -1.970531
