16  
    
  C     5.752105  5.686623 -4.212521
  C     6.953642  5.249239 -3.703461
  C     5.770967  9.716411 -4.387937
  C     7.029765  9.184623 -3.857463
  N     7.931642  5.254705 -4.599609
  N     5.762590  5.916306 -5.519985
  N     5.294288  5.180347 -1.786793
  N     8.037082  9.050031 -4.679127
  N     5.927576 10.091948 -5.626758
  N     5.228570  9.251839 -1.964395
  S     7.318842  5.826674 -6.008449
  S     4.394112  5.655856 -3.093362
  S     6.890471  4.860812 -2.022140
  S     7.455070  9.635425 -6.134083
  S     4.398479  9.766091 -3.306893
  S     6.822596  8.759631 -2.146355
