16  
    
  C     5.665544  5.729731 -4.321193
  C     6.832623  5.164242 -3.826133
  C     5.760419  9.873257 -4.466650
  C     6.947526  9.382516 -3.819892
  N     7.761046  5.025488 -4.749758
  N     5.717834  6.117384 -5.577474
  N     5.285862  5.353108 -1.807233
  N     8.045183  9.358501 -4.633564
  N     5.886989 10.183117 -5.752244
  N     5.028674  8.898697 -2.181675
  S     7.239093  5.744494 -6.103144
  S     4.457012  5.800025 -3.127920
  S     6.831600  4.830293 -2.127064
  S     7.492287  9.788734 -6.115775
  S     4.332828  9.763183 -3.469874
  S     6.717528  8.796354 -2.195104
