16  
    
  C     5.566803  6.674252 -4.599004
  C     6.706389  6.107861 -3.927810
  C     5.645445 10.141644 -4.489290
  C     6.747361  9.579744 -3.842937
  N     7.749318  5.852333 -4.701989
  N     5.636740  6.719313 -5.905394
  N     4.999335  6.501412 -2.040025
  N     7.740882  9.167071 -4.661413
  N     5.821104 10.290561 -5.829260
  N     4.877413  9.986538 -2.082427
  S     7.218563  6.203755 -6.222397
  S     4.323935  7.089328 -3.426479
  S     6.541192  5.879704 -2.222535
  S     7.294969  9.670291 -6.173804
  S     4.261681 10.539939 -3.481343
  S     6.509630  9.560937 -2.137492
