16  
    
  C     5.499312  5.664531 -4.248878
  C     6.633434  5.304061 -3.469290
  C     5.828614  8.942574 -3.997024
  C     7.077234  8.497479 -3.388280
  N     7.691933  4.953168 -4.224413
  N     5.600405  5.466787 -5.569558
  N     4.826533  5.775405 -1.762241
  N     8.110794  8.510809 -4.209722
  N     5.860766  9.176199 -5.299447
  N     5.322537  8.478323 -1.480498
  S     7.179061  5.091541 -5.813986
  S     4.059650  5.963763 -3.277592
  S     6.330074  5.061980 -1.733663
  S     7.438460  8.974313 -5.728386
  S     4.606819  9.123550 -2.817196
  S     6.986004  8.226728 -1.621192
