16  
    
  C     5.512686  5.122848 -4.167332
  C     6.890208  5.095752 -3.690919
  C     5.411712  9.203185 -4.543381
  C     6.576992  8.760022 -3.819590
  N     7.857863  5.147921 -4.609162
  N     5.469076  5.158962 -5.494236
  N     5.225198  5.217659 -1.667775
  N     7.624784  8.477713 -4.555913
  N     5.582177  9.309511 -5.859672
  N     4.813384  9.095497 -2.034557
  S     7.025583  5.105660 -6.072809
  S     4.231553  5.256854 -3.056438
  S     6.857538  5.038004 -1.898866
  S     7.182322  8.928232 -6.134547
  S     4.078232  9.563722 -3.448899
  S     6.394864  8.736730 -2.145660
