16  
    
  C     5.560889  6.050091 -4.285800
  C     6.722659  5.470335 -3.581769
  C     5.851837  9.617765 -4.196205
  C     7.078977  9.085493 -3.642222
  N     7.766526  5.261104 -4.371358
  N     5.700209  6.220750 -5.595626
  N     5.068361  6.070321 -1.720485
  N     8.072033  8.878146 -4.511914
  N     5.892123  9.763695 -5.527755
  N     5.364151  9.553006 -1.716880
  S     7.229788  5.640904 -5.902275
  S     4.333862  6.587166 -3.151688
  S     6.525165  5.278557 -1.829014
  S     7.488657  9.391424 -5.990449
  S     4.590117  9.995627 -3.087935
  S     6.943304  9.048383 -1.893480
