16  
    
  C     5.713653  6.248614 -4.185530
  C     6.885950  5.626431 -3.671181
  C     5.856076  9.534567 -4.211937
  C     7.032123  8.941836 -3.644522
  N     7.809052  5.409587 -4.585665
  N     5.786771  6.524438 -5.450900
  N     5.145289  5.708120 -1.750502
  N     7.979350  8.708590 -4.558842
  N     5.881356  9.741207 -5.546563
  N     5.482691  9.301572 -1.696804
  S     7.298557  6.050715 -6.028060
  S     4.364525  6.238554 -3.081972
  S     6.730703  5.271352 -2.018539
  S     7.411497  9.152830 -6.023906
  S     4.604728  9.709153 -3.068005
  S     7.042608  8.803125 -1.883398
