16  
    
  C     5.435960  6.085082 -4.439392
  C     6.610989  5.565592 -3.805812
  C     5.463812  9.792439 -4.395807
  C     6.702929  9.312214 -3.860066
  N     7.574041  5.190944 -4.659108
  N     5.489899  6.313215 -5.756895
  N     4.812737  5.809251 -1.923689
  N     7.735809  9.272299 -4.692130
  N     5.549843 10.007932 -5.678868
  N     4.879204  9.542672 -1.923141
  S     6.968469  5.717733 -6.159196
  S     4.116341  6.380611 -3.327465
  S     6.377139  5.332266 -2.081184
  S     7.054195  9.634220 -6.201377
  S     4.126569  9.945646 -3.322045
  S     6.512231  9.027429 -2.108295
