16  
    
  C     5.636681  5.658884 -4.073371
  C     6.885154  5.292408 -3.545500
  C     5.543930  8.997030 -4.194805
  C     6.847780  8.974898 -3.521645
  N     7.829418  4.974472 -4.440469
  N     5.596121  5.806944 -5.395506
  N     5.208320  5.467118 -1.572703
  N     7.892142  8.987770 -4.357025
  N     5.549120  9.089544 -5.500842
  N     5.077175  8.988599 -1.651228
  S     7.086049  5.300012 -5.911001
  S     4.375706  5.800871 -2.948834
  S     6.850505  5.311860 -1.831648
  S     7.177983  9.089917 -5.934124
  S     4.191096  8.961648 -3.067512
  S     6.747547  8.855658 -1.787113
