16  
    
  C     5.625229  6.183672 -4.404086
  C     6.759036  5.552608 -3.751322
  C     5.494854  9.689663 -4.146643
  C     6.727600  9.304944 -3.527503
  N     7.853649  5.472318 -4.518007
  N     5.762406  6.388129 -5.714646
  N     4.899863  5.830630 -1.906470
  N     7.699065  9.107057 -4.452420
  N     5.480416  9.837324 -5.471200
  N     4.880623  9.354051 -1.709222
  S     7.279707  5.972014 -6.027947
  S     4.234460  6.367475 -3.324061
  S     6.493253  5.196470 -2.077701
  S     6.974396  9.449274 -5.967764
  S     4.133086  9.912966 -3.079820
  S     6.481757  9.083090 -1.863329
