16  
    
  C     5.636455  5.754818 -4.271143
  C     6.928802  5.218978 -3.770222
  C     5.798364  9.622229 -4.509451
  C     6.974409  9.160131 -3.829220
  N     7.889907  5.304042 -4.678104
  N     5.787230  6.157862 -5.525603
  N     5.330863  5.221043 -1.785166
  N     8.047320  9.244649 -4.654909
  N     5.880251 10.011728 -5.787127
  N     5.162028  9.215571 -1.948799
  S     7.281701  5.750199 -6.121787
  S     4.394816  5.653380 -3.071389
  S     6.879672  4.674623 -2.118114
  S     7.541511  9.886380 -6.079694
  S     4.519279  9.903161 -3.310322
  S     6.747593  8.755352 -2.182353
