16  
    
  C     5.840760  6.081961 -4.348443
  C     7.000144  5.549959 -3.667928
  C     5.717138  9.487094 -4.384115
  C     6.915830  8.964453 -3.768294
  N     8.049920  5.360584 -4.448252
  N     6.105276  6.352942 -5.617983
  N     5.085904  5.687918 -1.962527
  N     7.936887  8.674963 -4.582595
  N     5.928033  9.669519 -5.655647
  N     5.174808  9.280906 -1.896415
  S     7.605298  5.758680 -6.017515
  S     4.414595  6.097491 -3.453247
  S     6.707219  5.378781 -2.017908
  S     7.455665  9.241167 -6.041414
  S     4.401290  9.883799 -3.268772
  S     6.770800  8.921324 -2.071535
