16  
    
  C     5.581925  5.343664 -4.186124
  C     6.877434  5.211113 -3.544254
  C     5.682194  9.332922 -4.185684
  C     6.973409  9.155246 -3.563134
  N     7.925185  5.251758 -4.406730
  N     5.709977  5.381663 -5.520125
  N     5.095061  5.804662 -1.756757
  N     7.998234  9.182104 -4.422583
  N     5.727285  9.512563 -5.487365
  N     5.121367  8.837816 -1.722185
  S     7.287901  5.312647 -5.914068
  S     4.193058  5.778054 -3.150967
  S     6.760897  5.428573 -1.828894
  S     7.303779  9.391277 -5.913984
  S     4.302901  9.063281 -3.168833
  S     6.764962  8.879712 -1.821098
