16  
    
  C     5.614433  5.895206 -4.257112
  C     6.727455  5.173550 -3.745243
  C     5.672498  9.315909 -4.377430
  C     6.870424  8.798099 -3.748058
  N     7.645722  4.797173 -4.616379
  N     5.650482  6.030913 -5.585263
  N     4.962369  5.370034 -1.825726
  N     7.854717  8.653079 -4.619834
  N     5.758141  9.490185 -5.706838
  N     5.090093  9.108452 -1.873867
  S     7.089619  5.371209 -6.088292
  S     4.307460  6.038604 -3.194374
  S     6.584048  5.011345 -2.019798
  S     7.293332  8.981243 -6.109518
  S     4.265804  9.429336 -3.306591
  S     6.668742  8.668403 -2.018950
