16  
    
  C     5.825247  5.501320 -4.248890
  C     6.951709  5.023925 -3.527037
  C     5.665711  9.594070 -4.382209
  C     6.822776  8.951135 -3.778135
  N     8.056802  4.809064 -4.232929
  N     6.012724  5.484143 -5.563901
  N     5.127652  5.279808 -1.753044
  N     7.900700  8.901663 -4.573052
  N     5.886327  9.941972 -5.641534
  N     4.997789  9.078388 -1.995213
  S     7.619105  5.147931 -5.780904
  S     4.424573  5.689293 -3.200121
  S     6.697268  4.765509 -1.849195
  S     7.416225  9.498171 -6.019744
  S     4.256661  9.687033 -3.378145
  S     6.574055  8.612393 -2.046219
