16  
    
  C     5.766672  5.645837 -4.264925
  C     6.940697  5.152498 -3.636174
  C     5.467767  9.421004 -4.507168
  C     6.611969  8.857293 -3.826265
  N     7.971910  5.043133 -4.469571
  N     5.908470  5.833280 -5.567136
  N     5.190754  5.386463 -1.795016
  N     7.610753  8.548622 -4.641543
  N     5.666171  9.646691 -5.787841
  N     4.783977  9.207553 -1.980308
  S     7.431999  5.343700 -6.035863
  S     4.451502  5.995530 -3.154719
  S     6.779408  4.960224 -1.943047
  S     7.258175  9.057510 -6.141230
  S     4.118947  9.621068 -3.440639
  S     6.355398  8.585361 -2.079270
