16  
    
  C     5.542837  5.961897 -4.438907
  C     6.770669  5.682923 -3.677913
  C     5.651964  9.457628 -4.404855
  C     6.862122  9.127724 -3.690035
  N     7.788552  5.467136 -4.530366
  N     5.763081  6.113391 -5.746006
  N     4.824918  5.773851 -1.938311
  N     7.879344  9.066272 -4.551282
  N     5.667764  9.574162 -5.759888
  N     4.939981  9.502039 -1.909968
  S     7.309248  5.714007 -6.125803
  S     4.174855  6.186005 -3.400109
  S     6.535937  5.685692 -1.937670
  S     7.292167  9.366153 -6.068541
  S     4.289970  9.529650 -3.386438
  S     6.609647  9.056098 -1.940828
