16  
    
  C     5.604437  5.462973 -4.203940
  C     6.875127  5.310025 -3.561292
  C     5.646888  9.278758 -4.172483
  C     6.914606  9.070445 -3.542599
  N     7.914502  5.163196 -4.360965
  N     5.643328  5.378966 -5.520740
  N     5.167549  5.795812 -1.684565
  N     7.910434  9.099599 -4.426975
  N     5.718265  9.490385 -5.506831
  N     5.128843  8.803483 -1.717053
  S     7.243140  5.286372 -5.889677
  S     4.310583  5.730264 -3.093949
  S     6.760181  5.405711 -1.848515
  S     7.298342  9.379631 -5.908078
  S     4.274069  9.016960 -3.169858
  S     6.791479  8.936905 -1.800349
