16  
    
  C     5.516074  6.330273 -4.428394
  C     6.694381  5.775894 -3.772587
  C     5.549724  9.588979 -4.485538
  C     6.781029  9.169789 -3.797509
  N     7.703947  5.508237 -4.631227
  N     5.674126  6.412592 -5.770485
  N     4.887381  6.142180 -1.927324
  N     7.847962  8.952285 -4.568117
  N     5.749374  9.806793 -5.790822
  N     5.083289  9.563017 -1.936501
  S     7.226527  5.863512 -6.111944
  S     4.142478  6.557563 -3.339086
  S     6.499603  5.838698 -2.007487
  S     7.325348  9.194170 -6.092575
  S     4.274921  9.867995 -3.310531
  S     6.774492  9.121460 -2.028188
