16  
    
  C     5.385756  6.058573 -4.138677
  C     6.670392  5.598112 -3.582315
  C     5.671929  9.611065 -4.484483
  C     6.787605  9.060074 -3.710598
  N     7.625769  5.375571 -4.471999
  N     5.467198  6.200661 -5.451691
  N     5.013820  5.665408 -1.654171
  N     7.906354  8.973064 -4.438468
  N     5.944540  9.853420 -5.747260
  N     4.852980  9.311227 -2.077257
  S     7.019002  5.777240 -5.966054
  S     4.213128  6.329439 -2.973311
  S     6.579290  5.234278 -1.922605
  S     7.541129  9.469257 -5.972044
  S     4.214007  9.949696 -3.460861
  S     6.454748  8.926106 -2.073966
