16  
    
  C     5.498841  6.011248 -4.421333
  C     6.575341  5.390331 -3.702913
  C     5.721631  9.676164 -4.206905
  C     6.952209  9.315867 -3.573700
  N     7.560505  5.057736 -4.491878
  N     5.736913  6.186122 -5.699645
  N     4.909075  5.933054 -1.897959
  N     7.991647  9.034563 -4.380017
  N     5.844871  9.700623 -5.546637
  N     5.140471  9.372445 -1.720322
  S     7.187517  5.437464 -6.082691
  S     4.230793  6.426650 -3.377180
  S     6.473412  5.442471 -1.971475
  S     7.447968  9.234180 -5.903193
  S     4.379394  9.843607 -3.159826
  S     6.796863  9.033234 -1.867947
