16  
    
  C     5.554027  5.794048 -4.495672
  C     6.779091  5.541150 -3.820617
  C     5.085932  9.434941 -4.473582
  C     6.223576  9.002481 -3.725426
  N     7.811277  5.436396 -4.636607
  N     5.666228  5.918313 -5.810679
  N     4.966827  5.637834 -2.039813
  N     7.286494  8.784836 -4.510014
  N     5.225490  9.453981 -5.786905
  N     4.610224 10.009750 -1.955563
  S     7.254347  5.595530 -6.231076
  S     4.214405  5.897978 -3.474085
  S     6.579010  5.320717 -2.088110
  S     6.859086  9.039664 -6.052185
  S     3.872932 10.174176 -3.461495
  S     6.053948  9.267995 -1.957113
