16  
    
  C     5.411574  5.713057 -4.378594
  C     6.645821  5.348629 -3.749133
  C     5.379573 10.006071 -4.583333
  C     6.528767  9.383276 -3.977228
  N     7.648814  5.339584 -4.683202
  N     5.398540  5.950506 -5.690729
  N     4.922733  5.600434 -1.836485
  N     7.550308  9.285820 -4.850529
  N     5.505758 10.417888 -5.884006
  N     4.690639  9.694506 -2.069392
  S     7.003172  5.706124 -6.091187
  S     4.073843  5.658969 -3.278146
  S     6.517287  5.272036 -2.018428
  S     6.944864  9.862834 -6.315178
  S     3.970022 10.258998 -3.544858
  S     6.233185  9.138322 -2.296900
