16  
    
  C     5.849019  5.741297 -4.367402
  C     6.916073  5.114585 -3.729524
  C     5.657041  9.502747 -4.281172
  C     6.858120  9.003921 -3.641543
  N     8.037317  4.924741 -4.457951
  N     6.090333  6.011741 -5.654878
  N     5.094613  5.302692 -1.912166
  N     7.920021  8.996086 -4.427614
  N     5.797873  9.881354 -5.552944
  N     5.019314  8.851698 -1.863004
  S     7.688183  5.586991 -5.916008
  S     4.393442  5.803781 -3.393459
  S     6.623389  4.700108 -2.023791
  S     7.329767  9.507673 -5.999271
  S     4.211043  9.463519 -3.226968
  S     6.536904  8.246956 -2.132825
