16  
    
  C     5.563234  5.855822 -4.095498
  C     6.775584  5.393696 -3.444201
  C     5.453071  8.906231 -4.091544
  C     6.726919  8.614998 -3.466041
  N     7.727460  5.116495 -4.291930
  N     5.536558  5.870559 -5.414375
  N     4.991723  5.529053 -1.598271
  N     7.771888  8.406149 -4.269320
  N     5.482398  8.886512 -5.445900
  N     5.110905  9.007929 -1.520205
  S     7.102098  5.465375 -5.809675
  S     4.243480  5.976259 -2.979136
  S     6.534642  4.875010 -1.786838
  S     7.101599  8.572820 -5.856812
  S     4.228216  9.065427 -2.939240
  S     6.750557  8.709457 -1.724782
