16  
    
  C     5.501305  6.133669 -4.361084
  C     6.661300  5.466247 -3.627964
  C     5.720679  9.556190 -4.181893
  C     6.884964  8.989099 -3.567807
  N     7.729422  5.212061 -4.407724
  N     5.739519  6.213549 -5.670268
  N     4.677763  5.641887 -1.941815
  N     7.912268  8.758254 -4.429179
  N     5.860902  9.850098 -5.472269
  N     5.186152  9.596866 -1.697126
  S     7.258284  5.734058 -5.913833
  S     4.100248  6.337300 -3.331471
  S     6.287824  5.157332 -1.964538
  S     7.329257  9.282471 -5.952213
  S     4.361964  9.929316 -3.150494
  S     6.729645  8.816556 -1.884138
