16  
    
  C     5.604971  6.090986 -4.467909
  C     6.791768  5.782573 -3.753726
  C     5.506804  9.615289 -4.469912
  C     6.673641  9.172639 -3.747209
  N     7.890862  5.593550 -4.445225
  N     5.756505  6.146335 -5.778887
  N     4.937977  5.986788 -1.924153
  N     7.794565  9.106554 -4.447630
  N     5.771996  9.801305 -5.745962
  N     4.972423  9.532025 -1.921207
  S     7.344658  5.802792 -6.113089
  S     4.251318  6.443514 -3.399085
  S     6.532196  5.608238 -2.039007
  S     7.351700  9.317070 -6.050866
  S     4.189200  9.898628 -3.403237
  S     6.541929  8.963544 -2.021163
