16  
    
  C     5.531247  5.299036 -4.075334
  C     6.866741  5.249002 -3.621516
  C     5.555431  9.304464 -4.589913
  C     6.695334  8.806758 -3.872879
  N     7.774876  5.323179 -4.574094
  N     5.429867  5.387264 -5.375438
  N     5.408542  5.197456 -1.514280
  N     7.724314  8.659752 -4.691576
  N     5.690425  9.423798 -5.916948
  N     4.769383  9.170068 -2.155233
  S     6.962509  5.383731 -6.038961
  S     4.383464  5.325627 -2.811852
  S     7.015450  5.104601 -1.908880
  S     7.276636  8.961919 -6.216573
  S     4.244629  9.888632 -3.594625
  S     6.285026  8.642567 -2.172956
