16  
    
  C     5.471034  5.999110 -4.203509
  C     6.650519  5.459027 -3.637953
  C     5.614302  9.651748 -4.512853
  C     6.707586  9.051417 -3.829733
  N     7.657631  5.271876 -4.496469
  N     5.481146  6.254490 -5.517447
  N     4.972113  5.700026 -1.624049
  N     7.884199  8.905655 -4.435862
  N     6.031311  9.958934 -5.754369
  N     4.817944  9.307216 -2.109790
  S     7.008927  5.766331 -5.929131
  S     4.180809  6.354171 -2.970216
  S     6.585518  5.220428 -1.911332
  S     7.587065  9.534020 -5.960626
  S     4.182836  9.929487 -3.484760
  S     6.448222  8.869997 -2.102412
