16  
    
  C     5.639787  5.837124 -3.921693
  C     6.860333  5.197866 -3.451443
  C     5.661469  9.599486 -3.930750
  C     6.884986  9.069628 -3.427264
  N     7.886400  5.214562 -4.294130
  N     5.807583  6.376963 -5.123245
  N     5.084391  4.938017 -1.532433
  N     7.825043  8.911768 -4.362604
  N     5.676013  9.856654 -5.251551
  N     5.028755  8.921566 -1.568121
  S     7.343248  5.882757 -5.656385
  S     4.364213  5.852448 -2.722979
  S     6.670911  4.571691 -1.884963
  S     7.200214  9.450483 -5.779698
  S     4.318315  9.706505 -2.841987
  S     6.652176  8.514847 -1.770944
