16  
    
  C     5.464116  6.002533 -4.208363
  C     6.646605  5.431572 -3.640090
  C     5.617198  9.657389 -4.525721
  C     6.703703  9.052452 -3.823738
  N     7.658585  5.257467 -4.500292
  N     5.491164  6.258751 -5.520529
  N     4.967764  5.709905 -1.626738
  N     7.871545  8.896010 -4.443053
  N     6.024221  9.984872 -5.759511
  N     4.813297  9.301977 -2.107776
  S     7.008870  5.764135 -5.930770
  S     4.180816  6.352469 -2.971083
  S     6.583478  5.217390 -1.906915
  S     7.595051  9.542414 -5.959650
  S     4.184458  9.926209 -3.492122
  S     6.442074  8.862557 -2.107528
