16  
    
  C     5.678141  5.855638 -3.919092
  C     6.857438  5.183686 -3.434200
  C     5.625078  9.612770 -3.934546
  C     6.855122  9.045141 -3.424524
  N     7.899369  5.253668 -4.278305
  N     5.772291  6.349469 -5.159684
  N     5.057246  4.980461 -1.526443
  N     7.846491  8.905488 -4.310469
  N     5.675578  9.813865 -5.234793
  N     5.021193  8.945314 -1.556215
  S     7.353699  5.875260 -5.651565
  S     4.354472  5.854499 -2.726506
  S     6.654791  4.585869 -1.883542
  S     7.215843  9.421925 -5.787185
  S     4.299221  9.713787 -2.820476
  S     6.639354  8.514612 -1.744866
