16  
    
  C     5.651182  5.939704 -4.309347
  C     6.856239  5.463206 -3.680809
  C     5.898460  9.400500 -4.188038
  C     7.112956  8.954018 -3.558552
  N     7.947777  5.411279 -4.456382
  N     5.783926  6.184808 -5.625482
  N     5.012794  5.596078 -1.871434
  N     8.148854  8.768283 -4.379109
  N     5.971244  9.431965 -5.484748
  N     5.300570  9.211034 -1.731243
  S     7.364268  5.856569 -5.955430
  S     4.333607  6.306696 -3.232763
  S     6.564875  5.169199 -2.042441
  S     7.577224  9.044290 -5.908940
  S     4.529287  9.588912 -3.155119
  S     6.880139  8.661426 -1.866703
