16  
    
  C     5.625572  5.700783 -4.256991
  C     6.775952  5.176872 -3.598322
  C     5.416316  9.104721 -4.189674
  C     6.651779  8.765183 -3.516436
  N     7.740157  4.761658 -4.424753
  N     5.736854  5.825103 -5.565707
  N     4.983670  5.666177 -1.784441
  N     7.733421  8.653636 -4.282178
  N     5.552803  9.340930 -5.488914
  N     4.816540  8.998920 -1.700594
  S     7.258553  5.316001 -6.006318
  S     4.265578  6.153535 -3.171784
  S     6.490884  4.841770 -1.927534
  S     7.161848  9.000227 -5.850112
  S     4.122745  9.501323 -3.100193
  S     6.402493  8.570060 -1.810876
