16  
    
  C     5.479369  6.122414 -4.174345
  C     6.677403  5.643485 -3.591562
  C     5.655750  9.612307 -4.430150
  C     6.822133  9.205929 -3.714734
  N     7.657970  5.492308 -4.471592
  N     5.440311  6.191828 -5.521555
  N     5.000763  5.689926 -1.666966
  N     7.927269  9.005398 -4.459072
  N     5.828158  9.775213 -5.726863
  N     4.833082  9.322630 -2.008677
  S     6.981086  5.785991 -5.965214
  S     4.194336  6.271887 -2.950723
  S     6.586450  5.230547 -1.891782
  S     7.461224  9.394544 -6.009707
  S     4.324669  9.941856 -3.466069
  S     6.459204  8.981878 -1.974715
