16  
    
  C     5.579598  5.285165 -4.166963
  C     6.803910  4.984282 -3.464130
  C     5.381500  9.376256 -4.398958
  C     6.563837  8.789183 -3.807695
  N     7.822806  5.007983 -4.321981
  N     5.593052  5.402976 -5.485963
  N     5.003840  5.196774 -1.655597
  N     7.553794  8.443048 -4.625034
  N     5.411932  9.345194 -5.718298
  N     4.918784  9.056434 -1.838694
  S     7.162435  5.113560 -5.905277
  S     4.217957  5.275305 -3.111751
  S     6.644064  5.009308 -1.727308
  S     6.931470  8.795625 -6.180740
  S     4.138654  9.647636 -3.228773
  S     6.479508  8.534572 -2.081651
