16  
    
  C     5.399640  6.005215 -4.281307
  C     6.615813  5.474414 -3.661616
  C     5.540190  9.636567 -4.246115
  C     6.659391  9.078791 -3.605939
  N     7.598018  5.206596 -4.510249
  N     5.516387  6.306416 -5.583807
  N     4.874728  5.601205 -1.734370
  N     7.725358  8.875474 -4.416804
  N     5.663875  9.872949 -5.578028
  N     4.865956  9.354210 -1.859532
  S     6.967202  5.709906 -5.976211
  S     4.143946  6.263798 -3.043925
  S     6.484670  5.199355 -1.971322
  S     7.227273  9.469898 -5.924459
  S     4.138319  9.677649 -3.306669
  S     6.371520  8.774907 -1.889886
