16  
    
  C     5.166084  6.232534 -4.597460
  C     6.406129  5.803760 -3.964640
  C     5.431707  9.617289 -4.051466
  C     6.739418  9.290418 -3.496459
  N     7.478876  5.659577 -4.731730
  N     5.310617  6.487448 -5.869003
  N     4.662894  5.859644 -2.049679
  N     7.760587  9.400470 -4.330011
  N     5.559961  9.817066 -5.347008
  N     5.079609  8.988745 -1.559016
  S     6.872112  6.192483 -6.305564
  S     3.917706  6.460873 -3.398470
  S     6.270914  5.540820 -2.251399
  S     7.140328  9.870169 -5.757178
  S     4.163365  9.456137 -2.897908
  S     6.667940  8.741294 -1.859707
