16  
    
  C     5.648847  5.739013 -4.080144
  C     6.867306  5.170292 -3.532272
  C     5.872460  9.178484 -3.905607
  C     7.110975  8.745667 -3.328128
  N     7.844636  4.952021 -4.417791
  N     5.689667  5.810456 -5.406748
  N     5.191413  5.348053 -1.551379
  N     8.128484  8.761590 -4.208395
  N     5.959401  9.477726 -5.199531
  N     5.286519  9.091214 -1.355482
  S     7.216318  5.483805 -5.848957
  S     4.396324  5.977087 -2.859619
  S     6.786974  4.890088 -1.828459
  S     7.462095  9.233994 -5.701575
  S     4.476787  9.308437 -2.818263
  S     6.902909  8.737367 -1.557337
