16  
    
  C     5.349694  6.039865 -4.394649
  C     6.527461  5.510101 -3.850270
  C     5.426399  9.213134 -4.378619
  C     6.620381  8.888061 -3.685657
  N     7.569652  5.260782 -4.670952
  N     5.427958  6.381506 -5.699499
  N     4.767679  5.557044 -1.873091
  N     7.675530  8.699369 -4.462714
  N     5.582476  9.274132 -5.714465
  N     4.965050  9.284661 -1.821977
  S     6.974748  5.851118 -6.143792
  S     4.031263  6.188568 -3.184476
  S     6.389133  5.365681 -2.081039
  S     7.216202  9.137624 -5.989934
  S     4.051081  9.183243 -3.227017
  S     6.577293  8.775537 -2.011660
