16  
    
  C     5.525807  5.744693 -4.384795
  C     6.792975  5.293968 -3.764021
  C     5.498206  9.464383 -4.656148
  C     6.727968  9.282507 -3.883886
  N     7.781180  5.089043 -4.632268
  N     5.624863  5.792913 -5.710829
  N     5.109944  5.720491 -1.841545
  N     7.758352  9.321429 -4.737760
  N     5.560136  9.588511 -5.968359
  N     4.857105  9.330938 -2.180108
  S     7.189287  5.526599 -6.117607
  S     4.338665  6.063175 -3.230238
  S     6.682365  5.217126 -2.038502
  S     7.233548  9.478992 -6.270552
  S     4.060041  9.667114 -3.611727
  S     6.473851  8.974963 -2.205871
