16  
    
  C     5.519107  6.123201 -4.405876
  C     6.748270  5.581120 -3.910491
  C     5.474411  9.829173 -4.242311
  C     6.602813  9.148319 -3.683449
  N     7.632447  5.384596 -4.848929
  N     5.563744  6.536079 -5.660455
  N     5.086816  5.613066 -1.964626
  N     7.645131  8.845902 -4.526783
  N     5.599775 10.045572 -5.561084
  N     4.964595  9.858356 -1.757724
  S     6.999092  6.004318 -6.268707
  S     4.355079  6.363607 -3.190480
  S     6.686789  5.287199 -2.207979
  S     7.125826  9.515542 -5.974425
  S     4.168184 10.136600 -3.172234
  S     6.450482  9.040286 -1.896699
