16  
    
  C     5.531185  6.331841 -4.424691
  C     6.716959  5.817150 -3.724212
  C     5.679990  9.684146 -4.423133
  C     6.889048  9.345616 -3.730626
  N     7.766987  5.623663 -4.557088
  N     5.649694  6.462700 -5.739311
  N     4.873275  6.304174 -1.980603
  N     7.906510  9.320409 -4.553918
  N     5.756205  9.972173 -5.694426
  N     5.014914  9.562540 -1.865880
  S     7.206644  6.028152 -6.048926
  S     4.148905  6.660191 -3.424515
  S     6.473037  5.821237 -2.007195
  S     7.290014  9.539957 -6.141248
  S     4.281170  9.848155 -3.418141
  S     6.631324  9.301673 -1.972577
