16  
    
  C     5.568054  5.992453 -4.529891
  C     6.813119  5.459607 -3.866374
  C     5.542466  9.769556 -4.379716
  C     6.730244  9.262366 -3.738702
  N     7.897918  5.369469 -4.602744
  N     5.733898  6.170392 -5.838705
  N     5.025377  5.742643 -2.052799
  N     7.745501  9.114526 -4.557001
  N     5.753669 10.075634 -5.648779
  N     4.964331  9.280133 -1.897115
  S     7.307331  5.749448 -6.138106
  S     4.221193  6.158423 -3.484606
  S     6.574891  5.194606 -2.182225
  S     7.315607  9.696470 -6.053120
  S     4.183566  9.910041 -3.205259
  S     6.586938  8.855733 -2.068078
