16  
    
  C     5.554627  5.318305 -4.158421
  C     6.813420  5.080294 -3.515082
  C     5.377211  9.269709 -4.374164
  C     6.575899  8.752427 -3.763336
  N     7.835493  4.988762 -4.363731
  N     5.594977  5.363014 -5.487823
  N     4.943541  5.208269 -1.670695
  N     7.519226  8.496254 -4.655852
  N     5.422701  9.351141 -5.715352
  N     4.898478  9.043206 -1.844738
  S     7.219180  5.127934 -5.855153
  S     4.249615  5.411149 -3.107822
  S     6.601152  4.940933 -1.729236
  S     6.930101  8.794080 -6.158850
  S     4.156291  9.703040 -3.160291
  S     6.473667  8.505567 -2.062158
