16  
    
  C     5.582007  6.400009 -4.545100
  C     6.607065  5.574103 -3.868893
  C     5.774633  9.417540 -4.419670
  C     6.980391  9.013540 -3.745385
  N     7.678788  5.243286 -4.548744
  N     5.938000  6.630313 -5.769251
  N     4.576916  5.844582 -2.294981
  N     8.077257  9.035153 -4.519171
  N     5.872271  9.625478 -5.736734
  N     5.073536  9.214975 -1.958067
  S     7.486269  5.956597 -6.093496
  S     4.052157  6.624814 -3.657182
  S     6.059972  5.052039 -2.284578
  S     7.441389  9.461063 -6.099679
  S     4.406718  9.721391 -3.425998
  S     6.674640  8.746258 -2.052363
