16  
    
  C     5.591308  5.659071 -4.096463
  C     6.804925  5.197934 -3.521313
  C     5.532311  8.979317 -4.149441
  C     6.821955  8.956596 -3.529475
  N     7.725138  4.929651 -4.463544
  N     5.540767  5.743100 -5.451919
  N     5.204269  5.376032 -1.573199
  N     7.794591  8.987179 -4.445195
  N     5.562206  8.956203 -5.461542
  N     5.081446  9.104083 -1.649295
  S     7.103355  5.444375 -5.888758
  S     4.398881  5.917035 -2.924982
  S     6.817190  5.254206 -1.786593
  S     7.121747  8.945193 -5.904831
  S     4.227787  8.974853 -3.064714
  S     6.706688  8.759265 -1.747390
