16  
    
  C     5.677956  5.842598 -4.115266
  C     6.764867  5.179579 -3.365902
  C     5.523996  9.479863 -4.024940
  C     6.625799  8.814127 -3.386715
  N     7.803524  4.847382 -4.121016
  N     5.940809  5.984091 -5.429902
  N     4.921555  5.390476 -1.646586
  N     7.701437  8.619020 -4.132736
  N     5.719828  9.744293 -5.304691
  N     4.853712  9.145960 -1.557484
  S     7.476725  5.478069 -5.656574
  S     4.226290  5.932720 -3.124925
  S     6.579867  5.103676 -1.678836
  S     7.212477  9.153190 -5.663081
  S     4.162182  9.596328 -2.979967
  S     6.406486  8.584766 -1.658286
