16  
    
  C     5.729225  5.808188 -4.563912
  C     6.897671  5.336013 -3.844890
  C     5.533421  9.399618 -4.246828
  C     6.850778  9.102596 -3.715441
  N     7.962929  5.127604 -4.653945
  N     5.871105  5.994602 -5.882611
  N     5.142646  5.735342 -2.009916
  N     7.828429  9.167087 -4.573929
  N     5.499417  9.800151 -5.486392
  N     5.115038  8.953982 -1.792444
  S     7.407822  5.419806 -6.184504
  S     4.389944  6.076808 -3.457003
  S     6.812576  5.306976 -2.085036
  S     7.114010  9.685439 -5.999324
  S     4.215881  9.368651 -3.156052
  S     6.731179  8.911061 -1.999485
