16  
    
  C     5.632393  5.444996 -4.441420
  C     6.900960  5.137030 -3.705772
  C     5.427818  9.350186 -4.486978
  C     6.620197  8.954054 -3.784547
  N     7.985495  4.953600 -4.452809
  N     5.806449  5.541905 -5.744795
  N     5.144371  5.448367 -1.877135
  N     7.683730  8.747853 -4.553776
  N     5.544990  9.362496 -5.814831
  N     4.853235  9.297408 -1.900426
  S     7.416022  5.245035 -6.021302
  S     4.323973  5.512534 -3.332597
  S     6.752856  5.034940 -1.989592
  S     7.151014  8.989551 -6.142218
  S     4.156210  9.818028 -3.347691
  S     6.425531  8.818032 -2.103987
