16  
    
  C     5.706244  5.909483 -4.136663
  C     6.902115  5.248840 -3.672783
  C     5.734646  9.270810 -4.059922
  C     6.946966  8.870347 -3.408047
  N     7.875701  5.091177 -4.607255
  N     5.794368  6.221662 -5.430880
  N     5.216058  5.206632 -1.699867
  N     7.991730  8.777371 -4.227861
  N     5.853234  9.443084 -5.376202
  N     5.364902  8.843986 -1.503405
  S     7.202849  5.594223 -6.032228
  S     4.419229  5.988706 -2.949051
  S     6.848845  4.805825 -1.945348
  S     7.414505  9.193268 -5.695875
  S     4.463109  9.233251 -2.858253
  S     6.968082  8.514180 -1.771583
