16  
    
  C     5.449188  6.053989 -4.392677
  C     6.692197  5.860913 -3.793168
  C     5.511383  9.709876 -4.260730
  C     6.728489  9.243632 -3.671223
  N     7.725553  5.628532 -4.618591
  N     5.491885  6.068893 -5.725775
  N     4.968669  5.847167 -1.853795
  N     7.780057  9.152143 -4.474710
  N     5.569417  9.847711 -5.545517
  N     4.926296  9.524740 -1.791118
  S     7.064221  5.846372 -6.124881
  S     4.118275  6.230957 -3.250312
  S     6.553618  5.546888 -2.100239
  S     7.081773  9.441720 -6.023909
  S     4.145681  9.878028 -3.212417
  S     6.509921  8.918803 -2.004889
