16  
    
  C     5.543902  5.865846 -4.500150
  C     6.718677  5.352181 -3.787921
  C     5.453047  9.750309 -4.222707
  C     6.655442  9.171504 -3.718200
  N     7.756789  5.071284 -4.599947
  N     5.738810  6.126920 -5.782151
  N     4.888408  5.614436 -2.008763
  N     7.688152  9.053726 -4.530420
  N     5.601155 10.013816 -5.527153
  N     5.139113  9.221733 -1.623602
  S     7.278449  5.551210 -6.045821
  S     4.223035  6.158852 -3.482612
  S     6.452552  5.118699 -2.138528
  S     7.129901  9.467368 -6.002173
  S     4.245275  9.801288 -2.965722
  S     6.690744  8.746320 -2.004889
