16  
    
  C     5.252186  6.266412 -4.493948
  C     6.392042  5.793147 -3.748503
  C     5.377141 10.000672 -4.165945
  C     6.649548  9.652433 -3.607158
  N     7.515005  5.606379 -4.433651
  N     5.543277  6.491016 -5.770317
  N     4.479416  6.066571 -2.077392
  N     7.670195  9.737796 -4.420112
  N     5.457424 10.348036 -5.422345
  N     5.016450  9.499166 -1.676590
  S     7.081441  6.064563 -6.046001
  S     3.854871  6.613258 -3.507904
  S     6.080852  5.489151 -2.084831
  S     7.072808 10.097879 -5.899927
  S     4.096246  9.756752 -3.026064
  S     6.690926  9.356179 -1.889525
