16  
    
  C     5.506087  5.869580 -4.476694
  C     6.778388  5.555355 -3.859639
  C     5.600880  9.412281 -4.114234
  C     6.835164  9.039037 -3.508053
  N     7.821723  5.379060 -4.653453
  N     5.583761  5.920107 -5.808804
  N     4.945549  5.671266 -1.997922
  N     7.878134  8.805835 -4.353171
  N     5.704679  9.603303 -5.434299
  N     5.050835  8.922877 -1.578790
  S     7.176895  5.720783 -6.169289
  S     4.127365  6.025721 -3.389773
  S     6.618572  5.457594 -2.140051
  S     7.283573  9.056667 -5.866013
  S     4.255699  9.341976 -3.006421
  S     6.691590  8.791597 -1.780460
