16  
    
  C     5.630458  5.512326 -4.034546
  C     6.817502  5.056128 -3.409927
  C     5.805609  9.455286 -3.921673
  C     7.023045  9.084892 -3.253777
  N     7.827247  4.977328 -4.259014
  N     5.652359  5.698106 -5.347864
  N     5.200789  5.513130 -1.502040
  N     8.073115  8.862683 -4.031726
  N     5.951118  9.405247 -5.255766
  N     5.345114  9.153982 -1.351206
  S     7.192176  5.288861 -5.733451
  S     4.384891  5.775566 -2.911830
  S     6.777047  4.990694 -1.686807
  S     7.495636  9.007348 -5.574085
  S     4.494401  9.468800 -2.770712
  S     7.023988  8.840054 -1.542793
