16  
    
  C     5.868534  5.480850 -4.112597
  C     7.164467  5.151861 -3.565717
  C     5.415390  9.316604 -4.330542
  C     6.543147  8.724805 -3.650612
  N     8.094751  5.129899 -4.496398
  N     5.865391  5.781006 -5.406535
  N     5.443873  5.214067 -1.592083
  N     7.559097  8.323279 -4.424383
  N     5.642964  9.432352 -5.640232
  N     4.728298  9.095162 -1.899999
  S     7.418568  5.471831 -5.934255
  S     4.603416  5.593282 -2.918529
  S     7.032559  4.917870 -1.888043
  S     7.176836  8.748398 -5.943154
  S     4.177200  9.903593 -3.272740
  S     6.331131  8.564831 -1.935269
