16  
    
  C     5.632058  5.757740 -4.340282
  C     6.858398  5.231008 -3.799460
  C     5.244360  9.828572 -4.674472
  C     6.388359  9.245137 -3.973108
  N     7.834801  5.051052 -4.695741
  N     5.680963  5.919374 -5.703271
  N     5.195119  5.486165 -1.819110
  N     7.382949  8.901444 -4.815809
  N     5.385322  9.929990 -6.005479
  N     4.679007  9.752709 -2.166548
  S     7.250805  5.472578 -6.098751
  S     4.332923  6.021576 -3.179152
  S     6.773807  5.006345 -2.069213
  S     6.913146  9.323576 -6.338610
  S     4.010670 10.374170 -3.477219
  S     6.252148  9.122460 -2.272322
