16  
    
  C     5.442151  6.011096 -4.207078
  C     6.639844  5.392420 -3.638679
  C     5.627006  9.666816 -4.546979
  C     6.701935  9.052792 -3.802803
  N     7.654483  5.236097 -4.504922
  N     5.508848  6.263217 -5.519103
  N     4.965337  5.725581 -1.633998
  N     7.849334  8.883393 -4.458164
  N     6.007924 10.026376 -5.768528
  N     4.807065  9.291916 -2.103539
  S     7.011633  5.760308 -5.938768
  S     4.184144  6.347275 -2.974570
  S     6.577641  5.212621 -1.900347
  S     7.605593  9.554644 -5.958617
  S     4.189667  9.921523 -3.504292
  S     6.430074  8.852225 -2.115839
