16  
    
  C     5.426273  5.997239 -4.272164
  C     6.604668  5.476988 -3.676028
  C     5.522832  9.637113 -4.236480
  C     6.673291  9.076075 -3.625852
  N     7.608837  5.195958 -4.504664
  N     5.522032  6.327789 -5.576455
  N     4.881952  5.583710 -1.722620
  N     7.737140  8.867446 -4.427545
  N     5.661542  9.860928 -5.564331
  N     4.856920  9.348024 -1.860407
  S     6.971986  5.722549 -5.977227
  S     4.145536  6.262220 -3.039469
  S     6.489659  5.202536 -1.973719
  S     7.217884  9.478571 -5.949779
  S     4.120416  9.668750 -3.304991
  S     6.380206  8.781210 -1.896869
