16  
    
  C     5.691977  5.869805 -3.915604
  C     6.848355  5.195781 -3.440477
  C     5.607599  9.612506 -3.950102
  C     6.832047  9.021656 -3.415102
  N     7.907075  5.258118 -4.251621
  N     5.765212  6.316114 -5.177861
  N     5.053561  5.011295 -1.530334
  N     7.852973  8.903467 -4.271184
  N     5.677849  9.795064 -5.239244
  N     5.025514  8.959137 -1.541496
  S     7.354094  5.879233 -5.656546
  S     4.346859  5.858758 -2.740029
  S     6.647154  4.589171 -1.864983
  S     7.222284  9.403152 -5.784618
  S     4.286219  9.718844 -2.809267
  S     6.631083  8.515858 -1.730505
