16  
    
  C     5.591718  5.956426 -4.475561
  C     6.639245  5.280184 -3.787449
  C     5.493799  9.613012 -4.183147
  C     6.709781  9.071845 -3.656705
  N     7.689194  4.975454 -4.526548
  N     5.791763  6.120813 -5.762093
  N     4.826125  5.671439 -2.037053
  N     7.689002  8.931236 -4.516435
  N     5.555868  9.980866 -5.454446
  N     5.133658  9.241239 -1.674587
  S     7.299076  5.549029 -6.127002
  S     4.158890  6.126900 -3.452106
  S     6.425121  5.123561 -2.051191
  S     7.033008  9.390194 -5.986741
  S     4.248287  9.734380 -2.952020
  S     6.687744  8.767089 -1.959512
