16  
    
  C     5.461203  5.653958 -4.415911
  C     6.651842  5.140503 -3.758654
  C     5.755171  9.091819 -4.299754
  C     6.962161  8.795504 -3.558979
  N     7.646638  4.945706 -4.627091
  N     5.520712  5.854880 -5.724979
  N     5.049972  5.728984 -1.847186
  N     8.042030  8.619396 -4.340028
  N     5.870952  9.077625 -5.610853
  N     5.138610  9.283501 -1.858320
  S     7.073076  5.433877 -6.122094
  S     4.204081  6.091555 -3.235583
  S     6.608941  5.119139 -2.028084
  S     7.433679  8.781451 -5.931164
  S     4.475430  9.512058 -3.327598
  S     6.731310  8.838201 -1.821778
