16  
    
  C     5.636986  5.739164 -4.249391
  C     6.834726  5.319427 -3.630798
  C     5.546684  9.447721 -4.402257
  C     6.821614  9.173765 -3.778584
  N     7.859640  5.298219 -4.509068
  N     5.728717  6.054647 -5.553184
  N     5.018182  5.319168 -1.811467
  N     7.809097  9.044636 -4.615004
  N     5.644139  9.508300 -5.724732
  N     5.211416  9.361593 -1.820899
  S     7.285182  5.723700 -6.001944
  S     4.241116  5.899651 -3.201485
  S     6.704727  4.948121 -1.896003
  S     7.228102  9.225016 -6.120660
  S     4.322682  9.820780 -3.180374
  S     6.771605  8.952256 -2.060234
