16  
    
  C     5.315305  5.903664 -4.305712
  C     6.491979  5.362335 -3.645707
  C     5.621503  9.662239 -4.223540
  C     6.755132  9.077325 -3.491267
  N     7.520057  5.268219 -4.472434
  N     5.440197  6.085264 -5.615382
  N     4.789226  5.814688 -1.808139
  N     7.788216  8.796700 -4.250286
  N     5.860611  9.842397 -5.530175
  N     4.791094  9.278676 -1.770564
  S     7.042462  5.626469 -6.015167
  S     4.031487  6.245375 -3.246053
  S     6.316025  5.290402 -1.967023
  S     7.428842  9.351339 -5.782667
  S     4.289131  9.975734 -3.198108
  S     6.396353  8.764257 -1.818085
