16  
    
  C     5.311261  5.888560 -4.292864
  C     6.539620  5.400683 -3.640465
  C     5.616829  9.662859 -4.237833
  C     6.744700  9.082938 -3.551702
  N     7.535189  5.267289 -4.503401
  N     5.435341  6.080053 -5.594647
  N     4.796272  5.815327 -1.794204
  N     7.817506  8.821106 -4.286361
  N     5.855206  9.829282 -5.512361
  N     4.802275  9.303261 -1.801829
  S     7.015840  5.629474 -6.018889
  S     4.052208  6.252463 -3.217927
  S     6.317191  5.272842 -1.975704
  S     7.444382  9.352670 -5.776876
  S     4.205507  9.953259 -3.165245
  S     6.384434  8.756248 -1.838120
