16  
    
  C     5.489696  6.029151 -4.361677
  C     6.554216  5.427607 -3.668486
  C     5.716520  9.739578 -4.205357
  C     6.790917  9.050599 -3.543044
  N     7.630645  5.161306 -4.406635
  N     5.671298  6.285152 -5.660773
  N     4.622037  5.724043 -1.890791
  N     7.828545  8.644641 -4.322493
  N     5.950657  9.909648 -5.507527
  N     5.026917  9.493703 -1.647565
  S     7.128670  5.649675 -5.937016
  S     4.023590  6.206230 -3.341547
  S     6.237793  5.285388 -1.936940
  S     7.445353  9.253070 -5.862347
  S     4.376643  9.979610 -3.125483
  S     6.567032  8.824373 -1.853345
