16  
    
  C     5.650798  6.094493 -4.196556
  C     6.846655  5.558039 -3.569582
  C     5.776355  9.531499 -4.265778
  C     7.000465  9.106604 -3.645123
  N     7.865017  5.302214 -4.424813
  N     5.717352  6.199698 -5.519704
  N     4.992488  5.813663 -1.718786
  N     8.058176  8.963453 -4.458849
  N     5.930186  9.694095 -5.600497
  N     5.544539  9.703123 -1.666665
  S     7.278094  5.818599 -5.891848
  S     4.396416  6.594080 -3.036332
  S     6.583610  5.333236 -1.870906
  S     7.457138  9.331651 -5.980657
  S     4.636037  9.972183 -3.034159
  S     7.015854  8.879119 -1.924618
