16  
    
  C     5.593018  6.130959 -4.462965
  C     6.800057  5.748794 -3.747706
  C     5.556455  9.602947 -4.435558
  C     6.745480  9.192220 -3.702908
  N     7.923679  5.608000 -4.476185
  N     5.728149  6.149510 -5.771626
  N     4.939762  6.002707 -1.969650
  N     7.800648  9.062433 -4.488223
  N     5.790738  9.755468 -5.741006
  N     4.998032  9.561843 -1.892753
  S     7.323725  5.799793 -6.085678
  S     4.210246  6.476804 -3.408872
  S     6.557823  5.623982 -2.003714
  S     7.322079  9.322638 -6.079656
  S     4.188689  9.896500 -3.420781
  S     6.529306  8.974785 -2.004265
