16  
    
  C     5.642478  6.064664 -4.511014
  C     6.843973  5.567759 -3.822159
  C     5.583350  9.700759 -4.411292
  C     6.764317  9.153717 -3.763830
  N     7.856464  5.361610 -4.690302
  N     5.804540  6.341557 -5.796521
  N     4.947897  5.863535 -2.010153
  N     7.838914  9.066048 -4.565389
  N     5.775917 10.059773 -5.674783
  N     4.897520  9.345987 -1.987990
  S     7.343567  5.830816 -6.128122
  S     4.269315  6.172293 -3.492568
  S     6.571939  5.466080 -2.112789
  S     7.283048  9.534501 -6.062977
  S     4.213444  9.886363 -3.450674
  S     6.474940  8.951827 -1.943685
