16  
    
  C     5.425425  5.618218 -4.341988
  C     6.640414  5.079334 -3.815805
  C     5.758327  9.102045 -4.338163
  C     6.955098  8.773631 -3.606718
  N     7.639614  5.051206 -4.673138
  N     5.482476  5.878687 -5.638469
  N     5.111289  5.704745 -1.836882
  N     8.011187  8.590126 -4.405289
  N     5.865063  9.060871 -5.678186
  N     5.119871  9.272936 -1.831417
  S     7.038588  5.450919 -6.144481
  S     4.251090  6.156444 -3.261338
  S     6.642892  5.035436 -2.032624
  S     7.506629  8.837451 -5.968167
  S     4.410392  9.503288 -3.312701
  S     6.713348  8.777619 -1.900995
