16  
    
  C     5.613406  6.622502 -4.575397
  C     6.791383  6.152536 -3.904978
  C     5.597487 10.197593 -4.609561
  C     6.700197  9.616758 -3.890675
  N     7.795245  5.904423 -4.715169
  N     5.718417  6.672475 -5.855209
  N     5.062828  6.455171 -2.047277
  N     7.698742  9.216445 -4.658840
  N     5.719888 10.203527 -5.972686
  N     4.999296 10.064237 -2.019565
  S     7.252339  6.209762 -6.283517
  S     4.322414  7.079385 -3.412020
  S     6.549924  5.787761 -2.241544
  S     7.284667  9.597941 -6.239125
  S     4.273146 10.545131 -3.482967
  S     6.510436  9.473862 -2.195093
