16  
    
  C     5.799229  5.591525 -4.186939
  C     7.082113  5.215502 -3.637864
  C     5.458113  9.324077 -4.403477
  C     6.514268  8.642349 -3.663543
  N     8.129328  5.084392 -4.484441
  N     5.836503  5.713989 -5.520565
  N     5.451462  5.197440 -1.625652
  N     7.531228  8.313471 -4.434657
  N     5.622284  9.458183 -5.699276
  N     4.768973  9.130007 -1.909571
  S     7.444244  5.509188 -5.988475
  S     4.541199  5.608612 -2.989653
  S     7.096248  4.897061 -1.894758
  S     7.146225  8.743889 -5.995684
  S     4.175928  9.886881 -3.316320
  S     6.376341  8.624997 -1.947768
