16  
    
  C     5.519242  6.046759 -4.345758
  C     6.753231  5.696945 -3.694862
  C     5.664981  9.493326 -4.371561
  C     6.864566  9.110371 -3.736963
  N     7.815823  5.517781 -4.450443
  N     5.591236  6.142837 -5.653105
  N     4.931295  5.894699 -1.903513
  N     7.886215  8.940132 -4.590805
  N     5.755906  9.582790 -5.657459
  N     5.170736  9.387004 -1.845735
  S     7.116345  5.786950 -6.092730
  S     4.207929  6.374614 -3.339756
  S     6.569705  5.549683 -1.933495
  S     7.313727  9.352757 -6.068858
  S     4.310046  9.651124 -3.287772
  S     6.686842  8.868242 -2.003758
