16  
    
  C     5.177579  6.244445 -4.593945
  C     6.412951  5.841170 -3.950660
  C     5.487555  9.591565 -4.051047
  C     6.795517  9.246132 -3.468404
  N     7.458270  5.717735 -4.802750
  N     5.259264  6.468296 -5.932455
  N     4.703419  5.822613 -2.043976
  N     7.793323  9.356344 -4.319677
  N     5.569045  9.828348 -5.377033
  N     5.041688  8.999566 -1.572590
  S     6.885515  6.187692 -6.317568
  S     3.917600  6.475792 -3.367191
  S     6.310519  5.546751 -2.266356
  S     7.160978  9.832126 -5.768748
  S     4.134636  9.409147 -2.873062
  S     6.686846  8.677778 -1.853867
