16  
    
  C     5.646527  5.248747 -4.278193
  C     6.925598  5.022554 -3.687478
  C     5.581628  9.397301 -4.490344
  C     6.742197  8.968934 -3.754737
  N     7.891737  4.804931 -4.588173
  N     5.616379  5.337184 -5.605364
  N     5.279822  5.281486 -1.733911
  N     7.840103  8.749174 -4.457508
  N     5.860472  9.530096 -5.787166
  N     4.784820  9.105275 -2.079119
  S     7.220139  5.063762 -6.046798
  S     4.315719  5.437367 -3.125183
  S     6.871478  4.991916 -1.992557
  S     7.442552  9.104977 -6.011855
  S     4.172535  9.689036 -3.550639
  S     6.389545  8.699941 -2.089536
