16  
    
  C     5.357121  5.767325 -4.480238
  C     6.649336  5.502861 -3.856771
  C     5.297921  9.943233 -4.720282
  C     6.448313  9.516317 -4.002031
  N     7.650940  5.468931 -4.672792
  N     5.421774  6.041007 -5.790836
  N     4.942669  5.616698 -1.911969
  N     7.522172  9.487759 -4.786103
  N     5.426026 10.134598 -6.032892
  N     4.761213  9.632878 -2.129537
  S     7.042878  5.882294 -6.163198
  S     4.009042  5.855928 -3.287107
  S     6.511571  5.158515 -2.124124
  S     7.054104  9.981415 -6.279357
  S     3.922576 10.104623 -3.567682
  S     6.317154  9.194286 -2.328232
