16  
    
  C     5.433275  5.989604 -4.381498
  C     6.672847  5.558123 -3.797149
  C     5.504563  9.399919 -4.499174
  C     6.758965  9.177784 -3.842651
  N     7.664233  5.529667 -4.717954
  N     5.420387  6.145513 -5.705014
  N     4.991615  5.910832 -1.825043
  N     7.823161  9.015114 -4.627371
  N     5.655740  9.496038 -5.839611
  N     4.945342  9.096318 -2.004996
  S     7.041895  5.838265 -6.186505
  S     4.174403  6.247776 -3.188583
  S     6.558578  5.445535 -2.043240
  S     7.279299  9.274424 -6.138719
  S     4.225141  9.273250 -3.434249
  S     6.578567  8.809227 -2.124751
