16  
    
  C     5.821940  5.556190 -4.157586
  C     7.095035  5.205358 -3.638553
  C     5.447488  9.312173 -4.376596
  C     6.531621  8.658096 -3.654194
  N     8.127203  5.092754 -4.485504
  N     5.839779  5.734030 -5.475636
  N     5.440791  5.205496 -1.614518
  N     7.522261  8.321911 -4.428210
  N     5.612495  9.461074 -5.686226
  N     4.756929  9.109155 -1.909774
  S     7.441174  5.501768 -5.975459
  S     4.563818  5.604380 -2.964810
  S     7.081098  4.903626 -1.894328
  S     7.164687  8.738432 -5.977016
  S     4.171953  9.899650 -3.305871
  S     6.369149  8.606037 -1.945860
