16  
    
  C     5.528194  5.945393 -4.399375
  C     6.780703  5.528555 -3.724820
  C     5.741793  9.450459 -4.402870
  C     7.012165  9.131136 -3.756555
  N     7.867302  5.435272 -4.441870
  N     5.697259  6.008999 -5.697014
  N     4.964820  5.569936 -1.897817
  N     8.038095  8.958878 -4.551355
  N     5.951369  9.650477 -5.710963
  N     5.187085  9.353295 -1.915784
  S     7.303078  5.736303 -6.074875
  S     4.225171  6.104076 -3.256828
  S     6.653145  5.260959 -2.000179
  S     7.520957  9.331849 -6.056034
  S     4.399796  9.513421 -3.378287
  S     6.847036  9.089545 -2.023290
