16  
    
  C     5.615715  5.609021 -4.431092
  C     6.821890  5.371869 -3.675943
  C     5.679497  9.439875 -4.076252
  C     6.867750  8.832818 -3.541686
  N     7.844203  5.130831 -4.461992
  N     5.691736  5.445104 -5.753124
  N     5.057837  5.733380 -1.852113
  N     7.896850  8.784318 -4.391708
  N     5.768905  9.876527 -5.326226
  N     5.175126  9.099259 -1.624524
  S     7.361844  5.167012 -6.069799
  S     4.263775  5.842990 -3.329457
  S     6.672994  5.270652 -1.949482
  S     7.361909  9.469615 -5.801140
  S     4.401954  9.610444 -3.031715
  S     6.735135  8.616611 -1.797135
