16  
    
  C     5.220478  6.267367 -4.518348
  C     6.375909  5.722942 -3.856290
  C     5.437322  9.701991 -4.048978
  C     6.737145  9.420729 -3.560919
  N     7.469367  5.488248 -4.640880
  N     5.431462  6.604813 -5.786971
  N     4.566871  6.070491 -2.073091
  N     7.738303  9.627113 -4.409225
  N     5.486426 10.065862 -5.337197
  N     5.044009  9.137211 -1.605141
  S     6.960185  6.144860 -6.165392
  S     3.830491  6.387739 -3.540049
  S     6.137670  5.475599 -2.123298
  S     7.023283  9.991924 -5.858865
  S     4.116987  9.621011 -2.957644
  S     6.687565  9.031889 -1.777203
