16  
    
  C     5.610069  5.747818 -4.321457
  C     6.756213  5.153839 -3.697805
  C     5.513401  9.231011 -4.411950
  C     6.745674  8.826694 -3.765878
  N     7.652416  4.723614 -4.586627
  N     5.692496  5.989628 -5.645211
  N     4.963873  5.444784 -1.796216
  N     7.813378  8.653666 -4.504711
  N     5.721362  9.495321 -5.707359
  N     5.056940  9.160138 -1.818183
  S     7.166553  5.406496 -6.091049
  S     4.257661  6.014315 -3.195050
  S     6.563280  5.019799 -1.908043
  S     7.293789  9.045461 -6.062820
  S     4.279452  9.472534 -3.241968
  S     6.650295  8.628062 -2.041215
