16  
    
  C     5.503522  6.260544 -4.406406
  C     6.696670  5.913425 -3.737537
  C     5.643047  9.734222 -4.361814
  C     6.900657  9.358183 -3.727710
  N     7.725501  5.717701 -4.562916
  N     5.620824  6.484941 -5.725504
  N     4.870012  6.312403 -1.934508
  N     7.965736  9.288269 -4.579781
  N     5.692260  9.941077 -5.698633
  N     4.957535  9.516871 -1.893413
  S     7.208055  6.050895 -6.050349
  S     4.149640  6.620577 -3.393966
  S     6.414138  5.812843 -2.015821
  S     7.273508  9.561918 -6.117455
  S     4.273140  9.815787 -3.359959
  S     6.628547  9.266162 -2.032089
