16  
    
  C     5.626369  6.449642 -4.507987
  C     6.821129  5.930670 -3.925744
  C     5.492525 10.006675 -4.633030
  C     6.717666  9.546175 -4.022950
  N     7.789198  5.663419 -4.795360
  N     5.739909  6.710285 -5.814688
  N     5.034326  6.196537 -2.053033
  N     7.769249  9.289680 -4.887332
  N     5.555021 10.056262 -5.978588
  N     4.965995 10.013520 -2.131707
  S     7.285232  6.181337 -6.224570
  S     4.341019  6.750210 -3.428828
  S     6.598058  5.652009 -2.170512
  S     7.084397  9.712748 -6.372343
  S     4.200887 10.298450 -3.567198
  S     6.544441  9.493914 -2.261100
