16  
    
  C     5.312493  5.571691 -4.191417
  C     6.398635  4.841583 -3.587088
  C     5.561821  9.545339 -4.458019
  C     6.768931  9.108158 -3.767776
  N     7.332673  4.525770 -4.468438
  N     5.432957  5.894017 -5.480746
  N     4.800579  5.390195 -1.649856
  N     7.757593  8.756893 -4.567909
  N     5.660042  9.647816 -5.765841
  N     4.965021  9.144574 -1.948350
  S     6.792294  5.036383 -6.003285
  S     4.034084  6.068064 -3.006799
  S     6.277497  4.632777 -1.804846
  S     7.264022  9.080552 -6.115322
  S     4.236493  9.780339 -3.338013
  S     6.580833  8.829094 -2.051499
