16  
    
  C     5.612001  5.264592 -3.905134
  C     6.818787  5.018302 -3.187464
  C     5.353808  9.342956 -4.219935
  C     6.449075  8.738870 -3.523162
  N     7.816952  4.878860 -4.023188
  N     5.673367  5.420228 -5.218983
  N     5.008845  5.074136 -1.423473
  N     7.550923  8.429475 -4.273528
  N     5.699605  9.652765 -5.476606
  N     4.689851  9.199254 -1.666626
  S     7.282491  5.214626 -5.568938
  S     4.169743  5.351927 -2.856949
  S     6.675466  4.879545 -1.416210
  S     7.191103  9.135866 -5.762100
  S     4.033270  9.694401 -3.117363
  S     6.268971  8.659279 -1.764805
