16  
    
  C     5.619839  5.908399 -4.283989
  C     6.777149  5.395324 -3.619714
  C     5.767997  9.511345 -4.424930
  C     6.972100  9.212385 -3.767801
  N     7.847218  5.228429 -4.424195
  N     5.686622  6.116671 -5.557605
  N     5.015299  5.939390 -1.824115
  N     8.015920  8.978746 -4.565303
  N     5.949030  9.612559 -5.767316
  N     5.050644  9.245896 -1.982542
  S     7.217013  5.743182 -6.015677
  S     4.246203  6.139248 -3.255919
  S     6.621602  5.372250 -1.892224
  S     7.519687  9.295073 -6.104955
  S     4.293575  9.551256 -3.486597
  S     6.686478  8.997430 -2.015729
