16  
    
  C     5.527870  5.965314 -4.497443
  C     6.609524  5.367907 -3.766577
  C     5.803884  9.490224 -4.321061
  C     7.009185  9.059511 -3.667144
  N     7.731770  5.138505 -4.481059
  N     5.862699  6.233334 -5.756328
  N     4.579686  5.713922 -2.149303
  N     8.009309  8.928608 -4.529316
  N     5.960814  9.749014 -5.621329
  N     5.197444  9.105494 -1.869344
  S     7.443976  5.844307 -5.942473
  S     4.047052  6.332787 -3.599562
  S     6.184703  5.132327 -2.058332
  S     7.515709  9.340313 -5.984451
  S     4.401830  9.427198 -3.272051
  S     6.838346  8.836024 -1.976134
