16  
    
  C     5.298314  5.670328 -4.312237
  C     6.491037  5.345382 -3.676700
  C     5.398792  9.449836 -4.166247
  C     6.598542  8.936401 -3.592598
  N     7.526117  5.228728 -4.501887
  N     5.360774  5.936906 -5.627372
  N     4.788289  5.634999 -1.745518
  N     7.596386  8.630831 -4.442630
  N     5.468261  9.517836 -5.507544
  N     4.906760  9.316054 -1.611770
  S     6.900411  5.500132 -6.023765
  S     4.029851  6.034947 -3.184491
  S     6.364449  5.227487 -1.934114
  S     6.976118  9.033335 -5.988733
  S     4.144601  9.598623 -3.059780
  S     6.533819  8.814581 -1.813817
