16  
    
  C     5.202247  5.269930 -3.984486
  C     6.412117  4.939297 -3.326801
  C     5.321621  9.385507 -4.267509
  C     6.564719  9.127428 -3.563604
  N     7.459597  4.696875 -4.111226
  N     5.294396  5.336970 -5.316257
  N     4.573201  5.136974 -1.528695
  N     7.606654  8.966301 -4.346575
  N     5.462986  9.420190 -5.593886
  N     4.782768  9.264637 -1.708839
  S     6.911379  5.119541 -5.629428
  S     3.843262  5.309498 -2.990504
  S     6.187598  4.713426 -1.631122
  S     7.008293  9.043847 -5.910845
  S     3.988493  9.654201 -3.115673
  S     6.419313  8.867929 -1.872633
