16  
    
  C     5.307384  6.327820 -4.412791
  C     6.555338  6.109548 -3.774926
  C     5.459035  9.687370 -4.378275
  C     6.722821  9.322048 -3.751801
  N     7.599254  5.957515 -4.580093
  N     5.439208  6.480207 -5.738480
  N     4.756518  6.113765 -1.981416
  N     7.787392  9.383843 -4.582138
  N     5.553528  9.969095 -5.712572
  N     5.016800  9.343969 -1.818022
  S     7.040967  6.207568 -6.109164
  S     3.927742  6.464151 -3.381883
  S     6.375490  5.842658 -2.076142
  S     7.179590  9.639423 -6.083597
  S     4.205217  9.719180 -3.183676
  S     6.710410  9.052501 -2.045387
