16  
    
  C     5.622911  5.973712 -4.537504
  C     6.785390  5.553085 -3.862887
  C     5.565942  9.875060 -4.378221
  C     6.738967  9.286634 -3.774272
  N     7.834097  5.342617 -4.701029
  N     5.787264  6.250793 -5.832224
  N     4.998673  5.785595 -2.017860
  N     7.787514  9.022209 -4.575251
  N     5.747938 10.036625 -5.699133
  N     5.003894  9.289284 -1.863063
  S     7.364795  5.778596 -6.168803
  S     4.174529  6.148546 -3.482251
  S     6.611262  5.246451 -2.142521
  S     7.363851  9.663423 -6.022105
  S     4.127645  9.891566 -3.249379
  S     6.541917  8.902379 -2.113367
