16  
    
  C     5.344575  6.032482 -4.355254
  C     6.507162  5.504667 -3.807056
  C     5.504292  9.137213 -4.454967
  C     6.701286  8.842718 -3.738060
  N     7.497348  5.388635 -4.696797
  N     5.405877  6.291070 -5.657169
  N     4.887487  5.711570 -1.898466
  N     7.754457  8.826456 -4.548269
  N     5.604312  9.503000 -5.761437
  N     4.891162  9.173516 -1.938356
  S     6.965191  5.874920 -6.143857
  S     4.063944  6.248036 -3.212852
  S     6.528188  5.363856 -2.063380
  S     7.227781  9.160060 -6.060072
  S     4.138060  9.166223 -3.333158
  S     6.531066  8.802716 -2.032097
