16  
    
  C     5.460721  5.296571 -3.879862
  C     6.730742  4.970623 -3.196408
  C     5.399267  9.364707 -4.147600
  C     6.505725  8.719368 -3.457142
  N     7.795397  4.820696 -3.971355
  N     5.573446  5.337076 -5.197362
  N     4.843024  5.106355 -1.401619
  N     7.537050  8.540704 -4.272827
  N     5.542159  9.684836 -5.424809
  N     4.662586  9.108425 -1.727759
  S     7.193740  5.216754 -5.512150
  S     4.122234  5.285416 -2.879981
  S     6.524717  4.863178 -1.455421
  S     7.144479  9.132281 -5.790068
  S     4.005059  9.688247 -3.156652
  S     6.295228  8.735504 -1.732356
