16  
    
  C     5.336524  5.562945 -4.334580
  C     6.463454  4.915401 -3.727773
  C     5.553114  9.160510 -4.388364
  C     6.604869  8.347281 -3.832013
  N     7.507175  4.699256 -4.510707
  N     5.450969  5.736763 -5.625235
  N     4.680832  5.183932 -1.892469
  N     7.681925  8.296941 -4.632425
  N     5.740470  9.628142 -5.614914
  N     4.977490  8.878815 -1.915890
  S     7.022513  5.300419 -5.985768
  S     4.042256  5.855735 -3.257688
  S     6.237993  4.564553 -2.071647
  S     7.282890  9.061663 -6.039793
  S     4.204638  9.453118 -3.328390
  S     6.216863  7.836379 -2.214112
