16  
    
  C     5.403741  5.962150 -4.429606
  C     6.542179  5.620830 -3.740535
  C     5.363691  9.660805 -4.211332
  C     6.597633  9.236898 -3.599882
  N     7.580093  5.480852 -4.528276
  N     5.526513  6.276681 -5.694943
  N     4.698601  5.676497 -1.974253
  N     7.622584  9.091758 -4.504413
  N     5.450209  9.786313 -5.572960
  N     4.842902  9.382809 -1.777526
  S     7.168415  5.873027 -6.043262
  S     3.973303  6.036236 -3.417350
  S     6.328942  5.394065 -2.080455
  S     6.994150  9.468720 -5.967542
  S     4.010511  9.727071 -3.195546
  S     6.435705  9.093474 -1.823772
