16  
    
  C     5.243050  6.275199 -4.481636
  C     6.418126  5.791789 -3.760398
  C     5.355457 10.001959 -4.174630
  C     6.658613  9.661795 -3.609855
  N     7.505488  5.621273 -4.450042
  N     5.537562  6.474871 -5.759897
  N     4.476999  6.057988 -2.080705
  N     7.702195  9.745645 -4.424824
  N     5.455670 10.356880 -5.425222
  N     4.992551  9.523729 -1.691226
  S     7.085662  6.064887 -6.036696
  S     3.872332  6.634611 -3.515806
  S     6.080262  5.496812 -2.069033
  S     7.079372 10.106643 -5.910466
  S     4.087265  9.772390 -3.026659
  S     6.698134  9.364822 -1.886235
