16  
    
  C     5.349897  5.605602 -4.452375
  C     6.446723  5.041297 -3.690331
  C     5.512814  9.164935 -4.288157
  C     6.737687  8.727012 -3.654077
  N     7.563346  4.849625 -4.402132
  N     5.637964  5.838037 -5.751298
  N     4.627797  5.452146 -1.906328
  N     7.696425  8.475393 -4.550422
  N     5.520376  9.197388 -5.610881
  N     4.920035  8.855834 -1.790008
  S     7.137905  5.214200 -6.002158
  S     3.947077  5.851453 -3.413175
  S     6.209547  4.948927 -1.943164
  S     7.108501  8.797076 -6.036470
  S     4.203282  9.361904 -3.191954
  S     6.543620  8.638231 -1.849849
