16  
    
  C     5.471830  5.837719 -4.549734
  C     6.704739  5.543909 -3.854164
  C     5.582223  9.358074 -4.154796
  C     6.808519  8.969609 -3.517488
  N     7.787249  5.472665 -4.659905
  N     5.549362  5.919457 -5.900848
  N     4.913549  5.743920 -1.971551
  N     7.879893  8.904217 -4.296539
  N     5.724819  9.450825 -5.492026
  N     5.139777  9.308340 -1.682333
  S     7.154608  5.544260 -6.167131
  S     4.200847  6.203393 -3.401638
  S     6.548855  5.368944 -2.077981
  S     7.291025  9.257482 -5.830915
  S     4.268092  9.537379 -3.069096
  S     6.713864  8.830819 -1.783208
