16  
    
  C     5.472927  5.841964 -4.553501
  C     6.704393  5.543847 -3.852498
  C     5.580842  9.357713 -4.155978
  C     6.816067  8.970378 -3.522520
  N     7.790932  5.467770 -4.659361
  N     5.547823  5.916533 -5.906106
  N     4.906974  5.748038 -1.968634
  N     7.882851  8.904286 -4.299782
  N     5.720849  9.442156 -5.490537
  N     5.142730  9.322410 -1.682549
  S     7.154130  5.540508 -6.167121
  S     4.200373  6.210040 -3.399780
  S     6.547340  5.366725 -2.075510
  S     7.294002  9.265958 -5.829735
  S     4.270197  9.543652 -3.071452
  S     6.710657  8.832546 -1.783972
