16  
    
  C     5.588886  5.934342 -4.722124
  C     6.789254  5.682302 -3.987596
  C     5.533671  9.771960 -4.338748
  C     6.739205  9.219730 -3.728583
  N     7.825681  5.610485 -4.818746
  N     5.673533  6.076789 -6.079763
  N     4.885044  5.625852 -2.240051
  N     7.776954  9.098502 -4.549216
  N     5.697085 10.202197 -5.570173
  N     4.890714  9.182434 -1.928390
  S     7.275948  5.890274 -6.362596
  S     4.164630  5.953060 -3.712911
  S     6.549902  5.362903 -2.270340
  S     7.306767  9.784149 -5.986229
  S     4.145015  9.820122 -3.307867
  S     6.472679  8.860121 -2.017030
