16  
    
  C     5.597932  5.333212 -4.077796
  C     6.894035  5.185119 -3.548855
  C     5.529784  9.496844 -4.717120
  C     6.626927  8.907848 -3.998842
  N     7.873705  5.081245 -4.447569
  N     5.504873  5.402563 -5.427289
  N     5.214990  4.991091 -1.544067
  N     7.693542  8.535401 -4.725314
  N     5.724013  9.556558 -6.033599
  N     4.837262  9.421577 -2.171939
  S     7.104217  5.220662 -5.905467
  S     4.304365  5.240841 -2.895202
  S     6.860105  4.937044 -1.762058
  S     7.180152  8.845947 -6.346683
  S     4.136260  9.742038 -3.614089
  S     6.461077  8.866314 -2.316055
