16  
    
  C     5.546310  6.337156 -4.439730
  C     6.664225  5.843545 -3.737046
  C     5.645959  9.777904 -4.462414
  C     6.871954  9.423409 -3.740905
  N     7.689915  5.503721 -4.540348
  N     5.705804  6.465825 -5.751731
  N     4.878788  6.246550 -1.981569
  N     7.890000  9.225086 -4.559934
  N     5.774850  9.877793 -5.770962
  N     5.018412  9.681417 -1.995294
  S     7.234594  5.968873 -6.145681
  S     4.178977  6.714054 -3.454152
  S     6.527782  5.847559 -2.032541
  S     7.385961  9.546033 -6.097656
  S     4.262786  9.885618 -3.377201
  S     6.690146  9.339735 -1.953029
