16  
    
  C     5.344456  5.942038 -4.501311
  C     6.550656  5.434064 -3.830806
  C     5.382165  9.519578 -4.451913
  C     6.498418  8.960937 -3.685950
  N     7.593206  5.113738 -4.621342
  N     5.494839  6.012924 -5.824140
  N     4.699669  5.700274 -2.054740
  N     7.459935  8.590228 -4.494001
  N     5.545363  9.623447 -5.758689
  N     4.718144  9.501862 -1.979042
  S     7.032269  5.412473 -6.170930
  S     4.001194  6.157336 -3.479731
  S     6.268179  5.211110 -2.126239
  S     7.033601  9.041039 -6.074388
  S     4.019554  9.956492 -3.408148
  S     6.282826  8.860769 -1.950822
