16  
    
  C     5.522919  5.753622 -4.080235
  C     6.717290  5.264412 -3.466329
  C     5.589246  8.880821 -3.982044
  C     6.852471  8.542121 -3.428614
  N     7.730123  5.089879 -4.284545
  N     5.631771  5.924316 -5.372853
  N     4.883722  5.432069 -1.608703
  N     7.759437  8.213761 -4.369716
  N     5.604461  8.982104 -5.322680
  N     5.101655  8.897874 -1.520806
  S     7.154660  5.389238 -5.825763
  S     4.095685  5.940425 -3.042226
  S     6.471373  4.934958 -1.739542
  S     7.090551  8.532907 -5.817139
  S     4.288247  9.095937 -2.923741
  S     6.738701  8.674006 -1.690376
