16  
    
  C     5.593776  6.115556 -4.345774
  C     6.702410  5.421511 -3.684986
  C     5.841679  9.851641 -4.202100
  C     7.026538  9.330480 -3.592375
  N     7.661504  4.904103 -4.491289
  N     5.736328  6.216130 -5.656829
  N     4.957978  6.126125 -1.815868
  N     8.018421  8.954006 -4.403737
  N     5.925194  9.852265 -5.553976
  N     5.210576  9.286408 -1.812218
  S     7.196110  5.497213 -5.989375
  S     4.201961  6.467130 -3.255970
  S     6.446033  5.393130 -1.941788
  S     7.452929  9.224496 -5.932629
  S     4.460590  9.895486 -3.132744
  S     6.832390  9.117613 -1.883762
