16  
    
  C     5.598562  5.564555 -4.423990
  C     6.840359  5.356978 -3.725567
  C     5.704707  9.362873 -4.070613
  C     6.919173  8.838552 -3.498386
  N     7.918006  5.124301 -4.472730
  N     5.679308  5.495090 -5.753655
  N     5.056049  5.713039 -1.889463
  N     7.917299  8.771185 -4.365770
  N     5.800982  9.850574 -5.285479
  N     5.202869  9.018174 -1.629977
  S     7.313692  5.264449 -6.064677
  S     4.325789  5.861332 -3.315268
  S     6.664791  5.278503 -1.965464
  S     7.360095  9.505852 -5.770407
  S     4.423202  9.657600 -2.951475
  S     6.785506  8.591659 -1.806860
