16  
    
  C     5.558904  5.183736 -4.303105
  C     6.852099  5.114312 -3.713770
  C     5.542590  9.347261 -4.512212
  C     6.731251  8.967985 -3.754346
  N     7.824074  5.091260 -4.604876
  N     5.494497  5.201178 -5.659104
  N     5.296233  5.224582 -1.665259
  N     7.826369  8.751509 -4.473949
  N     5.732795  9.388361 -5.816212
  N     4.745477  9.147920 -2.083165
  S     7.120458  5.024591 -6.119822
  S     4.311651  5.394478 -3.046004
  S     6.899023  4.979929 -1.993992
  S     7.320775  8.975738 -6.125232
  S     4.154487  9.625009 -3.553500
  S     6.312716  8.652633 -2.037698
