16  
    
  C     5.282415  6.266952 -4.333615
  C     6.388701  5.634089 -3.648024
  C     5.490653  9.695800 -4.178299
  C     6.674289  9.101567 -3.582274
  N     7.424445  5.267512 -4.413086
  N     5.439495  6.410783 -5.650877
  N     4.494473  5.881492 -1.805161
  N     7.679605  8.864446 -4.400344
  N     5.685159  9.977177 -5.451775
  N     5.013753  9.859143 -1.730694
  S     6.949878  5.803641 -5.946727
  S     3.923251  6.558897 -3.176021
  S     6.112280  5.513550 -1.923914
  S     7.132570  9.332993 -5.936027
  S     4.179467 10.009632 -3.089973
  S     6.495895  8.944263 -1.876012
