16  
    
  C     5.634553  6.048354 -4.493580
  C     6.830749  5.591670 -3.807327
  C     5.605716  9.701840 -4.400791
  C     6.776317  9.151373 -3.759792
  N     7.854311  5.374028 -4.681202
  N     5.815603  6.336429 -5.770959
  N     4.938236  5.873236 -2.020486
  N     7.842902  9.050994 -4.567458
  N     5.752987 10.033871 -5.682740
  N     4.864174  9.354450 -1.998321
  S     7.342841  5.830167 -6.130061
  S     4.260497  6.187491 -3.500766
  S     6.590999  5.470676 -2.107187
  S     7.294126  9.531714 -6.068204
  S     4.203736  9.890032 -3.445568
  S     6.481430  8.952141 -1.940851
