16  
    
  C     5.263040  6.286681 -4.350686
  C     6.307146  5.584213 -3.713569
  C     5.612154  9.560955 -4.220802
  C     6.774320  9.052538 -3.565894
  N     7.366844  5.322739 -4.471538
  N     5.504639  6.496910 -5.621288
  N     4.587767  6.274363 -1.883715
  N     7.764283  8.732558 -4.423156
  N     5.744183  9.775869 -5.552040
  N     5.182106  9.485960 -1.690291
  S     6.986621  5.887448 -5.980657
  S     3.861158  6.637358 -3.314366
  S     6.135162  5.572547 -1.913444
  S     7.254514  9.248855 -5.963520
  S     4.320181  9.836033 -3.045925
  S     6.727269  8.953263 -1.863526
