16  
    
  C     5.285658  6.262014 -4.334620
  C     6.391473  5.643882 -3.652445
  C     5.486332  9.698978 -4.174136
  C     6.659902  9.104982 -3.588722
  N     7.424077  5.268047 -4.411277
  N     5.438481  6.417080 -5.653458
  N     4.490134  5.880236 -1.802477
  N     7.682482  8.865270 -4.395228
  N     5.689759  9.972271 -5.450383
  N     5.013322  9.858152 -1.725261
  S     6.957184  5.799142 -5.946326
  S     3.924367  6.559290 -3.178153
  S     6.115646  5.516391 -1.922602
  S     7.140452  9.327849 -5.934040
  S     4.176735 10.010243 -3.090552
  S     6.496655  8.942293 -1.874229
