16  
    
  C     5.384956  5.733766 -4.369066
  C     6.651860  5.346018 -3.821900
  C     5.315866  9.967846 -4.623883
  C     6.492612  9.437640 -4.021223
  N     7.639843  5.372794 -4.652907
  N     5.425487  5.956016 -5.671716
  N     4.885814  5.605992 -1.847565
  N     7.562374  9.335998 -4.843979
  N     5.441771 10.360104 -5.878450
  N     4.674097  9.722433 -2.139928
  S     6.996912  5.769763 -6.146097
  S     4.065058  5.707719 -3.286909
  S     6.511007  5.242926 -2.050484
  S     7.000590  9.901542 -6.317631
  S     3.974115 10.203826 -3.535055
  S     6.260669  9.133858 -2.280336
