16  
    
  C     5.559463  6.048222 -4.289694
  C     6.722032  5.468421 -3.584807
  C     5.850149  9.621970 -4.201780
  C     7.077757  9.090146 -3.644317
  N     7.764583  5.256997 -4.371916
  N     5.700261  6.227375 -5.604306
  N     5.069126  6.079450 -1.726391
  N     8.072051  8.878912 -4.508273
  N     5.900998  9.770485 -5.525262
  N     5.355272  9.543752 -1.715302
  S     7.225720  5.633956 -5.899065
  S     4.330754  6.584086 -3.155066
  S     6.523983  5.277317 -1.828399
  S     7.484396  9.389043 -5.992726
  S     4.588675  9.994543 -3.092693
  S     6.943284  9.052062 -1.887757
