16  
    
  C     5.477501  5.811369 -4.356945
  C     6.673163  5.331525 -3.645276
  C     5.774855  9.144742 -4.176087
  C     7.052191  8.907737 -3.555054
  N     7.776811  5.143445 -4.396766
  N     5.649412  5.955884 -5.690532
  N     4.726533  5.495507 -1.971984
  N     8.067430  8.866923 -4.431916
  N     5.818652  9.364579 -5.483160
  N     5.175763  8.732641 -1.648817
  S     7.243573  5.684735 -5.883440
  S     4.056756  6.062134 -3.395354
  S     6.335517  5.144312 -1.932030
  S     7.334435  9.119607 -5.950261
  S     4.383508  8.940562 -3.071553
  S     6.850436  8.493756 -1.874907
