16  
    
  C     5.511043  5.966796 -4.753073
  C     6.711449  5.588231 -4.044208
  C     5.637876  9.843822 -4.311941
  C     6.764522  9.209486 -3.722509
  N     7.824824  5.614258 -4.762089
  N     5.707566  6.232030 -6.017763
  N     4.869897  5.698664 -2.259181
  N     7.753321  9.068728 -4.608918
  N     5.795272 10.214799 -5.600753
  N     4.842613  9.225348 -1.963917
  S     7.317609  5.886335 -6.295782
  S     4.199003  6.064138 -3.703250
  S     6.431136  5.358949 -2.305075
  S     7.291908  9.731566 -6.026152
  S     4.206770  9.772725 -3.400613
  S     6.501845  8.859928 -2.014027
