16  
    
  C     5.589727  5.985783 -4.426886
  C     6.766846  5.670733 -3.729090
  C     5.591993  9.441438 -4.375690
  C     6.820940  9.144161 -3.688383
  N     7.830884  5.475796 -4.494139
  N     5.711391  6.067597 -5.746748
  N     4.853715  5.847950 -1.942656
  N     7.886171  9.062240 -4.468989
  N     5.765083  9.658143 -5.664605
  N     5.023054  9.504194 -1.864869
  S     7.361107  5.719604 -6.057437
  S     4.157439  6.228520 -3.451701
  S     6.481646  5.674210 -1.924422
  S     7.362546  9.297582 -6.039516
  S     4.180680  9.588271 -3.360437
  S     6.590398  9.083129 -1.919340
