16  
    
  C     5.535126  6.018307 -4.192836
  C     6.651541  5.434115 -3.658440
  C     5.362629  9.556392 -4.414113
  C     6.596784  9.143340 -3.774000
  N     7.657122  5.324141 -4.517965
  N     5.582067  6.442778 -5.444519
  N     4.956109  5.588190 -1.724010
  N     7.592812  9.029129 -4.596203
  N     5.443689  9.728178 -5.694892
  N     4.897614  9.153216 -1.864503
  S     7.138723  5.953591 -5.969336
  S     4.189184  6.122209 -3.121480
  S     6.528918  5.114042 -1.967026
  S     7.050374  9.455490 -6.078876
  S     4.105147  9.631234 -3.216485
  S     6.556083  8.874368 -2.076237
