16  
    
  C     5.365034  5.492036 -4.363185
  C     6.502386  4.898808 -3.745921
  C     5.591120  9.318270 -4.369414
  C     6.661362  8.521039 -3.787606
  N     7.536349  4.806021 -4.559119
  N     5.486580  5.855970 -5.634485
  N     4.729485  5.107593 -1.840804
  N     7.684006  8.275352 -4.577020
  N     5.797389  9.599963 -5.661082
  N     4.844261  8.547262 -1.995538
  S     7.063250  5.289086 -6.062653
  S     4.061267  5.566490 -3.270691
  S     6.293832  4.662532 -2.023269
  S     7.348493  8.991314 -6.075955
  S     4.317141  9.600530 -3.201211
  S     6.422343  8.045792 -2.099237
