16  
    
  C     5.627429  5.690183 -4.123160
  C     6.954186  5.304915 -3.535317
  C     5.536340  9.064204 -4.159931
  C     6.833346  8.939295 -3.571726
  N     7.891041  5.069201 -4.431148
  N     5.657351  5.809779 -5.429415
  N     5.248646  5.574472 -1.582410
  N     7.887963  8.994888 -4.372347
  N     5.628054  9.197599 -5.500901
  N     5.068973  8.904238 -1.645866
  S     7.112183  5.192986 -5.967340
  S     4.272057  5.735242 -2.958874
  S     6.895079  5.328685 -1.781838
  S     7.238519  9.187543 -5.912771
  S     4.211979  8.945782 -3.042587
  S     6.745405  8.928455 -1.859367
