16  
    
  C     5.627458  5.704732 -4.260489
  C     6.776511  5.170692 -3.594794
  C     5.414843  9.105707 -4.189807
  C     6.648977  8.760241 -3.521533
  N     7.734688  4.759150 -4.426262
  N     5.740783  5.831360 -5.569914
  N     4.989307  5.661834 -1.785396
  N     7.735183  8.648282 -4.290120
  N     5.551141  9.343437 -5.487537
  N     4.816605  8.994340 -1.698506
  S     7.262364  5.313221 -6.003459
  S     4.265539  6.153325 -3.170815
  S     6.494340  4.846224 -1.928991
  S     7.158432  8.993412 -5.850602
  S     4.120780  9.503509 -3.101765
  S     6.400437  8.569883 -1.808642
