16  
    
  C     5.510096  5.748960 -4.443517
  C     6.821451  5.473944 -3.838586
  C     5.463105  9.524160 -4.395409
  C     6.723569  9.088322 -3.801913
  N     7.835647  5.374284 -4.714300
  N     5.584551  5.953046 -5.777855
  N     5.150849  5.643451 -1.911234
  N     7.746296  9.045300 -4.622786
  N     5.538496  9.702953 -5.741485
  N     5.207539  9.381185 -1.738447
  S     7.166714  5.611789 -6.182879
  S     4.258712  5.957063 -3.234864
  S     6.780850  5.438996 -2.083402
  S     7.122796  9.521164 -6.148754
  S     4.281572  9.739366 -3.081197
  S     6.798394  8.984803 -2.060820
