16  
    
  C     5.576367  5.802763 -4.387895
  C     6.795782  5.263678 -3.823254
  C     5.274525  9.922285 -4.662157
  C     6.392698  9.325591 -4.034714
  N     7.821814  5.100159 -4.627784
  N     5.633998  5.925320 -5.672770
  N     5.196454  5.519041 -1.828316
  N     7.360060  8.861809 -4.819329
  N     5.383152  9.929146 -5.989669
  N     4.848319  9.747652 -2.068317
  S     7.158785  5.547414 -6.174525
  S     4.364729  6.051784 -3.177980
  S     6.739534  4.970839 -2.149804
  S     6.933377  9.315720 -6.356263
  S     4.110548 10.374348 -3.504062
  S     6.323166  9.099342 -2.301319
