16  
    
  C     5.337458  6.185835 -4.479667
  C     6.478044  5.669328 -3.783953
  C     5.483903  9.569960 -4.155846
  C     6.680074  9.136221 -3.453196
  N     7.533987  5.334983 -4.585526
  N     5.542426  6.472790 -5.773662
  N     4.604229  5.870067 -2.018442
  N     7.720114  9.082563 -4.257163
  N     5.609890  9.795506 -5.459059
  N     4.883489  9.434445 -1.676531
  S     7.081392  5.926563 -6.100054
  S     3.958052  6.441886 -3.389234
  S     6.200049  5.505798 -2.085572
  S     7.235906  9.458202 -5.805553
  S     4.152562  9.562743 -3.135043
  S     6.515111  8.899380 -1.774032
