16  
    
  C     5.545150  6.241380 -4.459932
  C     6.755333  5.822931 -3.723011
  C     5.668746  9.622538 -4.409209
  C     6.805163  9.174434 -3.719471
  N     7.783689  5.485330 -4.473838
  N     5.679932  6.316631 -5.767129
  N     4.881163  6.062854 -1.914672
  N     7.814245  8.937937 -4.546400
  N     5.762219  9.705406 -5.724850
  N     5.072144  9.588122 -1.876588
  S     7.223329  5.842905 -6.089515
  S     4.249101  6.516139 -3.383221
  S     6.506010  5.783304 -2.017726
  S     7.270731  9.272147 -6.126146
  S     4.305541  9.861413 -3.386343
  S     6.601447  9.102486 -2.012768
