16  
    
  C     5.455613  6.009545 -4.403678
  C     6.612592  5.545892 -3.737385
  C     5.335685  9.529121 -4.310591
  C     6.588279  9.200326 -3.722732
  N     7.679760  5.529368 -4.506694
  N     5.572052  6.235036 -5.721676
  N     4.753326  5.466860 -1.942106
  N     7.633361  9.091659 -4.554130
  N     5.407314  9.794644 -5.625082
  N     4.866118  9.463955 -1.718547
  S     7.180147  6.023815 -6.030471
  S     3.999360  5.992089 -3.355293
  S     6.413283  5.280240 -1.992785
  S     6.987166  9.441116 -6.051907
  S     4.039695  9.689881 -3.169215
  S     6.479204  9.081859 -1.958893
