16  
    
  C     5.438995  5.451411 -4.204661
  C     6.614026  5.108925 -3.467226
  C     5.761581  8.913722 -3.940121
  C     7.022873  8.503627 -3.388267
  N     7.677844  4.934468 -4.201187
  N     5.661727  5.571229 -5.502096
  N     4.734479  5.584075 -1.725500
  N     8.058854  8.461176 -4.263862
  N     5.828156  9.031361 -5.266574
  N     5.355732  8.852374 -1.440721
  S     7.204937  5.094448 -5.791196
  S     4.041318  5.838522 -3.210616
  S     6.285781  5.175524 -1.786622
  S     7.357488  8.804061 -5.739278
  S     4.452126  9.133438 -2.808911
  S     6.874554  8.152831 -1.690735
