16  
    
  C     5.884780  5.881977 -4.458495
  C     7.088874  5.461994 -3.719182
  C     5.623203  9.638987 -4.278169
  C     6.909921  9.270324 -3.742148
  N     8.184113  5.272570 -4.462873
  N     6.058781  5.925486 -5.758860
  N     5.126776  5.717503 -2.016043
  N     7.917256  9.176883 -4.623732
  N     5.622041  9.717882 -5.631379
  N     5.109417  9.211306 -1.877362
  S     7.643811  5.555711 -6.017639
  S     4.477935  6.224044 -3.461849
  S     6.759969  5.392438 -2.061710
  S     7.246308  9.474414 -6.109495
  S     4.269117  9.632975 -3.239207
  S     6.705986  8.824460 -2.057071
