16  
    
  C     5.492411  5.767083 -4.355380
  C     6.719227  5.263944 -3.831913
  C     5.700756  9.137762 -4.430448
  C     6.887412  8.774722 -3.678494
  N     7.691630  4.981111 -4.710040
  N     5.456620  5.849311 -5.672441
  N     5.081842  5.584899 -1.796372
  N     7.987666  8.611407 -4.421806
  N     5.894499  9.244739 -5.744655
  N     5.115728  9.161581 -1.897721
  S     7.016188  5.452769 -6.177108
  S     4.332291  6.170533 -3.135659
  S     6.559984  4.970023 -2.092582
  S     7.504295  8.854137 -6.034865
  S     4.316009  9.454537 -3.283372
  S     6.725713  8.728652 -2.003787
