16  
    
  C     5.784851  5.580274 -4.295177
  C     6.944166  5.069854 -3.677989
  C     5.588246  9.533991 -4.330742
  C     6.691530  8.909820 -3.676490
  N     8.032368  5.052267 -4.411064
  N     6.045157  5.955994 -5.525257
  N     5.145946  5.269056 -1.907390
  N     7.750645  8.821393 -4.463913
  N     5.738593  9.804994 -5.619479
  N     4.798268  8.583325 -2.017378
  S     7.604164  5.584983 -5.954801
  S     4.421217  5.809966 -3.303873
  S     6.627801  4.651468 -2.024371
  S     7.316108  9.385734 -5.939950
  S     4.194269  9.590597 -3.256924
  S     6.426684  8.291892 -2.120702
