16  
    
  C     5.414483  5.965668 -4.577673
  C     6.562235  5.511516 -3.800724
  C     5.288231  9.495391 -4.409070
  C     6.384532  8.838289 -3.743917
  N     7.520386  5.056519 -4.588289
  N     5.563624  5.975865 -5.917548
  N     4.645459  5.684723 -2.022695
  N     7.452055  8.556129 -4.499050
  N     5.530939  9.687097 -5.695828
  N     4.766290  9.477784 -1.942401
  S     7.082132  5.378505 -6.150503
  S     3.992226  6.158425 -3.519500
  S     6.263046  5.215547 -2.080370
  S     7.054542  9.064036 -5.991090
  S     3.999450  9.852575 -3.392482
  S     6.310724  8.886485 -1.987570
