16  
    
  C     5.267495  6.343501 -4.375146
  C     6.513713  5.787354 -3.699596
  C     5.532561  9.642536 -4.413193
  C     6.735475  9.262100 -3.744254
  N     7.467318  5.426166 -4.554707
  N     5.376700  6.456671 -5.679601
  N     4.649471  6.044363 -1.903670
  N     7.848569  9.188280 -4.515276
  N     5.687824  9.712685 -5.737882
  N     4.914281  9.555690 -1.891796
  S     6.876012  5.848914 -6.089629
  S     4.008705  6.799370 -3.227193
  S     6.257083  5.520081 -1.990356
  S     7.293070  9.417967 -6.054142
  S     4.161445  9.761720 -3.364719
  S     6.462269  8.928022 -2.075554
