16  
    
  C     5.568352  5.896136 -4.134592
  C     6.552780  4.980762 -3.601240
  C     5.666094  9.518634 -4.594296
  C     6.756228  8.801075 -3.947574
  N     7.533697  4.613106 -4.401924
  N     5.737348  6.191726 -5.401831
  N     5.083275  5.716023 -1.537808
  N     7.816356  8.533424 -4.688975
  N     5.880494  9.762300 -5.907609
  N     5.209887  9.416619 -2.005087
  S     7.093417  5.321968 -5.904711
  S     4.453231  6.420209 -2.946989
  S     6.351114  4.655683 -1.858691
  S     7.445267  9.184373 -6.221043
  S     4.394542  9.831368 -3.419129
  S     6.662139  8.632482 -2.198784
