16  
    
  C     5.767393  5.376848 -4.252256
  C     6.977321  4.984404 -3.539249
  C     5.695164  9.517420 -4.405609
  C     6.846801  8.958879 -3.743562
  N     8.042971  4.774457 -4.283346
  N     5.992179  5.563672 -5.560706
  N     5.115654  5.324501 -1.744537
  N     7.901949  8.752171 -4.542011
  N     5.884777  9.876912 -5.667142
  N     4.907531  9.123448 -2.014413
  S     7.551108  5.088591 -5.872030
  S     4.378159  5.626803 -3.190964
  S     6.746183  4.830047 -1.877703
  S     7.432300  9.463367 -6.042178
  S     4.270580  9.668134 -3.417847
  S     6.514896  8.665092 -2.048075
