16  
    
  C     5.675740  5.786884 -4.212578
  C     6.940314  5.421964 -3.599864
  C     5.687029  9.545155 -4.314347
  C     6.891175  9.032908 -3.733380
  N     7.943541  5.179166 -4.436930
  N     5.709882  5.930226 -5.531437
  N     5.128015  5.459650 -1.736434
  N     7.901468  8.924295 -4.637691
  N     5.752497  9.824888 -5.626740
  N     5.064021  8.946628 -1.936253
  S     7.299119  5.626932 -5.952341
  S     4.296914  5.701034 -3.138703
  S     6.775512  5.113309 -1.885072
  S     7.283091  9.382002 -6.093513
  S     4.272151  9.628164 -3.296125
  S     6.746680  8.804219 -2.031375
