16  
    
  C     5.164467  6.182560 -4.309479
  C     6.369151  5.778211 -3.595263
  C     5.650231  9.576432 -4.069889
  C     6.843587  9.005507 -3.506952
  N     7.455648  5.495016 -4.336271
  N     5.294283  6.119358 -5.642894
  N     4.476491  5.846757 -1.830458
  N     7.758944  8.689557 -4.393559
  N     5.673452  9.688987 -5.384348
  N     5.178106  9.508300 -1.468660
  S     6.896765  5.723385 -5.937335
  S     3.756038  6.489926 -3.259029
  S     6.100342  5.597543 -1.860508
  S     7.130797  9.018393 -5.885402
  S     4.395467  9.938650 -2.861191
  S     6.699741  8.868200 -1.728837
