16  
    
  C     5.551728  6.040369 -4.438203
  C     6.766775  5.630619 -3.765713
  C     5.603781  9.425547 -4.433667
  C     6.840586  9.200720 -3.764281
  N     7.850297  5.449817 -4.507470
  N     5.638394  6.130808 -5.763186
  N     4.938306  5.735550 -1.938160
  N     7.887818  9.057980 -4.574366
  N     5.687032  9.497892 -5.744037
  N     5.049591  9.417862 -1.926853
  S     7.219148  5.729436 -6.086231
  S     4.170423  6.160743 -3.354481
  S     6.558370  5.668920 -2.007934
  S     7.271473  9.403362 -6.125418
  S     4.265664  9.477587 -3.407745
  S     6.608626  9.009298 -2.007214
