16  
    
  C     5.279639  6.245281 -4.586566
  C     6.569936  5.959915 -4.013855
  C     5.648329  9.504194 -4.039734
  C     6.829186  9.006045 -3.464639
  N     7.561850  5.907244 -4.883681
  N     5.229840  6.445336 -5.859636
  N     4.857762  5.775910 -2.102668
  N     7.822737  9.070508 -4.330110
  N     5.673353  9.902178 -5.304679
  N     5.099698  9.015450 -1.583648
  S     6.778576  6.176306 -6.389232
  S     4.008778  6.399573 -3.395704
  S     6.469768  5.569667 -2.349187
  S     7.211138  9.616229 -5.749794
  S     4.311408  9.255688 -2.967264
  S     6.705031  8.545506 -1.807401
