16  
    
  C     5.641657  5.692647 -4.135941
  C     6.906751  5.350557 -3.547510
  C     5.556195  9.103286 -4.211215
  C     6.825836  8.951064 -3.577975
  N     7.866481  5.111490 -4.458293
  N     5.679133  5.725283 -5.483336
  N     5.237608  5.658174 -1.597391
  N     7.867004  8.994178 -4.420093
  N     5.671181  9.294524 -5.505222
  N     5.129582  8.852142 -1.637930
  S     7.157310  5.162450 -5.968206
  S     4.271643  5.696760 -2.974280
  S     6.898359  5.336638 -1.749102
  S     7.269890  9.247171 -5.873323
  S     4.226835  8.944474 -3.050796
  S     6.734259  8.965158 -1.874642
