16  
    
  C     5.404775  6.017689 -4.464083
  C     6.673966  5.516893 -3.814076
  C     5.345063  9.570325 -4.539568
  C     6.547277  9.047479 -3.934820
  N     7.560053  5.207805 -4.728997
  N     5.405110  5.990303 -5.797027
  N     4.992301  5.723356 -1.896133
  N     7.557430  8.716467 -4.755050
  N     5.546918  9.777160 -5.861056
  N     4.783089  9.506633 -2.029526
  S     6.918197  5.489739 -6.241498
  S     4.129724  5.999506 -3.248733
  S     6.587841  5.263931 -2.078356
  S     7.048326  9.167595 -6.252917
  S     4.050142  9.884030 -3.518801
  S     6.441136  9.258941 -2.139049
