16  
    
  C     5.406793  5.700463 -4.316086
  C     6.653992  5.432852 -3.650839
  C     5.373244 10.203317 -4.591443
  C     6.465776  9.437558 -3.934818
  N     7.677384  5.251547 -4.484352
  N     5.509950  5.780982 -5.653389
  N     4.944882  5.578109 -1.790586
  N     7.335153  9.051434 -4.831403
  N     5.486767 10.449022 -5.878846
  N     4.657132  9.648940 -2.200027
  S     7.092923  5.503653 -6.062844
  S     4.051689  5.553290 -3.209427
  S     6.620929  5.332720 -1.964983
  S     6.950432  9.708783 -6.298592
  S     4.016805 10.416256 -3.466275
  S     6.240176  9.118444 -2.268121
