16  
    
  C     5.865241  5.487164 -4.116977
  C     7.159557  5.158477 -3.576503
  C     5.415881  9.314191 -4.331620
  C     6.542656  8.717731 -3.651173
  N     8.095552  5.126197 -4.495305
  N     5.861977  5.776785 -5.412056
  N     5.441164  5.214054 -1.595391
  N     7.552847  8.323289 -4.426427
  N     5.637040  9.437463 -5.646008
  N     4.731190  9.094678 -1.902205
  S     7.422124  5.475546 -5.938956
  S     4.600496  5.594426 -2.921908
  S     7.037579  4.916918 -1.890533
  S     7.177929  8.745636 -5.945945
  S     4.176059  9.904703 -3.277140
  S     6.336716  8.569276 -1.936721
