16  
    
  C     5.203966  6.296211 -4.302312
  C     6.203718  5.525330 -3.593302
  C     5.678645  9.637507 -4.185982
  C     6.832857  9.081385 -3.570040
  N     7.156323  5.072388 -4.376856
  N     5.476697  6.440182 -5.569571
  N     4.467287  6.221762 -1.873319
  N     7.854671  8.932274 -4.475600
  N     5.771259  9.940800 -5.514836
  N     5.047160  9.404323 -1.675991
  S     6.932837  5.614645 -5.876517
  S     3.897987  6.732065 -3.364224
  S     5.906699  5.474251 -1.895576
  S     7.273416  9.414260 -5.924057
  S     4.399568  9.850869 -3.133691
  S     6.653935  8.845629 -1.836153
