16  
    
  C     5.651476  6.075658 -4.519061
  C     6.848967  5.552913 -3.837434
  C     5.572936  9.700434 -4.418201
  C     6.757528  9.156716 -3.761704
  N     7.857858  5.352440 -4.686368
  N     5.797117  6.342990 -5.814662
  N     4.957106  5.856807 -2.004597
  N     7.831677  9.074429 -4.561823
  N     5.790701 10.074176 -5.670116
  N     4.915749  9.341510 -1.980622
  S     7.343926  5.832101 -6.130714
  S     4.273567  6.162782 -3.486621
  S     6.559600  5.462274 -2.115242
  S     7.277609  9.537166 -6.060454
  S     4.219105  9.883616 -3.450621
  S     6.471775  8.951935 -1.950204
