16  
    
  C     5.632284  5.698510 -4.138818
  C     6.938266  5.325191 -3.542272
  C     5.548367  9.091011 -4.187462
  C     6.821017  8.940808 -3.579021
  N     7.877793  5.101782 -4.447169
  N     5.678392  5.765957 -5.458050
  N     5.247966  5.625526 -1.591125
  N     7.872425  8.996715 -4.412114
  N     5.664289  9.253240 -5.496940
  N     5.104694  8.871059 -1.637480
  S     7.137600  5.168246 -5.972867
  S     4.260681  5.710321 -2.966735
  S     6.901583  5.333578 -1.757302
  S     7.259494  9.224271 -5.886087
  S     4.221556  8.943212 -3.044438
  S     6.735881  8.952855 -1.873903
