16  
    
  C     5.448901  5.824212 -4.107610
  C     6.502329  4.948661 -3.589835
  C     5.684110  9.412394 -4.479977
  C     6.893988  8.908555 -3.846369
  N     7.393603  4.455732 -4.473962
  N     5.607853  6.026238 -5.430067
  N     5.019529  5.612019 -1.601228
  N     7.926454  8.723812 -4.665458
  N     5.764189  9.624367 -5.753907
  N     4.997225  9.200004 -2.052165
  S     6.971163  5.204417 -5.898955
  S     4.323266  6.378626 -2.931849
  S     6.315249  4.627036 -1.913583
  S     7.338856  9.161159 -6.189531
  S     4.417567  9.933412 -3.441286
  S     6.549482  8.641217 -2.166022
