16  
    
  C     5.305656  5.488458 -4.391447
  C     6.463204  4.867871 -3.763239
  C     5.570338  9.222410 -4.395809
  C     6.642596  8.459016 -3.821666
  N     7.543814  4.730161 -4.536172
  N     5.549689  5.816012 -5.682754
  N     4.710739  5.089260 -1.850264
  N     7.660451  8.285721 -4.625250
  N     5.775090  9.571503 -5.673339
  N     4.824059  8.628599 -1.961614
  S     7.050190  5.313052 -6.054286
  S     3.980776  5.721489 -3.225036
  S     6.297798  4.587176 -2.024453
  S     7.332589  9.034704 -6.023433
  S     4.294087  9.585733 -3.248158
  S     6.349481  7.921894 -2.199393
