16  
    
  C     5.250100  6.395126 -4.690983
  C     6.444214  5.958261 -4.063118
  C     5.757440  9.764769 -4.387416
  C     6.987530  9.333220 -3.755763
  N     7.424549  5.731278 -4.923115
  N     5.283278  6.490905 -5.995206
  N     4.782971  6.439377 -2.166937
  N     7.977105  9.063849 -4.613745
  N     5.770668  9.888250 -5.740217
  N     5.306297  9.458718 -1.820906
  S     6.852969  6.065022 -6.378595
  S     3.951591  6.651593 -3.608004
  S     6.366609  5.973161 -2.355610
  S     7.403807  9.518180 -6.126833
  S     4.434991  9.895736 -3.239425
  S     6.879699  9.152993 -2.034113
