16  
    
  C     5.574561  6.266784 -4.655907
  C     6.566524  5.566366 -3.927641
  C     5.636168  9.659111 -4.519492
  C     6.813181  9.136056 -3.820097
  N     7.675023  5.324236 -4.617006
  N     5.843038  6.607977 -5.928148
  N     4.584716  5.733365 -2.335579
  N     7.951281  9.044306 -4.517156
  N     5.857323  9.871570 -5.800426
  N     5.019560  9.199244 -1.963828
  S     7.402684  5.976318 -6.157175
  S     4.198154  6.479841 -3.732674
  S     6.169750  5.231094 -2.267058
  S     7.475919  9.536750 -6.095207
  S     4.287391  9.782923 -3.372226
  S     6.631676  8.788243 -2.132738
