16  
    
  C     5.413214  6.051116 -4.333694
  C     6.599265  5.486321 -3.597330
  C     5.730870  9.729121 -4.249878
  C     6.785779  9.025820 -3.554783
  N     7.614448  5.202682 -4.415035
  N     5.693403  6.313940 -5.593627
  N     4.672090  5.681518 -1.910888
  N     7.786860  8.701355 -4.386655
  N     5.898258  9.928778 -5.577808
  N     5.156239  9.558124 -1.719149
  S     7.206318  5.652423 -5.964758
  S     4.053785  6.252168 -3.395011
  S     6.255362  5.221062 -1.907130
  S     7.414686  9.241697 -5.842417
  S     4.415245  9.925854 -3.113928
  S     6.622961  8.823879 -1.840584
