16  
    
  C     5.338173  5.543964 -4.370605
  C     6.449749  4.904663 -3.720277
  C     5.527065  9.196595 -4.404299
  C     6.589390  8.390585 -3.838022
  N     7.527229  4.760003 -4.485912
  N     5.502971  5.790341 -5.685863
  N     4.663943  5.182992 -1.864791
  N     7.622109  8.278079 -4.651273
  N     5.766338  9.615485 -5.651017
  N     4.961760  8.948753 -1.892505
  S     6.989628  5.274199 -6.012227
  S     4.088864  5.870834 -3.258506
  S     6.184286  4.593464 -2.019287
  S     7.285811  9.058540 -6.039692
  S     4.176809  9.403150 -3.319371
  S     6.233359  7.848814 -2.169111
