16  
    
  C     5.757105  5.781417 -4.355238
  C     6.931619  5.217670 -3.721808
  C     5.495024  9.435290 -4.433415
  C     6.574898  8.702944 -3.790947
  N     7.885677  4.848503 -4.571206
  N     5.808766  5.978750 -5.694519
  N     5.184104  5.506582 -1.811958
  N     7.646707  8.409406 -4.531857
  N     5.781970  9.683294 -5.692106
  N     4.850997  9.164399 -1.943013
  S     7.349511  5.442414 -6.026192
  S     4.460750  6.050375 -3.204968
  S     6.832734  5.080770 -1.950084
  S     7.270556  9.091807 -5.996380
  S     4.139045  9.728407 -3.368034
  S     6.413696  8.666747 -2.050526
