16  
    
  C     5.548057  6.685419 -4.554479
  C     6.726685  6.139292 -3.919537
  C     5.572708 10.198854 -4.570951
  C     6.734270  9.618033 -3.890746
  N     7.795512  5.881670 -4.655652
  N     5.705012  6.668827 -5.902134
  N     5.036822  6.475683 -2.042974
  N     7.695656  9.178980 -4.675167
  N     5.763728 10.225743 -5.852247
  N     4.898554 10.047078 -2.038011
  S     7.231801  6.215507 -6.274777
  S     4.340268  7.085949 -3.417124
  S     6.551525  5.827435 -2.246483
  S     7.311478  9.620505 -6.214926
  S     4.295936 10.542235 -3.476053
  S     6.513313  9.512480 -2.187961
