16  
    
  C     5.578877  5.926334 -4.485275
  C     6.675367  5.304628 -3.803555
  C     5.482265  9.648686 -4.208935
  C     6.680423  9.081384 -3.632083
  N     7.721258  4.984174 -4.514982
  N     5.763706  6.136419 -5.794085
  N     4.833738  5.656362 -2.031457
  N     7.663859  9.003137 -4.503597
  N     5.583400 10.023142 -5.491892
  N     5.101812  9.258145 -1.695442
  S     7.282851  5.549064 -6.090400
  S     4.185589  6.133083 -3.463115
  S     6.443319  5.121205 -2.085619
  S     7.066022  9.401620 -5.992461
  S     4.264483  9.745292 -2.926600
  S     6.696958  8.760811 -1.996405
