16  
    
  C     5.423839  6.389931 -4.456164
  C     6.615258  5.984153 -3.750930
  C     5.522441  9.785896 -4.390879
  C     6.766981  9.477291 -3.708505
  N     7.689915  5.900709 -4.501407
  N     5.527421  6.427133 -5.789689
  N     4.780010  6.254944 -1.901792
  N     7.764068  9.252161 -4.576914
  N     5.658799  9.848369 -5.745617
  N     5.094781  9.391264 -1.856221
  S     7.135304  6.145280 -6.112681
  S     4.006494  6.528665 -3.352959
  S     6.410566  5.792343 -2.007386
  S     7.266836  9.628981 -6.095833
  S     4.177239  9.765503 -3.271126
  S     6.691587  9.131743 -2.053882
