16  
    
  C     5.450664  5.873355 -4.395502
  C     6.713661  5.489096 -3.832910
  C     5.407067  9.696201 -4.578467
  C     6.581585  9.207324 -3.891732
  N     7.635934  5.156133 -4.716866
  N     5.475670  5.993709 -5.707425
  N     5.027030  5.699404 -1.831569
  N     7.566917  8.844844 -4.683955
  N     5.533846  9.781302 -5.916332
  N     4.825721  9.405028 -2.122735
  S     6.988155  5.477407 -6.209085
  S     4.173744  6.008316 -3.261420
  S     6.616905  5.298681 -2.112878
  S     7.054985  9.199586 -6.246889
  S     4.012248  9.782389 -3.551827
  S     6.506992  9.216891 -2.181451
