16  
    
  C     5.646904  5.787542 -4.208833
  C     6.914597  5.430321 -3.576147
  C     5.593978  9.441428 -4.336762
  C     6.845809  9.003673 -3.746747
  N     7.908644  5.232648 -4.446367
  N     5.720450  5.936882 -5.524177
  N     5.060565  5.513091 -1.723068
  N     7.880419  8.913205 -4.561287
  N     5.700633  9.630275 -5.595339
  N     5.019840  9.018490 -1.867448
  S     7.250748  5.553196 -5.970099
  S     4.228401  5.754731 -3.161150
  S     6.731205  5.139164 -1.861085
  S     7.244563  9.368695 -6.086961
  S     4.258477  9.619525 -3.241826
  S     6.678699  8.775169 -2.042227
