16  
    
  C     5.625346  5.884801 -4.402316
  C     6.779465  5.323299 -3.728003
  C     5.675893  9.568911 -4.254129
  C     6.839235  9.024993 -3.588025
  N     7.741285  5.014788 -4.572314
  N     5.715306  5.897319 -5.729472
  N     5.058630  5.601905 -1.916448
  N     7.847515  8.658103 -4.359954
  N     5.825901  9.658146 -5.547764
  N     5.021891  9.399846 -1.746336
  S     7.279243  5.408046 -6.103403
  S     4.352338  6.188718 -3.317099
  S     6.568183  4.987232 -2.071196
  S     7.339130  9.033339 -5.947292
  S     4.326145  9.854868 -3.211851
  S     6.524072  8.665248 -1.912359
