16  
    
  C     5.578132  5.402862 -4.201953
  C     6.895949  5.248825 -3.554010
  C     5.679338  9.313345 -4.177047
  C     6.938372  9.107428 -3.542932
  N     7.919199  5.210962 -4.390723
  N     5.691396  5.369919 -5.509072
  N     5.129346  5.803148 -1.726603
  N     7.945762  9.145776 -4.450564
  N     5.735742  9.501363 -5.493199
  N     5.135498  8.817948 -1.712999
  S     7.263075  5.301114 -5.896093
  S     4.248286  5.756521 -3.118848
  S     6.762593  5.418304 -1.842241
  S     7.298628  9.385985 -5.906172
  S     4.284314  9.038689 -3.175130
  S     6.774403  8.909989 -1.807134
