16  
    
  C     5.531728  5.324924 -4.152592
  C     6.825160  5.105096 -3.535233
  C     5.677110  9.186739 -4.086193
  C     6.904080  8.712012 -3.502941
  N     7.827995  4.964975 -4.385363
  N     5.585218  5.333451 -5.473713
  N     5.030498  5.249080 -1.701768
  N     7.956217  8.601965 -4.289489
  N     5.847557  9.406147 -5.399068
  N     5.259950  9.271422 -1.551813
  S     7.171881  5.242242 -5.891419
  S     4.157144  5.508897 -3.131343
  S     6.683714  5.015167 -1.805578
  S     7.386040  9.034090 -5.812731
  S     4.401127  9.545736 -2.910302
  S     6.811519  8.650291 -1.794061
