16  
    
  C     5.561237  5.437804 -4.159331
  C     6.918929  5.268018 -3.659370
  C     5.503825  9.343536 -4.587550
  C     6.656688  8.827615 -3.889946
  N     7.842344  5.231381 -4.627583
  N     5.394697  5.492799 -5.490853
  N     5.397261  5.237457 -1.538275
  N     7.768836  8.594810 -4.599321
  N     5.743577  9.535884 -5.880772
  N     4.780435  9.279106 -2.111606
  S     6.950662  5.448918 -6.032708
  S     4.393411  5.351204 -2.840563
  S     7.044644  5.126199 -1.871483
  S     7.300121  9.008851 -6.169300
  S     4.184679  9.778590 -3.549910
  S     6.293384  8.534346 -2.187620
