16  
    
  C     5.511456  6.019098 -4.283282
  C     6.692588  5.547228 -3.688804
  C     5.426799  9.506689 -4.334495
  C     6.731628  9.164436 -3.765770
  N     7.792935  5.438938 -4.471925
  N     5.639857  6.377585 -5.565963
  N     4.944590  5.580611 -1.771478
  N     7.678234  9.127385 -4.675784
  N     5.393239  9.658401 -5.619236
  N     4.920731  9.212829 -1.858917
  S     7.179770  6.021806 -5.953408
  S     4.109685  6.068781 -3.136171
  S     6.508878  5.042269 -1.976916
  S     6.945419  9.442203 -6.205339
  S     4.038403  9.675652 -3.215570
  S     6.540101  8.887607 -2.043762
