16  
    
  C     5.460575  6.150278 -4.451594
  C     6.740386  5.677421 -3.972826
  C     5.512926  9.934358 -4.358583
  C     6.596163  9.284980 -3.726086
  N     7.649581  5.390111 -4.862793
  N     5.490608  6.352549 -5.761880
  N     5.237831  5.798362 -1.946057
  N     7.674080  9.074801 -4.514535
  N     5.662718 10.157726 -5.695178
  N     4.823605  9.522223 -1.891868
  S     6.949411  5.886299 -6.302210
  S     4.308661  6.368378 -3.155587
  S     6.795135  5.280900 -2.297884
  S     7.133743  9.497687 -6.051171
  S     4.144568 10.250797 -3.257217
  S     6.361084  9.031902 -2.107138
