16  
    
  C     5.495441  5.749529 -4.273320
  C     6.577920  5.164930 -3.570407
  C     5.904875  9.211740 -3.960922
  C     7.124107  8.695058 -3.408665
  N     7.557501  4.843192 -4.400148
  N     5.678317  5.946905 -5.581289
  N     4.910063  5.838062 -1.800030
  N     8.114532  8.600251 -4.288757
  N     6.020149  9.516691 -5.258088
  N     5.439217  8.612436 -1.458717
  S     7.237806  5.422779 -5.916824
  S     4.172699  6.131546 -3.229011
  S     6.464637  5.183868 -1.822512
  S     7.529427  9.086936 -5.716568
  S     4.602772  8.971668 -2.845820
  S     7.095639  8.422261 -1.665108
