16  
    
  C     5.435653  6.131331 -4.190443
  C     6.717713  5.642381 -3.591263
  C     5.668958  9.642566 -4.434191
  C     6.836070  9.237520 -3.680560
  N     7.700983  5.520421 -4.503905
  N     5.437624  6.214534 -5.543751
  N     4.997337  5.699424 -1.624977
  N     7.906112  9.026165 -4.461218
  N     5.837459  9.732387 -5.730357
  N     4.828574  9.345166 -1.991860
  S     6.969087  5.788957 -5.957256
  S     4.172305  6.245168 -2.965528
  S     6.591750  5.231772 -1.886761
  S     7.402027  9.364460 -6.038912
  S     4.339441  9.932270 -3.452486
  S     6.477377  9.008589 -1.939839
