16  
    
  C     5.634337  5.665397 -4.453760
  C     6.895750  5.346608 -3.818632
  C     5.298254  9.712134 -4.418599
  C     6.537195  9.226405 -3.859864
  N     7.948916  5.167640 -4.634978
  N     5.697109  5.729816 -5.796752
  N     5.181746  5.453744 -1.891476
  N     7.534283  9.039747 -4.733130
  N     5.336574  9.901523 -5.722343
  N     4.968047  9.725542 -1.818494
  S     7.273658  5.409024 -6.134047
  S     4.320699  5.912139 -3.245541
  S     6.752112  5.118434 -2.067717
  S     6.860273  9.430436 -6.251814
  S     4.111986 10.124232 -3.201256
  S     6.458656  9.048423 -2.119817
