16  
    
  C     5.497548  5.880309 -4.453057
  C     6.658803  5.291072 -3.751377
  C     5.495210  9.465034 -4.106854
  C     6.731044  8.936560 -3.600006
  N     7.719073  5.022564 -4.535361
  N     5.717042  6.177942 -5.749314
  N     4.749227  5.725360 -1.986081
  N     7.642900  8.732369 -4.568018
  N     5.471014  9.660328 -5.416330
  N     4.995553  9.190050 -1.648372
  S     7.220611  5.588396 -6.065893
  S     4.147205  6.145611 -3.450455
  S     6.334731  5.115876 -2.068056
  S     6.968819  9.322991 -6.012168
  S     4.244219  9.652841 -2.987256
  S     6.690950  8.788825 -1.818240
