16  
    
  C     5.659193  5.575846 -4.283206
  C     6.948673  5.228576 -3.699914
  C     5.816836  9.803234 -4.380909
  C     6.970509  9.174375 -3.787965
  N     8.023561  5.272235 -4.505769
  N     5.738804  6.016116 -5.544361
  N     5.219596  5.266849 -1.711211
  N     7.909949  8.966138 -4.647710
  N     5.903285 10.061827 -5.694768
  N     5.151785  9.071551 -1.900205
  S     7.346148  5.759935 -6.002393
  S     4.357594  5.674374 -3.084882
  S     6.896352  4.975566 -1.934819
  S     7.404739  9.509085 -6.146108
  S     4.409941  9.653264 -3.289986
  S     6.781761  8.806654 -2.132954
