16  
    
  C     5.625409  5.946731 -4.366709
  C     6.870181  5.366799 -3.746187
  C     5.557741  9.475348 -4.683972
  C     6.783633  9.160937 -3.944334
  N     7.857935  5.081932 -4.611632
  N     5.644572  5.967186 -5.713883
  N     5.247878  5.645525 -1.807921
  N     7.862984  9.254852 -4.660055
  N     5.794069  9.891554 -5.922675
  N     4.893258  9.120128 -2.207626
  S     7.204267  5.486039 -6.122673
  S     4.401122  5.969494 -3.178048
  S     6.719506  5.004202 -2.055988
  S     7.409570  9.795590 -6.206028
  S     4.144995  9.527625 -3.621272
  S     6.548453  8.952256 -2.213274
