16  
    
  C     5.240202  6.373385 -4.716673
  C     6.467610  6.010623 -4.067941
  C     5.813260  9.745376 -4.303312
  C     7.077310  9.297677 -3.779265
  N     7.481306  5.753946 -4.863406
  N     5.310761  6.546311 -6.014042
  N     4.725280  6.407811 -2.159613
  N     8.016185  9.082469 -4.704008
  N     5.838705  9.841668 -5.626169
  N     5.242952  9.472528 -1.885163
  S     6.818975  6.065066 -6.440639
  S     3.931397  6.658784 -3.570238
  S     6.316211  6.002450 -2.307101
  S     7.310383  9.519234 -6.153935
  S     4.511629  9.839356 -3.257454
  S     6.888119  9.121190 -2.063807
