16  
    
  C     5.397818  6.579450 -4.516819
  C     6.491851  5.937098 -3.834037
  C     5.487829 10.071565 -4.337686
  C     6.703553  9.780441 -3.683197
  N     7.552807  5.576759 -4.498307
  N     5.646099  6.713890 -5.829143
  N     4.751118  6.425252 -2.019786
  N     7.770915  9.813845 -4.455489
  N     5.656376 10.304239 -5.604655
  N     4.955661  9.894832 -1.832639
  S     7.141335  6.070312 -6.110319
  S     4.020102  6.838657 -3.446852
  S     6.318204  5.793115 -2.100736
  S     7.249449 10.042428 -5.985053
  S     4.089934 10.197556 -3.271559
  S     6.569563  9.427942 -1.962916
