16  
    
  C     5.683834  5.728411 -4.399291
  C     6.942539  5.249696 -3.946614
  C     5.656180  9.109571 -4.081388
  C     6.962727  8.664851 -3.633166
  N     7.918292  5.331470 -4.862840
  N     5.747175  6.265268 -5.631775
  N     5.355995  5.198500 -1.930314
  N     7.943803  8.619696 -4.519063
  N     5.694757  9.484768 -5.347755
  N     5.493268  8.819538 -1.572168
  S     7.363484  6.072671 -6.183947
  S     4.418349  5.864471 -3.117173
  S     6.917545  4.792681 -2.307766
  S     7.236903  9.259088 -5.878718
  S     4.526487  9.373199 -2.815522
  S     7.021012  8.341616 -1.935555
