16  
    
  C     5.522458  5.986786 -4.320610
  C     6.722454  5.547277 -3.683290
  C     5.673371  9.468257 -4.471082
  C     6.853501  9.145681 -3.786767
  N     7.732539  5.253625 -4.428306
  N     5.676176  6.190727 -5.627351
  N     5.023239  5.993622 -1.785164
  N     7.970171  9.100672 -4.483444
  N     5.865871  9.554604 -5.785217
  N     4.997242  9.218424 -2.040373
  S     7.240820  5.702094 -5.982906
  S     4.201708  6.202796 -3.190677
  S     6.632813  5.466238 -1.927001
  S     7.478721  9.290786 -6.046260
  S     4.319270  9.609565 -3.446108
  S     6.655353  8.880763 -2.082248
