16  
    
  C     5.640636  5.762014 -4.332138
  C     6.919582  5.327354 -3.755571
  C     5.738568  9.626389 -4.300907
  C     6.992675  9.176792 -3.739888
  N     7.930375  5.282750 -4.624362
  N     5.772920  5.897466 -5.642951
  N     5.235875  5.540009 -1.818041
  N     7.914813  9.045500 -4.660366
  N     5.790710  9.985828 -5.602003
  N     5.298705  8.820070 -1.873160
  S     7.331908  5.557589 -6.134423
  S     4.388546  5.915219 -3.192882
  S     6.845919  5.058759 -2.099438
  S     7.334930  9.672462 -6.080475
  S     4.458508  9.442902 -3.139025
  S     6.936439  8.738938 -2.072059
