16  
    
  C     5.723705  5.597150 -4.257583
  C     6.948615  5.291716 -3.580679
  C     5.153201  9.885604 -4.641122
  C     6.254121  9.303950 -3.952824
  N     8.003095  4.994416 -4.327217
  N     5.878752  5.675841 -5.605246
  N     5.191278  5.654136 -1.811207
  N     7.309129  8.969827 -4.689038
  N     5.358915  9.975418 -5.931878
  N     4.481758  9.770352 -2.122857
  S     7.412522  5.276598 -5.989459
  S     4.352285  5.758585 -3.241879
  S     6.793135  5.230955 -1.850222
  S     6.911142  9.317611 -6.274009
  S     3.771848 10.217389 -3.608672
  S     6.045003  9.151659 -2.244380
