16  
    
  C     5.614991  5.384872 -4.097436
  C     6.860152  4.977166 -3.470741
  C     5.509853  9.449508 -4.687114
  C     6.653290  8.889984 -4.000442
  N     7.845708  4.793120 -4.348035
  N     5.746131  5.640156 -5.377540
  N     5.111897  5.034868 -1.625685
  N     7.568207  8.486610 -4.829694
  N     5.598911  9.565725 -6.007842
  N     4.863171  9.362467 -2.209625
  S     7.298929  5.242583 -5.855492
  S     4.283669  5.285266 -3.052370
  S     6.790727  4.865031 -1.770124
  S     7.122846  8.951519 -6.384105
  S     4.142704  9.660694 -3.663089
  S     6.489975  8.890602 -2.245552
