16  
    
  C     5.493065  5.251887 -4.089359
  C     6.909364  5.242715 -3.590216
  C     5.498296  9.372903 -4.661233
  C     6.663833  8.875396 -3.923044
  N     7.841891  5.354069 -4.544415
  N     5.398659  5.266206 -5.434314
  N     5.365394  5.113193 -1.528429
  N     7.741195  8.593153 -4.642027
  N     5.666367  9.334449 -5.971909
  N     4.708016  9.160945 -2.249491
  S     6.976315  5.310425 -5.941005
  S     4.325295  5.300156 -2.781885
  S     6.994694  5.043150 -1.890310
  S     7.224183  8.933466 -6.272367
  S     4.260679  9.939387 -3.632061
  S     6.399808  8.731582 -2.166108
