16  
    
  C     5.474515  5.796280 -4.360727
  C     6.665261  5.346798 -3.653868
  C     5.763451  9.119696 -4.169522
  C     7.055142  8.899709 -3.567491
  N     7.788083  5.179831 -4.386600
  N     5.654187  5.943401 -5.677557
  N     4.734906  5.480890 -1.980178
  N     8.063469  8.883334 -4.437010
  N     5.798453  9.360125 -5.467194
  N     5.187677  8.725552 -1.661204
  S     7.241124  5.694219 -5.888247
  S     4.053041  6.076623 -3.390181
  S     6.345777  5.156548 -1.936639
  S     7.331929  9.111046 -5.934463
  S     4.382931  8.938450 -3.079636
  S     6.850363  8.479606 -1.866058
