16  
    
  C     5.555202  5.740484 -4.403066
  C     6.752155  5.212938 -3.733004
  C     5.684590  9.542554 -4.236877
  C     6.867829  9.002767 -3.598967
  N     7.790732  5.044621 -4.533281
  N     5.739412  5.886993 -5.717552
  N     4.854095  5.458870 -1.959550
  N     7.899884  8.787375 -4.400082
  N     5.816246  9.640472 -5.536371
  N     5.102117  9.318669 -1.781155
  S     7.260530  5.401912 -6.097566
  S     4.286294  6.277694 -3.332772
  S     6.434067  4.975439 -2.060759
  S     7.381887  9.039245 -5.891554
  S     4.337775  9.732514 -3.180364
  S     6.659516  8.700640 -1.893312
