16  
    
  C     5.557854  5.906167 -4.503558
  C     6.746963  5.338246 -3.789787
  C     5.578774  9.752218 -4.208436
  C     6.833346  9.256738 -3.662260
  N     7.831484  5.245174 -4.579169
  N     5.743736  6.008046 -5.804702
  N     4.882275  5.623438 -2.057433
  N     7.753738  9.041964 -4.590270
  N     5.579415  9.947587 -5.525110
  N     5.029112  9.236006 -1.768321
  S     7.305215  5.626843 -6.198045
  S     4.214294  6.206884 -3.424070
  S     6.492831  5.089598 -2.100721
  S     7.150486  9.651849 -6.039300
  S     4.238180  9.887438 -3.040524
  S     6.652591  8.751794 -2.015135
