16  
    
  C     5.549759  5.878197 -4.140078
  C     6.528878  4.942364 -3.568258
  C     5.660416  9.519027 -4.604908
  C     6.751966  8.804638 -3.948892
  N     7.506127  4.627085 -4.404125
  N     5.737635  6.195986 -5.421762
  N     5.081822  5.712854 -1.554163
  N     7.820488  8.554119 -4.680562
  N     5.891211  9.724770 -5.903477
  N     5.186101  9.395748 -2.009244
  S     7.080200  5.295911 -5.918186
  S     4.429218  6.435803 -2.936819
  S     6.356900  4.635243 -1.854970
  S     7.431461  9.192947 -6.209912
  S     4.399187  9.845327 -3.425235
  S     6.653769  8.620419 -2.188556
