16  
    
  C     5.391494  6.044994 -4.212593
  C     6.538970  5.474759 -3.670424
  C     5.511957  9.614799 -4.290915
  C     6.663921  9.082446 -3.572676
  N     7.524594  5.263733 -4.528899
  N     5.424316  6.163556 -5.531682
  N     4.887659  5.674906 -1.761085
  N     7.710301  8.925366 -4.353417
  N     5.739167  9.924567 -5.578633
  N     4.810205  9.393146 -1.800553
  S     7.000235  5.662695 -6.030591
  S     4.106377  6.279173 -3.118766
  S     6.457204  5.184340 -1.934277
  S     7.302841  9.407217 -5.831883
  S     4.165798  9.746132 -3.281401
  S     6.390263  8.735420 -1.895077
