16  
    
  C     5.674714  5.414667 -4.163868
  C     6.882588  4.897714 -3.504907
  C     5.409185  9.252775 -4.660626
  C     6.614788  8.840703 -3.988958
  N     7.896982  4.746046 -4.319237
  N     5.901100  5.675054 -5.439989
  N     5.072694  5.132840 -1.694043
  N     7.641433  8.658748 -4.847152
  N     5.543866  9.466082 -5.967124
  N     4.843623  9.134177 -2.172592
  S     7.463836  5.299782 -5.839005
  S     4.340210  5.449503 -3.110332
  S     6.695503  4.789373 -1.805034
  S     7.141576  9.006541 -6.320922
  S     4.108907  9.745549 -3.564169
  S     6.440146  8.824453 -2.297102
