16  
    
  C     5.542848  6.154074 -4.366764
  C     6.753519  5.517329 -3.748050
  C     5.565252  9.642607 -4.291580
  C     6.815089  9.119296 -3.690629
  N     7.679035  5.292925 -4.672347
  N     5.735775  6.505522 -5.637263
  N     5.043963  5.749448 -1.880201
  N     7.755487  8.953842 -4.585142
  N     5.609735  9.819296 -5.595882
  N     5.117444  9.318518 -1.688009
  S     7.236925  5.827844 -6.166324
  S     4.283471  6.336657 -3.233088
  S     6.658945  5.201838 -2.065489
  S     7.152990  9.410455 -6.070261
  S     4.300619  9.646245 -3.134019
  S     6.718716  8.914180 -1.887421
