16  
    
  C     5.503613  5.918867 -4.429741
  C     6.555333  5.301861 -3.760536
  C     5.415274  9.347442 -4.204712
  C     6.665005  8.904876 -3.623569
  N     7.634392  5.145901 -4.490840
  N     5.662414  6.093585 -5.702725
  N     4.817474  5.705742 -2.025118
  N     7.658192  8.790816 -4.475553
  N     5.449464  9.663673 -5.499597
  N     5.104681  9.125410 -1.596096
  S     7.190173  5.626541 -6.043874
  S     4.127885  6.179709 -3.459117
  S     6.328255  5.092376 -2.086666
  S     6.987459  9.210241 -5.967651
  S     4.216937  9.620815 -2.967315
  S     6.633883  8.795284 -1.842490
