16  
    
  C     5.531054  5.775794 -4.514190
  C     6.789747  5.543853 -3.785284
  C     5.068398  9.443789 -4.463624
  C     6.229849  8.990418 -3.733187
  N     7.787283  5.468565 -4.637491
  N     5.668990  5.913892 -5.819480
  N     4.972769  5.615399 -2.045588
  N     7.301860  8.781814 -4.513146
  N     5.251182  9.399938 -5.796910
  N     4.593179 10.025835 -1.969130
  S     7.261884  5.607426 -6.225500
  S     4.197017  5.916265 -3.486566
  S     6.559815  5.327617 -2.099142
  S     6.853310  9.045845 -6.063082
  S     3.885445 10.186978 -3.487238
  S     6.069088  9.275366 -1.934584
