16  
    
  C     5.478134  5.921296 -4.421089
  C     6.548052  5.321934 -3.758588
  C     5.414218  9.324089 -4.220927
  C     6.647903  8.896467 -3.613346
  N     7.623574  5.176136 -4.517473
  N     5.638508  6.079810 -5.712559
  N     4.826625  5.697865 -2.022620
  N     7.649659  8.815378 -4.462201
  N     5.449309  9.651359 -5.524307
  N     5.095908  9.119952 -1.589787
  S     7.194299  5.633580 -6.036881
  S     4.107478  6.195839 -3.455489
  S     6.328652  5.080978 -2.078584
  S     7.000582  9.176080 -5.952522
  S     4.197990  9.610727 -2.954333
  S     6.633842  8.792017 -1.864571
