16  
    
  C     5.516263  6.348467 -4.515864
  C     6.711980  5.866674 -3.834597
  C     5.652741  9.842353 -4.434139
  C     6.862484  9.480374 -3.741233
  N     7.685407  5.504017 -4.664595
  N     5.684206  6.514767 -5.838664
  N     4.882092  6.224660 -1.991201
  N     7.935901  9.166342 -4.500587
  N     5.779570  9.815330 -5.783770
  N     5.090160  9.741686 -1.884178
  S     7.226821  5.895415 -6.145303
  S     4.216416  6.723147 -3.416695
  S     6.483974  5.873469 -2.063710
  S     7.430867  9.535957 -6.056086
  S     4.254010  9.906020 -3.368646
  S     6.676614  9.354246 -2.069173
