16  
    
  C     5.499753  5.333658 -4.209382
  C     6.766889  5.058299 -3.578015
  C     5.676870  9.268842 -4.155422
  C     6.852238  8.679451 -3.553695
  N     7.790939  4.981927 -4.432669
  N     5.547299  5.343232 -5.529886
  N     4.994372  5.293632 -1.704285
  N     7.912004  8.513814 -4.362034
  N     5.806208  9.508860 -5.442877
  N     5.256895  9.255720 -1.554082
  S     7.206456  5.269277 -5.959828
  S     4.110013  5.466125 -3.134169
  S     6.621148  4.961126 -1.865974
  S     7.399815  8.994949 -5.878389
  S     4.371554  9.487628 -2.969545
  S     6.745342  8.567975 -1.845762
