16  
    
  C     5.616255  5.642970 -4.432015
  C     6.879250  5.396621 -3.821027
  C     5.271359  9.693269 -4.436417
  C     6.454143  9.162842 -3.825912
  N     7.912190  5.237245 -4.623125
  N     5.685674  5.743798 -5.752934
  N     5.202000  5.523504 -1.905373
  N     7.434784  9.034813 -4.697794
  N     5.251473  9.860958 -5.778846
  N     4.940278  9.721872 -1.808709
  S     7.266740  5.401917 -6.176182
  S     4.357589  5.908245 -3.258981
  S     6.795974  5.117342 -2.074935
  S     6.889457  9.407172 -6.206750
  S     4.125711 10.119291 -3.177181
  S     6.442011  9.067692 -2.119988
