16  
    
  C     5.790984  5.533187 -4.248507
  C     7.044915  5.250848 -3.679977
  C     5.499097  9.311554 -4.414526
  C     6.612577  8.735567 -3.718803
  N     8.060205  5.158075 -4.558182
  N     5.854142  5.721677 -5.572206
  N     5.380361  5.189167 -1.778685
  N     7.548735  8.302638 -4.572400
  N     5.611129  9.464469 -5.711400
  N     4.838716  9.370533 -1.891474
  S     7.437555  5.442918 -6.008169
  S     4.517125  5.590797 -3.105670
  S     7.019818  4.912926 -1.965229
  S     7.103165  8.785523 -6.090178
  S     4.181274  9.773732 -3.354029
  S     6.343425  8.710287 -2.003810
