16  
    
  C     5.428764  5.977797 -4.369458
  C     6.639726  5.537637 -3.689836
  C     5.352228  9.544021 -4.341853
  C     6.610444  9.199092 -3.751233
  N     7.668488  5.558951 -4.530412
  N     5.575267  6.239896 -5.676534
  N     4.754269  5.443917 -1.942386
  N     7.618707  9.092032 -4.576832
  N     5.417594  9.758316 -5.628941
  N     4.910742  9.460730 -1.739223
  S     7.201965  6.033590 -6.029979
  S     4.013320  5.995941 -3.347539
  S     6.428806  5.260567 -2.002938
  S     6.994759  9.439525 -6.051060
  S     3.994649  9.690757 -3.151327
  S     6.491225  9.069678 -1.985749
