16  
    
  C     5.481760  5.621571 -4.259066
  C     6.669841  5.094001 -3.602737
  C     5.502365  9.264981 -4.194640
  C     6.719695  8.890262 -3.485306
  N     7.716055  5.007484 -4.393585
  N     5.631635  5.844242 -5.558511
  N     4.900375  5.537996 -1.777962
  N     7.779245  8.794192 -4.292193
  N     5.604043  9.422981 -5.514469
  N     4.919963  9.139231 -1.670187
  S     7.166929  5.337411 -5.939759
  S     4.296689  6.088814 -3.157834
  S     6.409729  4.816301 -1.887822
  S     7.242621  9.166087 -5.827611
  S     4.123032  9.435649 -3.119352
  S     6.508383  8.586070 -1.776951
