16  
    
  C     5.334780  5.582402 -4.420550
  C     6.445892  5.078190 -3.670238
  C     5.474966  9.132887 -4.302913
  C     6.699144  8.666559 -3.678151
  N     7.480169  4.794161 -4.414741
  N     5.555718  5.844238 -5.699928
  N     4.607669  5.338052 -1.952680
  N     7.669957  8.386544 -4.526734
  N     5.559732  9.324487 -5.625367
  N     4.914301  8.813085 -1.846652
  S     7.131524  5.203874 -5.950683
  S     3.990800  5.877417 -3.397391
  S     6.227892  4.911255 -1.993884
  S     7.121860  8.840732 -6.053956
  S     4.174178  9.366585 -3.233842
  S     6.528662  8.536002 -1.875668
