16  
    
  C     5.397004  5.739277 -4.122823
  C     6.568151  5.122904 -3.543687
  C     5.570670  9.464361 -4.171623
  C     6.760470  8.956417 -3.547440
  N     7.537575  4.893591 -4.418367
  N     5.593138  6.208046 -5.365704
  N     4.883565  5.294629 -1.592990
  N     7.709207  8.696805 -4.409263
  N     5.724869  9.785187 -5.453377
  N     5.060534  9.019191 -1.716028
  S     7.010071  5.523340 -5.861330
  S     4.135003  5.858026 -3.012130
  S     6.432543  4.861637 -1.808018
  S     7.259312  9.339325 -5.867991
  S     4.232946  9.567124 -3.063251
  S     6.683995  8.765381 -1.826817
