16  
    
  C     5.566272  5.807716 -4.352589
  C     6.762698  5.508160 -3.622730
  C     5.696277  9.280846 -4.290147
  C     6.965864  9.125755 -3.599108
  N     7.862779  5.235656 -4.312357
  N     5.766060  5.859803 -5.649636
  N     4.789042  5.644202 -1.914995
  N     8.077494  9.222634 -4.334108
  N     5.814546  9.458030 -5.611886
  N     5.198909  8.971702 -1.781433
  S     7.381948  5.397073 -5.951309
  S     4.033487  5.865908 -3.438590
  S     6.448892  5.365578 -1.908264
  S     7.464337  9.471129 -5.923784
  S     4.358130  9.370259 -3.143360
  S     6.842676  8.760734 -1.943519
