16  
    
  C     5.413281  6.101130 -4.434112
  C     6.593460  5.557573 -3.794130
  C     5.451374  9.797225 -4.369217
  C     6.708832  9.331722 -3.843836
  N     7.555726  5.216168 -4.654256
  N     5.463093  6.326330 -5.732272
  N     4.804763  5.825946 -1.945878
  N     7.739712  9.268451 -4.716099
  N     5.538755  9.991692 -5.683494
  N     4.866616  9.526085 -1.929625
  S     6.965189  5.713837 -6.143985
  S     4.107077  6.385106 -3.329059
  S     6.369243  5.322230 -2.076953
  S     7.052271  9.626089 -6.207299
  S     4.138261  9.953546 -3.314362
  S     6.525360  9.019797 -2.084775
