16  
    
  C     5.335073  5.801471 -4.475893
  C     6.513016  5.316718 -3.862350
  C     5.448984  9.588019 -4.421651
  C     6.599136  9.052075 -3.748871
  N     7.561499  5.191547 -4.680516
  N     5.466031  5.988268 -5.784447
  N     4.755956  5.720287 -2.006747
  N     7.578541  8.705873 -4.584829
  N     5.488558  9.564534 -5.746002
  N     4.683982  9.545104 -1.908247
  S     6.967291  5.512676 -6.196615
  S     3.981724  6.181718 -3.418904
  S     6.334768  5.214676 -2.144986
  S     7.031654  8.963361 -6.136189
  S     4.083021 10.047850 -3.403083
  S     6.180569  8.888833 -2.026804
