16  
    
  C     5.624918  5.919017 -4.280528
  C     6.791343  5.393622 -3.623979
  C     5.772550  9.518525 -4.444345
  C     6.987036  9.219131 -3.746612
  N     7.801898  5.232978 -4.428961
  N     5.684853  6.131198 -5.571474
  N     5.042279  5.958023 -1.814535
  N     8.009858  8.978041 -4.540446
  N     5.918681  9.593271 -5.788641
  N     5.064539  9.234295 -1.982038
  S     7.216665  5.737816 -5.999365
  S     4.226884  6.149220 -3.259638
  S     6.627509  5.386335 -1.887109
  S     7.514196  9.298449 -6.095635
  S     4.271327  9.561367 -3.496647
  S     6.680204  8.974869 -2.025869
