16  
    
  C     5.848438  5.528378 -4.018100
  C     7.132713  5.125497 -3.397239
  C     5.508934  9.396387 -4.245587
  C     6.605736  8.751825 -3.553727
  N     8.088283  5.034506 -4.329007
  N     5.822092  5.685419 -5.350896
  N     5.381711  5.201921 -1.509789
  N     7.660571  8.454899 -4.336689
  N     5.615949  9.462226 -5.553203
  N     4.727222  9.231243 -1.761417
  S     7.386136  5.391879 -5.846165
  S     4.526368  5.553873 -2.901645
  S     7.075966  4.860165 -1.663669
  S     7.181665  8.835917 -5.905830
  S     4.191884  9.811330 -3.235622
  S     6.184203  8.440884 -1.859839
