16  
    
  C     5.340036  6.308573 -4.459347
  C     6.425886  5.784558 -3.716382
  C     5.438400  9.990887 -4.200048
  C     6.739647  9.726946 -3.599428
  N     7.529111  5.660089 -4.531648
  N     5.469793  6.441777 -5.778660
  N     4.486922  6.035086 -2.078362
  N     7.758825  9.750485 -4.446747
  N     5.475624 10.349866 -5.502848
  N     4.976419  9.613139 -1.673214
  S     7.099314  6.069151 -6.010052
  S     3.941729  6.716695 -3.525648
  S     6.072345  5.550908 -2.025815
  S     7.080105 10.164076 -5.942138
  S     4.054219  9.848861 -3.049421
  S     6.658336  9.396809 -1.891798
