16  
    
  C     5.533294  6.197598 -4.669063
  C     6.646412  5.608601 -3.984602
  C     5.667433  9.764920 -4.432410
  C     6.832925  9.220528 -3.781805
  N     7.740365  5.332983 -4.736930
  N     5.835197  6.391677 -5.973642
  N     4.728137  5.727544 -2.304533
  N     7.849300  9.056216 -4.618997
  N     5.886324 10.090872 -5.684742
  N     4.966666  9.249525 -2.010247
  S     7.418043  5.984196 -6.195071
  S     4.050777  6.390631 -3.728316
  S     6.306123  5.271932 -2.265692
  S     7.425607  9.554532 -6.069342
  S     4.220010  9.750417 -3.378442
  S     6.566662  8.828037 -2.143166
