16  
    
  C     5.556114  5.961147 -4.443112
  C     6.651300  5.260744 -3.749241
  C     5.490039  9.594808 -4.123753
  C     6.753562  9.053405 -3.660347
  N     7.656075  4.982495 -4.592513
  N     5.819274  6.122620 -5.743767
  N     4.831074  5.679529 -2.007198
  N     7.719956  8.826425 -4.576186
  N     5.524152  9.882191 -5.420168
  N     5.153071  9.212224 -1.619923
  S     7.317713  5.545432 -6.147954
  S     4.127140  6.127990 -3.450986
  S     6.385850  5.128897 -2.019644
  S     6.998371  9.389059 -5.985590
  S     4.223342  9.725428 -3.000642
  S     6.682887  8.774124 -1.901344
