16  
    
  C     5.587097  6.011051 -4.256257
  C     6.704370  5.400808 -3.653884
  C     5.932739  9.125740 -4.033546
  C     7.193663  8.755024 -3.458083
  N     7.733535  5.161572 -4.465200
  N     5.771866  6.265396 -5.558768
  N     4.896437  5.564855 -1.851980
  N     8.195490  8.822098 -4.313975
  N     5.994084  9.319507 -5.330558
  N     5.462798  9.047809 -1.528288
  S     7.214768  5.525621 -6.001839
  S     4.256805  6.246888 -3.190308
  S     6.502237  5.182877 -1.943060
  S     7.578951  9.192382 -5.774857
  S     4.556125  9.221016 -2.926017
  S     6.999208  8.485791 -1.737807
