16  
    
  C     5.597178  5.523649 -4.067031
  C     6.867711  5.187794 -3.441983
  C     5.838094  9.303511 -3.905188
  C     7.097724  8.993690 -3.298772
  N     7.872959  4.923681 -4.279342
  N     5.711613  5.531187 -5.404623
  N     5.099327  5.371199 -1.510589
  N     8.096696  8.851754 -4.162868
  N     5.877651  9.307331 -5.244622
  N     5.267789  9.130367 -1.414045
  S     7.241424  5.154137 -5.822144
  S     4.225084  5.635093 -2.882368
  S     6.752007  5.057676 -1.690882
  S     7.397349  9.002616 -5.690647
  S     4.529166  9.593971 -2.816511
  S     6.906755  8.850550 -1.557183
