16  
    
  C     5.818176  5.597664 -4.272608
  C     7.084789  5.233743 -3.632508
  C     5.452047  9.341347 -4.401238
  C     6.547130  8.678443 -3.743625
  N     8.035667  5.124528 -4.522111
  N     5.850704  5.695207 -5.603624
  N     5.444849  5.181441 -1.715379
  N     7.556899  8.286601 -4.506799
  N     5.677521  9.435777 -5.729564
  N     4.804179  9.267289 -1.901586
  S     7.442860  5.487308 -5.998093
  S     4.496538  5.607916 -3.060644
  S     7.081738  4.895360 -1.925623
  S     7.091038  8.776278 -6.053446
  S     4.197442  9.812006 -3.338817
  S     6.358129  8.686273 -1.969213
