16  
    
  C     5.653097  5.459358 -4.268432
  C     6.898991  5.319594 -3.550254
  C     5.254646  9.903444 -4.594583
  C     6.347106  9.258519 -3.915457
  N     7.950652  5.267885 -4.391187
  N     5.691432  5.360569 -5.574234
  N     5.006825  5.529591 -1.768382
  N     7.287407  8.914477 -4.806687
  N     5.359464 10.090441 -5.939099
  N     4.541985  9.831672 -2.135825
  S     7.318640  5.302483 -5.914754
  S     4.229600  5.689956 -3.225741
  S     6.705227  5.354003 -1.800976
  S     6.858335  9.515246 -6.304130
  S     3.946290 10.417781 -3.587752
  S     6.102435  9.105684 -2.205454
