16  
    
  C     5.892211  6.003437 -4.428172
  C     7.048213  5.584108 -3.706371
  C     5.653446  9.518051 -4.406385
  C     6.880772  9.172564 -3.746229
  N     8.072098  5.241756 -4.454679
  N     6.100427  6.048374 -5.727652
  N     5.102884  5.594348 -2.016391
  N     7.883558  9.060690 -4.609598
  N     5.755403  9.722458 -5.735566
  N     5.103476  9.239082 -1.847942
  S     7.683248  5.626114 -6.052831
  S     4.471087  6.178402 -3.462957
  S     6.750263  5.430213 -1.978893
  S     7.293604  9.413726 -6.132300
  S     4.362567  9.748528 -3.271456
  S     6.723922  8.840293 -1.987254
