16  
    
  C     5.407981  5.501010 -4.177626
  C     6.567437  5.073815 -3.420991
  C     5.620865  8.950446 -4.037428
  C     6.855409  8.548383 -3.422895
  N     7.585943  4.778742 -4.260147
  N     5.625285  5.685060 -5.486954
  N     4.767107  5.331985 -1.708297
  N     7.807918  8.273767 -4.287865
  N     5.735979  9.087920 -5.349514
  N     5.240501  8.926397 -1.453550
  S     7.224263  5.354548 -5.738897
  S     4.090744  5.834122 -3.170921
  S     6.392912  5.180540 -1.729826
  S     7.239580  8.580652 -5.769324
  S     4.381942  9.094506 -2.842919
  S     6.831696  8.403417 -1.651450
