16  
    
  C     5.495781  6.118476 -4.368248
  C     6.669678  5.475122 -3.647128
  C     5.722409  9.548292 -4.175403
  C     6.905981  8.973143 -3.566706
  N     7.743584  5.214317 -4.403236
  N     5.744043  6.212770 -5.667214
  N     4.684738  5.633752 -1.931401
  N     7.923888  8.773545 -4.460079
  N     5.845804  9.830799 -5.479915
  N     5.176394  9.593691 -1.693851
  S     7.265969  5.743094 -5.908742
  S     4.118443  6.349508 -3.325177
  S     6.286363  5.153714 -1.978564
  S     7.323327  9.289188 -5.956827
  S     4.363543  9.925815 -3.143731
  S     6.732053  8.821104 -1.890028
