16  
    
  C     5.455651  5.607564 -4.373239
  C     6.677792  5.134251 -3.784387
  C     5.708206  9.086344 -4.375102
  C     6.941947  8.794545 -3.665626
  N     7.668169  5.033450 -4.679175
  N     5.497698  5.874393 -5.658542
  N     5.097714  5.686417 -1.841958
  N     8.019121  8.579404 -4.457430
  N     5.905301  9.100055 -5.683937
  N     5.121999  9.244089 -1.821623
  S     6.998051  5.465196 -6.152987
  S     4.281679  6.170828 -3.215128
  S     6.622348  5.006905 -2.062117
  S     7.528891  8.849151 -5.981430
  S     4.355634  9.498586 -3.298113
  S     6.713126  8.754067 -1.935093
