16  
    
  C     5.203054  6.183572 -4.294228
  C     6.344659  5.540937 -3.675692
  C     5.386629  9.756075 -4.321854
  C     6.676132  9.267331 -3.774171
  N     7.348187  5.377663 -4.521611
  N     5.320397  6.299489 -5.620819
  N     4.669303  5.966570 -1.815852
  N     7.711510  9.051834 -4.583539
  N     5.548393  9.977453 -5.608968
  N     5.077568  9.459850 -1.727840
  S     6.897295  5.836337 -6.035854
  S     3.944953  6.500702 -3.192197
  S     6.117371  5.308862 -2.004399
  S     7.069941  9.440815 -6.073599
  S     4.164360 10.044277 -3.096413
  S     6.603469  9.032998 -2.024739
