16  
    
  C     5.636923  5.830350 -3.912452
  C     6.828485  5.213737 -3.461993
  C     5.671859  9.605264 -3.990999
  C     6.888944  9.067237 -3.440705
  N     7.864694  5.112437 -4.292935
  N     5.861879  6.388893 -5.099271
  N     5.137010  4.903068 -1.573344
  N     7.817255  8.919287 -4.393491
  N     5.686307  9.931167 -5.265521
  N     5.067720  8.889549 -1.580322
  S     7.316353  5.916428 -5.678622
  S     4.370415  5.850173 -2.737833
  S     6.708959  4.540192 -1.849861
  S     7.172309  9.497442 -5.773532
  S     4.347336  9.691531 -2.878225
  S     6.677156  8.514976 -1.808887
