16  
    
  C     5.841959  6.080578 -4.377663
  C     7.005855  5.579691 -3.699919
  C     5.777027  9.525643 -4.379774
  C     6.919103  8.961838 -3.704226
  N     8.075349  5.328008 -4.468154
  N     6.016307  6.343214 -5.651432
  N     5.071955  5.791539 -1.942848
  N     7.930398  8.596463 -4.499163
  N     5.956354  9.706613 -5.713231
  N     5.189430  9.310654 -1.875970
  S     7.564847  5.864591 -5.959414
  S     4.365367  6.095110 -3.400269
  S     6.685588  5.306363 -2.028993
  S     7.488752  9.149351 -6.049146
  S     4.445926  9.851078 -3.295538
  S     6.809087  8.887209 -1.990519
