16  
    
  C     5.585169  5.991664 -4.445980
  C     6.759742  5.654963 -3.732370
  C     5.610567  9.454702 -4.424426
  C     6.840385  9.172349 -3.767426
  N     7.824445  5.456929 -4.496267
  N     5.709294  6.129449 -5.771849
  N     4.870056  5.747465 -1.944024
  N     7.896137  9.050118 -4.560807
  N     5.673514  9.517655 -5.737172
  N     4.973083  9.466710 -1.925507
  S     7.252012  5.721460 -6.114444
  S     4.171075  6.168234 -3.367014
  S     6.552222  5.681999 -1.969710
  S     7.267101  9.396888 -6.094524
  S     4.311889  9.499031 -3.404259
  S     6.609304  9.032450 -1.965530
