16  
    
  C     5.667334  5.851197 -3.909708
  C     6.834739  5.173985 -3.435050
  C     5.646161  9.620786 -4.003287
  C     6.863536  9.049699 -3.476822
  N     7.840318  5.062458 -4.307246
  N     5.865820  6.393704 -5.109426
  N     5.145768  4.904092 -1.599737
  N     7.828651  8.921860 -4.383804
  N     5.690511  9.974347 -5.272393
  N     5.092291  8.882824 -1.597852
  S     7.308793  5.933455 -5.685141
  S     4.371565  5.844924 -2.748920
  S     6.734151  4.526546 -1.827554
  S     7.167141  9.524204 -5.785584
  S     4.361196  9.679405 -2.895025
  S     6.696278  8.513006 -1.826451
