16  
    
  C     5.626697  5.828779 -3.918150
  C     6.847498  5.214638 -3.466936
  C     5.677007  9.596327 -3.954365
  C     6.894504  9.074210 -3.427021
  N     7.878240  5.171216 -4.292083
  N     5.836321  6.384151 -5.104642
  N     5.110352  4.916947 -1.546851
  N     7.815495  8.916115 -4.385498
  N     5.679762  9.889437 -5.260824
  N     5.043391  8.905372 -1.572246
  S     7.331172  5.896099 -5.666141
  S     4.368283  5.852019 -2.728111
  S     6.685796  4.557686 -1.871999
  S     7.186897  9.470722 -5.773554
  S     4.331055  9.700901 -2.858076
  S     6.662020  8.515331 -1.788827
