16  
    
  C     5.430105  6.379338 -4.443850
  C     6.607908  5.979190 -3.741763
  C     5.539589  9.791602 -4.384896
  C     6.781504  9.478303 -3.708164
  N     7.697056  5.888418 -4.487165
  N     5.545426  6.428351 -5.790376
  N     4.780147  6.266805 -1.897770
  N     7.772501  9.245513 -4.584389
  N     5.675326  9.840813 -5.740912
  N     5.097217  9.398869 -1.866569
  S     7.140639  6.139306 -6.118424
  S     4.024945  6.535070 -3.352752
  S     6.411114  5.791369 -2.009387
  S     7.267269  9.626897 -6.094222
  S     4.179739  9.768334 -3.275817
  S     6.679914  9.144195 -2.056853
