16  
    
  C     5.243857  5.783004 -4.288583
  C     6.480918  5.360536 -3.651811
  C     5.403673  9.469203 -4.201197
  C     6.609289  8.919898 -3.579888
  N     7.446174  5.208849 -4.547661
  N     5.351751  5.953607 -5.592172
  N     4.741430  5.648619 -1.748442
  N     7.540298  8.579598 -4.448727
  N     5.462946  9.596720 -5.500092
  N     4.922658  9.267442 -1.598380
  S     6.874554  5.495163 -6.042457
  S     3.999260  6.036080 -3.191681
  S     6.341480  5.245592 -1.945875
  S     6.970067  8.981007 -5.963079
  S     4.112040  9.623667 -3.013084
  S     6.555055  8.857974 -1.779920
