16  
    
  C     5.485789  6.016896 -4.358154
  C     6.565537  5.455894 -3.655653
  C     5.744045  9.746418 -4.235204
  C     6.793162  9.043407 -3.580815
  N     7.635302  5.172999 -4.404348
  N     5.689313  6.312473 -5.656931
  N     4.631213  5.709981 -1.890469
  N     7.792285  8.665330 -4.336165
  N     5.924599  9.916280 -5.537508
  N     5.058551  9.523375 -1.667612
  S     7.141462  5.648956 -5.939966
  S     4.032721  6.218860 -3.360046
  S     6.241489  5.264952 -1.922900
  S     7.440763  9.246998 -5.846886
  S     4.398517  9.955032 -3.111849
  S     6.584925  8.825124 -1.848997
