16  
    
  C     5.511577  6.262862 -4.402805
  C     6.697768  5.904953 -3.735020
  C     5.648068  9.727552 -4.366516
  C     6.903120  9.353269 -3.723160
  N     7.730925  5.708683 -4.568886
  N     5.620902  6.485616 -5.730755
  N     4.872606  6.312116 -1.939680
  N     7.963174  9.293088 -4.576332
  N     5.695167  9.947619 -5.700004
  N     4.961484  9.520939 -1.886816
  S     7.209278  6.047487 -6.046456
  S     4.149488  6.624875 -3.396848
  S     6.418577  5.813794 -2.014999
  S     7.274467  9.558904 -6.120693
  S     4.274764  9.819327 -3.367454
  S     6.627839  9.270404 -2.027504
