16  
    
  C     5.336598  6.344898 -4.362448
  C     6.514661  5.799554 -3.721195
  C     5.511509  9.636709 -4.412522
  C     6.712652  9.267149 -3.778128
  N     7.472810  5.423779 -4.568659
  N     5.377598  6.408710 -5.684635
  N     4.650882  6.038754 -1.894764
  N     7.861859  9.174136 -4.493360
  N     5.724206  9.755809 -5.733739
  N     4.901050  9.590154 -1.877584
  S     6.861868  5.863724 -6.086045
  S     4.003166  6.757132 -3.216352
  S     6.264775  5.538266 -2.004460
  S     7.301767  9.427281 -6.078696
  S     4.140353  9.749759 -3.364021
  S     6.433625  8.954179 -2.101067
