16  
    
  C     5.543449  5.916216 -4.440031
  C     6.825663  5.649794 -3.793800
  C     5.735853  9.483392 -4.364301
  C     7.044385  9.132424 -3.731484
  N     7.852316  5.564643 -4.656780
  N     5.667351  6.072835 -5.717021
  N     5.005447  5.451572 -1.959463
  N     8.118506  9.007902 -4.493978
  N     5.878127  9.560409 -5.707875
  N     5.332083  9.379745 -1.818367
  S     7.260856  5.804171 -6.088019
  S     4.218860  6.056330 -3.336975
  S     6.625188  5.249840 -2.108105
  S     7.507112  9.335496 -6.061879
  S     4.420252  9.525355 -3.248695
  S     6.913379  8.983711 -1.975305
