16  
    
  C     5.588016  5.462070 -4.224146
  C     6.774116  5.089455 -3.538800
  C     5.366772  9.220964 -4.270373
  C     6.545979  8.626843 -3.708656
  N     7.840276  5.023098 -4.306935
  N     5.702607  5.560969 -5.557548
  N     5.022021  5.378879 -1.706304
  N     7.492206  8.337309 -4.616896
  N     5.429693  9.346329 -5.597220
  N     4.899033  9.089664 -1.770461
  S     7.341373  5.145911 -5.818572
  S     4.258020  5.822357 -3.096921
  S     6.562465  4.812957 -1.842083
  S     6.939655  8.880056 -6.040246
  S     4.189467  9.695728 -3.133266
  S     6.443591  8.460664 -1.942286
