16  
    
  C     5.493509  6.098848 -4.584262
  C     6.485638  5.380591 -3.839398
  C     5.786063  9.570053 -4.410286
  C     6.983751  9.125974 -3.716327
  N     7.690681  5.274163 -4.432824
  N     5.896849  6.530200 -5.787931
  N     4.623363  5.870789 -2.191099
  N     8.022109  8.925904 -4.477711
  N     5.976535  9.761728 -5.721169
  N     5.192588  9.228734 -1.869159
  S     7.474644  5.916745 -5.976113
  S     4.132961  6.465725 -3.617922
  S     6.060225  5.041319 -2.220534
  S     7.529063  9.310782 -6.048919
  S     4.382374  9.486324 -3.296436
  S     6.777487  8.781695 -2.038707
