16  
    
  C     5.357693  5.601555 -4.339690
  C     6.504527  4.965994 -3.689877
  C     5.483772  9.204839 -4.366009
  C     6.570299  8.462180 -3.798734
  N     7.538585  4.727057 -4.497745
  N     5.524979  5.746331 -5.649932
  N     4.574468  5.146931 -1.931579
  N     7.619470  8.250918 -4.595229
  N     5.695178  9.570454 -5.622061
  N     4.908554  8.869613 -1.876342
  S     7.067543  5.244920 -6.044921
  S     3.977071  5.960103 -3.282995
  S     6.202359  4.730404 -1.968617
  S     7.245837  8.951358 -6.006851
  S     4.122398  9.345648 -3.267781
  S     6.379884  8.171184 -2.125303
