16  
    
  C     5.628626  5.747306 -4.354896
  C     6.902661  5.433543 -3.827001
  C     5.738202  9.662019 -4.278833
  C     7.002345  9.292079 -3.717097
  N     7.874364  5.310379 -4.717953
  N     5.597154  5.815662 -5.675920
  N     5.232452  5.638846 -1.837080
  N     7.977614  9.290590 -4.639328
  N     5.697395  9.883513 -5.578191
  N     5.289029  9.106919 -1.810671
  S     7.164088  5.616944 -6.178913
  S     4.380713  5.949895 -3.211237
  S     6.852097  5.227385 -2.041633
  S     7.166189  9.536417 -6.151320
  S     4.382647  9.575030 -3.127080
  S     6.887249  8.750498 -2.088402
