16  
    
  C     5.655849  5.278714 -4.283434
  C     6.959019  5.021922 -3.664608
  C     5.568602  9.382102 -4.512962
  C     6.715040  8.954672 -3.755764
  N     7.891559  4.714849 -4.548162
  N     5.641377  5.356349 -5.601883
  N     5.255530  5.301671 -1.720754
  N     7.856932  8.740405 -4.417198
  N     5.881142  9.607071 -5.775626
  N     4.806877  9.099884 -2.097748
  S     7.239776  5.091448 -6.034157
  S     4.357534  5.442199 -3.168819
  S     6.853795  4.987982 -1.965173
  S     7.467139  9.139366 -6.013240
  S     4.172074  9.701618 -3.539267
  S     6.428559  8.707218 -2.076295
