16  
    
  C     5.280587  5.810956 -4.465460
  C     6.511528  5.343826 -3.905892
  C     5.347453  9.584854 -4.535899
  C     6.497953  9.097759 -3.807601
  N     7.531993  5.212051 -4.734518
  N     5.358949  5.929280 -5.779878
  N     4.883652  5.734675 -1.931691
  N     7.484332  8.762144 -4.607855
  N     5.459886  9.569795 -5.885334
  N     4.834678  9.653517 -2.013929
  S     6.902536  5.617817 -6.218627
  S     4.052144  6.127421 -3.283960
  S     6.448758  5.259966 -2.158501
  S     7.040815  9.029230 -6.132237
  S     4.052478 10.105624 -3.493269
  S     6.374003  8.983945 -2.105547
