16  
    
  C     5.435741  6.046323 -4.364873
  C     6.650136  5.504065 -3.808103
  C     5.698899  9.783492 -4.519547
  C     6.845526  9.192922 -3.929236
  N     7.648429  5.279893 -4.650057
  N     5.469120  6.184903 -5.696908
  N     4.949953  5.742184 -1.858525
  N     7.780798  8.846212 -4.816785
  N     5.733956  9.901637 -5.843791
  N     5.204714  9.628564 -2.026923
  S     6.975236  5.747228 -6.187909
  S     4.180708  6.230834 -3.227497
  S     6.574879  5.347460 -2.093409
  S     7.246941  9.335231 -6.323523
  S     4.516744 10.192389 -3.433384
  S     6.617040  8.868216 -2.163415
