16  
    
  C     5.638532  5.715917 -4.441458
  C     6.960167  5.380956 -3.854319
  C     5.196156  9.604174 -4.379494
  C     6.427420  9.135489 -3.753233
  N     7.972491  5.260017 -4.741666
  N     5.648199  5.733884 -5.780958
  N     5.267610  5.685362 -1.866181
  N     7.382328  8.853583 -4.611593
  N     5.277344  9.763726 -5.703407
  N     4.781500  9.545595 -1.868640
  S     7.195504  5.473252 -6.202314
  S     4.361573  5.880725 -3.278313
  S     6.821310  5.180130 -2.068981
  S     6.797243  9.333632 -6.126495
  S     3.964696 10.166449 -3.203044
  S     6.403817  9.123652 -2.071181
