16  
    
  C     5.578507  6.087540 -4.370802
  C     6.737805  5.627563 -3.642363
  C     5.425164  9.642785 -4.241769
  C     6.660360  9.292630 -3.618778
  N     7.770431  5.352604 -4.441793
  N     5.817491  6.336701 -5.655858
  N     4.864423  5.822956 -1.936392
  N     7.687767  9.285111 -4.490484
  N     5.434928  9.837015 -5.563672
  N     4.945313  9.487249 -1.706103
  S     7.405718  5.782842 -5.992822
  S     4.177950  6.353190 -3.374887
  S     6.448794  5.562190 -1.951546
  S     7.045745  9.645877 -5.970045
  S     4.034730  9.649208 -3.112838
  S     6.476156  9.062627 -1.959020
