16  
    
  C     5.566797  5.686383 -4.319987
  C     6.725532  5.113627 -3.699893
  C     5.504579  9.229000 -4.403532
  C     6.715845  8.814015 -3.729098
  N     7.675211  4.770861 -4.566327
  N     5.689313  5.983844 -5.626990
  N     4.989030  5.488266 -1.797792
  N     7.788031  8.648064 -4.474966
  N     5.683151  9.465940 -5.704642
  N     5.074278  9.162374 -1.814526
  S     7.217211  5.385999 -6.069573
  S     4.240511  6.017752 -3.201783
  S     6.557622  5.018460 -1.884229
  S     7.296173  9.079109 -6.038403
  S     4.263871  9.496123 -3.217353
  S     6.624010  8.614813 -2.039273
