16  
    
  C     5.367583  5.630483 -4.442523
  C     6.510297  5.058530 -3.715160
  C     5.537064  9.147941 -4.257873
  C     6.760538  8.789106 -3.616108
  N     7.621730  4.863993 -4.432643
  N     5.648092  5.777122 -5.731659
  N     4.623625  5.577958 -1.910719
  N     7.746516  8.566403 -4.487435
  N     5.543463  9.095744 -5.605354
  N     4.939279  8.925241 -1.716102
  S     7.167497  5.242065 -6.030747
  S     3.917733  5.836323 -3.422655
  S     6.193152  4.981037 -1.920879
  S     7.080964  8.760133 -6.023337
  S     4.205763  9.365085 -3.151785
  S     6.582110  8.725376 -1.875113
