16  
    
  C     5.397504  5.567844 -4.402346
  C     6.595632  5.204461 -3.644790
  C     5.469446  9.029981 -4.201194
  C     6.765617  8.896680 -3.599435
  N     7.617181  4.872703 -4.433043
  N     5.564194  5.657454 -5.699697
  N     4.681170  5.722278 -1.972653
  N     7.796646  8.715625 -4.418644
  N     5.512790  9.005528 -5.536673
  N     5.086705  9.107051 -1.699737
  S     7.195814  5.299685 -5.986857
  S     3.979404  5.844951 -3.468703
  S     6.191259  5.059703 -1.975633
  S     7.129926  8.699972 -5.936800
  S     4.174991  9.374913 -3.087797
  S     6.703851  8.855821 -1.893523
