16  
    
  C     5.523241  5.391207 -4.121117
  C     6.921858  5.255884 -3.624332
  C     5.509620  9.317713 -4.592614
  C     6.675826  8.823547 -3.887011
  N     7.820605  5.264962 -4.608409
  N     5.408397  5.451485 -5.472909
  N     5.411916  5.225315 -1.514550
  N     7.765006  8.624589 -4.655819
  N     5.720927  9.498338 -5.880562
  N     4.782463  9.237634 -2.125488
  S     6.946498  5.428140 -6.040275
  S     4.392511  5.340721 -2.834072
  S     7.034992  5.121574 -1.882853
  S     7.295576  8.987268 -6.181668
  S     4.211670  9.820407 -3.564954
  S     6.277524  8.575419 -2.181973
