16  
    
  C     5.189544  6.227266 -4.327375
  C     6.215532  5.563188 -3.596370
  C     5.727084  9.629310 -4.234617
  C     6.903071  9.040426 -3.600984
  N     7.211681  5.080874 -4.350436
  N     5.466826  6.448015 -5.619848
  N     4.440854  6.258163 -1.866838
  N     7.890021  8.977953 -4.435419
  N     5.755663  9.884751 -5.515566
  N     5.134432  9.398128 -1.712228
  S     6.940321  5.713396 -5.884171
  S     3.866560  6.742657 -3.300392
  S     5.873626  5.440582 -1.899659
  S     7.311566  9.385501 -5.973891
  S     4.422217  9.923218 -3.087702
  S     6.717299  8.827654 -1.812946
