16  
    
  C     5.671364  5.667632 -4.263596
  C     6.941099  5.208748 -3.639813
  C     5.580835  9.388527 -4.348046
  C     6.685559  8.668944 -3.762218
  N     7.936094  5.056892 -4.508414
  N     5.837087  5.879944 -5.554405
  N     5.209001  5.189666 -1.775288
  N     7.701381  8.595297 -4.623780
  N     5.759646  9.826330 -5.602981
  N     4.711772  8.718980 -2.083358
  S     7.404209  5.583002 -6.004195
  S     4.393717  5.691358 -3.144862
  S     6.808486  4.788996 -1.965235
  S     7.292303  9.312578 -6.010051
  S     4.141109  9.630879 -3.390829
  S     6.331484  8.385028 -2.045069
