16  
    
  C     5.205134  6.160883 -4.411618
  C     6.493288  5.716687 -3.758683
  C     5.518402  9.689717 -4.438827
  C     6.628211  9.200910 -3.704935
  N     7.506344  5.544515 -4.585031
  N     5.412749  6.367541 -5.703465
  N     4.801686  6.003642 -1.854872
  N     7.684608  8.986515 -4.496406
  N     5.678701  9.910849 -5.765563
  N     4.834086  9.602982 -1.956884
  S     6.923564  5.895873 -6.089982
  S     3.950273  6.444789 -3.254177
  S     6.433507  5.655720 -1.991689
  S     7.255081  9.516838 -6.047257
  S     4.108321  9.798683 -3.471681
  S     6.450992  9.098810 -2.029202
