16  
    
  C     5.172572  6.269457 -4.507837
  C     6.384189  5.821156 -3.843345
  C     5.397092  9.487158 -4.039586
  C     6.670895  9.212405 -3.477275
  N     7.459434  5.625382 -4.644038
  N     5.341054  6.554676 -5.780740
  N     4.573906  5.892276 -2.080697
  N     7.738571  9.318600 -4.286679
  N     5.489534  9.728065 -5.355753
  N     4.841099  9.214542 -1.597821
  S     6.860852  6.116054 -6.179725
  S     3.867064  6.506604 -3.431047
  S     6.163798  5.495430 -2.182253
  S     7.101526  9.539573 -5.811793
  S     4.059419  9.490426 -2.973553
  S     6.538268  8.941517 -1.788163
