16  
    
  C     5.298691  5.993249 -4.473914
  C     6.448884  5.610100 -3.775638
  C     5.359131  9.657152 -4.237554
  C     6.515397  9.242213 -3.501285
  N     7.509727  5.309173 -4.511279
  N     5.473957  6.051186 -5.769622
  N     4.630584  6.009916 -1.961878
  N     7.618931  9.234461 -4.283884
  N     5.489630  9.859610 -5.603882
  N     4.747174  9.320727 -1.729129
  S     7.088057  5.644396 -6.079884
  S     3.971118  6.373737 -3.456665
  S     6.177009  5.506840 -2.029859
  S     7.128700  9.479821 -5.815347
  S     4.023100  9.773106 -3.115536
  S     6.327901  8.900165 -1.827277
