16  
    
  C     5.521354  5.225607 -4.154659
  C     6.809938  5.114165 -3.557598
  C     5.424261  9.271089 -4.420251
  C     6.626746  8.783459 -3.807842
  N     7.816222  4.882465 -4.421890
  N     5.567689  5.347357 -5.471969
  N     5.023546  5.243385 -1.649504
  N     7.538747  8.409486 -4.712558
  N     5.478049  9.419429 -5.735339
  N     4.882171  9.105811 -1.940617
  S     7.167456  5.135827 -5.901902
  S     4.147771  5.111835 -3.027816
  S     6.746071  5.072790 -1.814892
  S     6.944030  8.812034 -6.159042
  S     4.118137  9.567877 -3.313600
  S     6.466818  8.619288 -2.109179
