16  
    
  C     5.504906  5.990395 -4.472392
  C     6.693340  5.535363 -3.883108
  C     5.396681  9.847797 -4.507907
  C     6.578243  9.288718 -3.917496
  N     7.669708  5.288529 -4.737922
  N     5.571811  6.161627 -5.784435
  N     5.061901  5.832779 -1.934873
  N     7.684347  9.122327 -4.661787
  N     5.619372 10.136119 -5.778511
  N     4.851181  9.618817 -1.974618
  S     7.076601  5.689848 -6.234187
  S     4.298105  6.349601 -3.330865
  S     6.670086  5.357953 -2.203237
  S     7.189709  9.724371 -6.155707
  S     4.025272  9.988807 -3.449504
  S     6.384657  9.055203 -2.139064
