16  
    
  C     5.472284  5.981684 -4.557809
  C     6.752647  5.615532 -3.972552
  C     5.795292  9.474367 -4.163752
  C     7.077410  9.111718 -3.533450
  N     7.736844  5.587054 -4.865905
  N     5.509005  6.343677 -5.857477
  N     5.024511  5.688620 -2.063672
  N     8.055374  8.971412 -4.466383
  N     5.816170  9.512264 -5.492686
  N     5.282475  9.071534 -1.724939
  S     7.111121  6.143986 -6.302537
  S     4.153070  5.977145 -3.423238
  S     6.664907  5.390976 -2.261419
  S     7.377714  9.319637 -5.951516
  S     4.446604  9.548372 -3.060475
  S     6.955604  8.733057 -1.878916
