16  
    
  C     5.606270  5.361471 -4.093249
  C     6.910797  5.025547 -3.496389
  C     5.500941  9.487509 -4.712867
  C     6.655428  8.951975 -4.026837
  N     7.906593  4.957150 -4.373275
  N     5.646048  5.561928 -5.396126
  N     5.155379  5.005028 -1.582441
  N     7.604352  8.487830 -4.859876
  N     5.679759  9.604235 -6.031759
  N     4.913763  9.433755 -2.171933
  S     7.176080  5.208261 -5.879824
  S     4.284473  5.243492 -2.968470
  S     6.805475  4.904540 -1.776372
  S     7.164972  8.882111 -6.367589
  S     4.128055  9.668546 -3.642202
  S     6.450928  8.893928 -2.257849
