16  
    
  C     5.552520  5.844349 -4.394521
  C     6.749491  5.490279 -3.618586
  C     5.722684  9.268878 -4.276124
  C     6.990154  9.074677 -3.632918
  N     7.838560  5.263363 -4.320923
  N     5.822011  5.997079 -5.679667
  N     4.743084  5.619091 -1.959705
  N     8.070553  9.180705 -4.421508
  N     5.867912  9.468406 -5.577269
  N     5.207375  8.965364 -1.766824
  S     7.385692  5.416410 -5.954439
  S     3.986633  5.913082 -3.469185
  S     6.427240  5.340256 -1.920524
  S     7.466317  9.478351 -5.930035
  S     4.392705  9.399625 -3.168975
  S     6.810396  8.780302 -1.927236
