16  
    
  C     5.439454  6.027057 -4.433344
  C     6.595498  5.560421 -3.762705
  C     5.318868  9.530365 -4.286525
  C     6.576316  9.196722 -3.678585
  N     7.700465  5.503942 -4.496311
  N     5.569703  6.236835 -5.744567
  N     4.750894  5.490417 -1.944702
  N     7.632324  9.094045 -4.534421
  N     5.403625  9.814946 -5.621521
  N     4.832472  9.463909 -1.715861
  S     7.165060  6.011577 -6.028806
  S     3.996653  5.990541 -3.361709
  S     6.397834  5.296382 -1.990621
  S     6.981929  9.444069 -6.054264
  S     4.075037  9.689185 -3.181801
  S     6.471540  9.089544 -1.938292
