16  
    
  C     5.594181  5.520548 -4.068200
  C     6.863801  5.180060 -3.446357
  C     5.838522  9.302256 -3.907482
  C     7.093477  8.984796 -3.298131
  N     7.871200  4.933053 -4.283346
  N     5.707614  5.531267 -5.405851
  N     5.096508  5.364806 -1.509571
  N     8.089829  8.847831 -4.161977
  N     5.873697  9.301735 -5.252812
  N     5.261488  9.132346 -1.417007
  S     7.243071  5.149713 -5.825485
  S     4.229625  5.631090 -2.885740
  S     6.746708  5.060542 -1.690584
  S     7.392624  9.007129 -5.693678
  S     4.530907  9.595434 -2.823593
  S     6.910105  8.846887 -1.556595
