16  
    
  C     5.233684  5.483134 -4.138351
  C     6.342962  4.883181 -3.545590
  C     5.477417  9.440850 -4.361405
  C     6.672478  8.928808 -3.736478
  N     7.274462  4.508309 -4.423744
  N     5.271655  5.574148 -5.476752
  N     4.659201  5.208731 -1.656935
  N     7.682535  8.722038 -4.578009
  N     5.613155  9.633049 -5.645834
  N     4.941858  9.333136 -1.850668
  S     6.780840  5.019009 -5.863779
  S     3.926600  5.803015 -3.013543
  S     6.192219  4.693968 -1.917527
  S     7.158972  9.128145 -6.054938
  S     4.141414  9.636188 -3.276037
  S     6.544465  9.016521 -2.013780
