16  
    
  C     5.403172  6.329269 -4.488502
  C     6.627239  5.841207 -3.795536
  C     5.668574  9.685493 -4.403846
  C     6.893891  9.240714 -3.825167
  N     7.646049  5.526303 -4.574422
  N     5.558083  6.510316 -5.786891
  N     4.870335  6.352748 -1.971420
  N     7.885867  8.862364 -4.640447
  N     5.789279  9.625160 -5.718577
  N     5.184360  9.528950 -1.863528
  S     7.070605  5.964237 -6.118202
  S     4.096834  6.617889 -3.410181
  S     6.521232  5.851344 -2.092655
  S     7.316481  9.270428 -6.168868
  S     4.371404  9.827225 -3.263483
  S     6.769140  9.149885 -2.112545
