16  
    
  C     5.429979  6.294062 -4.456236
  C     6.617741  5.853444 -3.774218
  C     5.648882  9.688414 -4.414994
  C     6.864049  9.222361 -3.804107
  N     7.651626  5.506597 -4.541500
  N     5.599396  6.515823 -5.772872
  N     4.883029  6.311713 -1.951086
  N     7.862239  8.870064 -4.611734
  N     5.795591  9.646726 -5.736538
  N     5.219627  9.521474 -1.864366
  S     7.102605  5.946542 -6.144536
  S     4.080848  6.611970 -3.403859
  S     6.537363  5.844617 -2.078330
  S     7.328222  9.250758 -6.156652
  S     4.326474  9.838753 -3.267796
  S     6.764778  9.153150 -2.117085
