16  
    
  C     5.693206  5.722331 -4.205355
  C     6.836458  5.050534 -3.624696
  C     5.449150  9.305848 -4.216834
  C     6.572274  8.688740 -3.587181
  N     7.765679  4.638743 -4.475656
  N     5.856213  5.890323 -5.505487
  N     5.035647  5.456915 -1.760703
  N     7.512910  8.301671 -4.467275
  N     5.555077  9.485017 -5.536869
  N     4.867361  9.073322 -1.693882
  S     7.332796  5.271132 -5.938217
  S     4.301786  6.033583 -3.187287
  S     6.569062  4.954822 -1.842662
  S     7.006731  8.785624 -5.920413
  S     4.096345  9.528429 -3.107542
  S     6.392799  8.517141 -1.892667
