16  
    
  C     5.645551  6.186519 -4.366301
  C     6.720174  5.470137 -3.814405
  C     5.619019  9.600043 -4.278422
  C     6.849105  9.198372 -3.659533
  N     7.776973  5.262741 -4.616740
  N     5.770153  6.508505 -5.658573
  N     5.058810  5.782919 -1.866685
  N     7.803283  8.974366 -4.584456
  N     5.606845  9.755420 -5.601980
  N     5.115776  9.300612 -1.686710
  S     7.227542  5.830127 -6.099294
  S     4.275525  6.349393 -3.243867
  S     6.572893  5.153922 -2.074075
  S     7.162974  9.363982 -6.053287
  S     4.361698  9.666469 -3.108240
  S     6.717376  8.889817 -1.935955
