16  
    
  C     5.572230  5.938028 -4.267926
  C     6.783372  5.427998 -3.622610
  C     5.739225  9.533474 -4.500943
  C     6.973420  9.207249 -3.707110
  N     7.753653  5.243363 -4.493646
  N     5.689769  6.157061 -5.595120
  N     5.077701  5.979573 -1.795486
  N     8.024244  8.992766 -4.503109
  N     5.864343  9.567211 -5.795349
  N     5.053682  9.223439 -2.002103
  S     7.230626  5.720151 -5.965406
  S     4.205274  6.165200 -3.258423
  S     6.632941  5.411206 -1.882809
  S     7.504195  9.300121 -6.077971
  S     4.263921  9.577114 -3.498511
  S     6.678138  8.938254 -2.047512
