16  
    
  C     5.441545  5.767186 -4.141135
  C     6.580654  5.096795 -3.607677
  C     5.588338  9.459644 -4.162626
  C     6.768449  8.892263 -3.549589
  N     7.598068  4.838526 -4.417720
  N     5.571219  5.967297 -5.457266
  N     4.829028  5.282811 -1.715239
  N     7.789980  8.740901 -4.377136
  N     5.675371  9.730782 -5.466053
  N     4.969442  9.057792 -1.651122
  S     7.129807  5.476627 -5.880963
  S     4.108524  5.959797 -3.018132
  S     6.455788  4.874415 -1.871671
  S     7.247540  9.277557 -5.853294
  S     4.218187  9.464694 -3.079445
  S     6.616625  8.742698 -1.815803
