16  
    
  C     5.633831  5.504907 -4.373139
  C     6.884062  5.304992 -3.647910
  C     5.601366  9.596916 -4.202837
  C     6.820078  9.082358 -3.597557
  N     7.966625  5.057393 -4.408567
  N     5.750013  5.482507 -5.727097
  N     5.013963  5.681471 -1.940921
  N     7.810360  8.755908 -4.410144
  N     5.805310  9.877600 -5.483848
  N     5.043490  9.201058 -1.714742
  S     7.305674  5.013091 -5.976317
  S     4.238507  5.758783 -3.347429
  S     6.619862  5.282210 -2.009360
  S     7.351017  9.299565 -5.941439
  S     4.213749  9.545036 -3.113903
  S     6.615446  8.697497 -1.891173
