16  
    
  C     5.675015  5.412240 -4.169898
  C     6.882595  4.952161 -3.527557
  C     5.465215  9.388575 -4.672379
  C     6.621513  8.826237 -4.001859
  N     7.894074  4.676413 -4.347199
  N     5.775516  5.687506 -5.496222
  N     5.121476  5.067449 -1.643260
  N     7.652466  8.525117 -4.801034
  N     5.588722  9.509284 -5.995006
  N     4.822721  9.254010 -2.184291
  S     7.371597  5.281427 -5.796317
  S     4.277759  5.341700 -3.085338
  S     6.749600  4.829666 -1.743128
  S     7.079846  9.001157 -6.360345
  S     4.137721  9.694596 -3.650986
  S     6.494762  8.876973 -2.274550
