16  
    
  C     5.319615  5.990761 -4.410435
  C     6.561068  5.504892 -3.733725
  C     5.486518  9.185376 -4.237054
  C     6.736392  8.849339 -3.568023
  N     7.565326  5.251513 -4.571343
  N     5.463153  6.255671 -5.686839
  N     4.724992  5.534129 -1.989683
  N     7.720485  8.902429 -4.448486
  N     5.483324  9.361919 -5.548443
  N     4.945757  9.280697 -1.683455
  S     6.976381  5.803761 -6.081417
  S     4.006927  6.221220 -3.363381
  S     6.393321  5.214071 -2.044658
  S     7.016284  9.012501 -6.014354
  S     4.144144  9.315229 -3.187832
  S     6.496934  8.741192 -1.840618
