16  
    
  C     5.527778  6.106359 -4.706533
  C     6.694486  5.587767 -4.000144
  C     5.656726  9.821451 -4.372475
  C     6.836998  9.248986 -3.770176
  N     7.795840  5.402477 -4.719163
  N     5.826020  6.337460 -5.966036
  N     4.748381  5.735032 -2.256793
  N     7.869469  9.005911 -4.584221
  N     5.835993 10.185612 -5.647167
  N     4.958818  9.253617 -2.006626
  S     7.393067  5.962499 -6.231304
  S     4.032046  6.314256 -3.720458
  S     6.373615  5.300751 -2.308713
  S     7.373497  9.600598 -6.074997
  S     4.214074  9.740707 -3.412190
  S     6.523809  8.846060 -2.111300
