16  
    
  C     5.424273  5.776503 -4.409545
  C     6.589452  5.441937 -3.714079
  C     5.256090  9.513697 -4.371662
  C     6.552977  9.233748 -3.810793
  N     7.644627  5.334890 -4.480883
  N     5.567736  5.912987 -5.714452
  N     4.723653  5.761815 -1.931332
  N     7.591876  9.016612 -4.637833
  N     5.288829  9.378582 -5.676282
  N     4.822021  9.252846 -1.834806
  S     7.159528  5.534874 -6.063375
  S     4.011183  6.124235 -3.406943
  S     6.318892  5.213103 -2.079625
  S     6.926112  9.021741 -6.149300
  S     3.968442  9.737823 -3.194851
  S     6.446380  8.964721 -2.057675
