16  
    
  C     5.656665  5.434049 -4.445209
  C     6.878743  5.157110 -3.647647
  C     5.525714  9.536579 -4.355360
  C     6.697568  9.056743 -3.683514
  N     7.881069  4.848972 -4.455706
  N     5.780348  5.387124 -5.771686
  N     4.951286  5.592441 -1.906887
  N     7.764359  8.864907 -4.465735
  N     5.696641  9.650367 -5.659993
  N     4.866488  9.049134 -1.903299
  S     7.378679  5.111234 -6.047795
  S     4.240942  5.642938 -3.386093
  S     6.651925  5.238747 -1.874609
  S     7.179014  9.152581 -6.006798
  S     4.207995  9.696523 -3.299964
  S     6.532266  8.818907 -1.967632
