16  
    
  C     5.517678  5.861505 -4.325961
  C     6.735596  5.236740 -3.741891
  C     5.705692  9.328939 -4.368844
  C     6.925061  8.897392 -3.738019
  N     7.673333  4.943689 -4.623602
  N     5.629950  6.118755 -5.630877
  N     5.050585  5.357490 -1.885372
  N     7.923648  8.554843 -4.569110
  N     5.787421  9.428408 -5.684112
  N     5.067176  9.070416 -1.938865
  S     7.026241  5.320198 -6.087397
  S     4.275684  6.123861 -3.157833
  S     6.631191  4.951988 -2.068841
  S     7.303238  8.949360 -6.138123
  S     4.316800  9.395092 -3.360953
  S     6.698485  8.692725 -2.001701
