16  
    
  C     5.588268  5.694181 -4.367263
  C     6.784411  5.445961 -3.590250
  C     5.656747  9.356668 -4.280466
  C     6.917922  9.192250 -3.591131
  N     7.824399  5.211681 -4.355327
  N     5.715448  5.584581 -5.679505
  N     4.862951  5.703870 -1.864925
  N     8.006895  9.308224 -4.369208
  N     5.795065  9.457024 -5.601884
  N     5.193968  8.961655 -1.750084
  S     7.335921  5.402689 -5.896927
  S     4.213691  5.799168 -3.341323
  S     6.474410  5.418328 -1.877101
  S     7.453567  9.439295 -5.888974
  S     4.318938  9.289987 -3.144512
  S     6.863908  8.739943 -1.917883
