16  
    
  C     5.386412  5.703828 -4.261465
  C     6.594616  5.316656 -3.650336
  C     5.416109  9.284821 -4.184620
  C     6.705156  8.952715 -3.639541
  N     7.621172  5.195780 -4.484255
  N     5.427282  5.738485 -5.592484
  N     4.870888  5.623311 -1.781542
  N     7.728031  8.817124 -4.507812
  N     5.463191  9.443986 -5.521589
  N     5.013520  9.375362 -1.759022
  S     7.050491  5.559488 -6.001397
  S     4.029345  6.014938 -3.167889
  S     6.477993  5.190559 -1.925819
  S     7.028575  9.128773 -5.958712
  S     4.120556  9.596776 -3.133551
  S     6.504801  8.709400 -1.906732
