16  
    
  C     5.532380  5.985483 -4.341773
  C     6.641110  5.493715 -3.645284
  C     5.724395  9.545193 -4.222329
  C     6.910702  8.988198 -3.670381
  N     7.719395  5.285817 -4.394209
  N     5.727123  6.259392 -5.628653
  N     4.741005  5.622398 -1.917237
  N     7.915621  8.837396 -4.526254
  N     5.761973  9.725620 -5.522640
  N     5.203447  9.519174 -1.695618
  S     7.335356  5.766100 -5.940680
  S     4.197383  6.406772 -3.308450
  S     6.299427  5.132996 -2.035900
  S     7.304637  9.321797 -5.975515
  S     4.419536  9.884263 -3.103455
  S     6.705210  8.851850 -1.881554
