16  
    
  C     5.842689  6.079707 -4.342858
  C     7.001705  5.551860 -3.667132
  C     5.717109  9.489735 -4.389234
  C     6.918626  8.966799 -3.769574
  N     8.047632  5.360155 -4.447234
  N     6.101731  6.354160 -5.615704
  N     5.083186  5.695770 -1.960662
  N     7.936686  8.663787 -4.576333
  N     5.936563  9.668724 -5.655239
  N     5.177188  9.282043 -1.893760
  S     7.602520  5.765874 -6.014724
  S     4.411818  6.096493 -3.450688
  S     6.705768  5.374807 -2.023918
  S     7.456467  9.236217 -6.040312
  S     4.402641  9.883969 -3.271289
  S     6.774276  8.919925 -2.067022
