16  
    
  C     5.872017  5.422645 -4.150712
  C     7.044078  5.029193 -3.418155
  C     5.631436  9.654321 -4.340921
  C     6.841163  9.144999 -3.747767
  N     8.170554  4.988977 -4.134451
  N     6.117001  5.653102 -5.431193
  N     5.005050  5.203240 -1.745845
  N     7.910937  9.052630 -4.537450
  N     5.797029  9.987271 -5.633221
  N     5.044366  8.926108 -1.903538
  S     7.674413  5.289871 -5.756694
  S     4.481468  5.848417 -3.188176
  S     6.636383  4.632746 -1.727690
  S     7.385773  9.665843 -5.992590
  S     4.336702  9.712608 -3.171967
  S     6.626142  8.520699 -2.147816
