16  
    
  C     5.051308  6.253477 -4.556562
  C     6.302456  5.962501 -3.877515
  C     5.414413  9.616353 -4.083264
  C     6.678439  9.293256 -3.541753
  N     7.365881  5.926260 -4.688644
  N     5.202126  6.526053 -5.842222
  N     4.599641  6.017021 -2.054637
  N     7.673728  9.251607 -4.458168
  N     5.438498  9.793405 -5.432687
  N     4.993762  9.134111 -1.580529
  S     6.760249  6.315275 -6.272525
  S     3.764473  6.443773 -3.409544
  S     6.191899  5.604501 -2.216451
  S     7.000221  9.667404 -5.910401
  S     4.051111  9.486829 -2.960191
  S     6.625586  8.984768 -1.856493
