16  
    
  C     5.366471  5.673042 -4.511606
  C     6.506468  5.248792 -3.823939
  C     5.340575  9.445909 -4.382167
  C     6.495643  8.913494 -3.675080
  N     7.603053  5.025251 -4.537914
  N     5.628041  5.863215 -5.795850
  N     4.641414  5.737360 -2.032184
  N     7.445964  8.677665 -4.579115
  N     5.363755  9.609292 -5.705149
  N     4.757642  9.482477 -1.866809
  S     7.191743  5.489313 -6.084275
  S     4.026547  6.180835 -3.558168
  S     6.245822  5.298509 -2.068256
  S     6.969317  9.112997 -6.094033
  S     3.956862  9.688706 -3.315792
  S     6.339431  8.884964 -1.906395
