16  
    
  C     5.795992  5.752932 -4.345564
  C     6.928896  5.216321 -3.725381
  C     5.678486  9.381188 -4.335461
  C     6.905700  8.822781 -3.849354
  N     7.937254  5.067292 -4.548608
  N     5.935032  6.026302 -5.622523
  N     5.113419  5.320755 -1.934166
  N     7.937035  8.935989 -4.682015
  N     5.842815 10.016784 -5.490349
  N     5.222708  8.867942 -1.840552
  S     7.488281  5.594292 -6.084364
  S     4.416733  5.844922 -3.326755
  S     6.760574  4.963787 -2.003098
  S     7.408936  9.750901 -5.984481
  S     4.360098  9.409462 -3.179818
  S     6.882532  8.630598 -2.097501
