16  
    
  C     5.168699  6.287113 -4.483909
  C     6.434403  6.015004 -3.839958
  C     5.496112  9.699697 -4.249834
  C     6.772003  9.333256 -3.685682
  N     7.433488  5.962409 -4.729313
  N     5.270441  6.538134 -5.822480
  N     4.631342  5.943063 -2.030236
  N     7.706922  9.242380 -4.618992
  N     5.431093  9.884404 -5.564182
  N     5.039813  9.289484 -1.694157
  S     6.886334  6.349598 -6.240308
  S     3.811353  6.372537 -3.396634
  S     6.273125  5.892768 -2.092600
  S     7.003569  9.749717 -6.045018
  S     4.148552  9.599678 -3.107795
  S     6.707489  8.946695 -1.949296
