16  
    
  C     5.122137  5.949210 -4.297163
  C     6.323913  5.570727 -3.653870
  C     5.489113  9.417690 -4.021233
  C     6.724511  8.931076 -3.466199
  N     7.396114  5.352772 -4.414835
  N     5.167246  5.946449 -5.624486
  N     4.538756  5.868782 -1.772513
  N     7.676602  8.715657 -4.327056
  N     5.465418  9.471922 -5.348652
  N     5.232311  9.611031 -1.473786
  S     6.797227  5.696081 -5.969313
  S     3.789796  6.316412 -3.232921
  S     6.153738  5.537468 -1.905670
  S     7.010730  9.001750 -5.768418
  S     4.341902  9.983111 -2.831376
  S     6.581012  8.726070 -1.786022
