16  
    
  C     5.418625  6.394160 -4.461804
  C     6.618463  5.987633 -3.754796
  C     5.514458  9.782585 -4.394767
  C     6.760316  9.475709 -3.712255
  N     7.686604  5.906323 -4.510374
  N     5.518817  6.427060 -5.788051
  N     4.780461  6.248669 -1.904301
  N     7.761055  9.256280 -4.572546
  N     5.649674  9.853091 -5.746266
  N     5.091156  9.387984 -1.851424
  S     7.132752  6.148103 -6.109435
  S     3.997833  6.525458 -3.353439
  S     6.409913  5.793150 -2.006763
  S     7.266238  9.629728 -6.096346
  S     4.176775  9.763957 -3.268362
  S     6.697570  9.125609 -2.052071
