16  
    
  C     5.219370  6.277474 -4.369626
  C     6.323490  5.574242 -3.675709
  C     5.629343  9.597068 -4.220146
  C     6.788890  9.036113 -3.559667
  N     7.404154  5.341206 -4.426864
  N     5.493263  6.519844 -5.663567
  N     4.564612  6.244665 -1.868965
  N     7.708079  8.692731 -4.405160
  N     5.742901  9.785920 -5.521949
  N     5.183497  9.489929 -1.670834
  S     6.963464  5.868209 -5.964084
  S     3.861130  6.602053 -3.323919
  S     6.126838  5.581634 -1.899298
  S     7.237564  9.225021 -5.932565
  S     4.330415  9.840991 -3.048703
  S     6.784706  8.950537 -1.829808
