16  
    
  C     5.304955  6.331389 -4.658548
  C     6.529858  5.967248 -4.011186
  C     5.721011  9.772776 -4.382682
  C     6.958275  9.363187 -3.754716
  N     7.542048  5.738144 -4.900452
  N     5.375797  6.431446 -6.005213
  N     4.837962  6.371442 -2.058505
  N     8.036078  9.158801 -4.535560
  N     5.793141  9.855674 -5.696972
  N     5.210001  9.549531 -1.867851
  S     6.957552  5.964952 -6.386494
  S     4.060447  6.756523 -3.499999
  S     6.421523  5.892655 -2.305760
  S     7.409327  9.486780 -6.053000
  S     4.389466  9.966396 -3.282424
  S     6.756479  9.240061 -2.056196
