16  
    
  C     5.565906  5.585047 -4.543636
  C     6.841996  5.428302 -3.972234
  C     5.369405  9.695038 -4.228603
  C     6.570833  9.249575 -3.595742
  N     7.870472  5.623603 -4.766525
  N     5.580817  5.938911 -5.805870
  N     5.104934  5.430485 -1.999563
  N     7.606039  9.154216 -4.438976
  N     5.518044  9.966205 -5.532602
  N     4.954185  9.201767 -1.690861
  S     7.162794  5.856725 -6.252459
  S     4.300823  5.451217 -3.473557
  S     6.738549  5.186083 -2.205759
  S     7.093930  9.625604 -5.894308
  S     4.083265  9.668669 -3.064486
  S     6.565890  8.974622 -1.904769
