16  
    
  C     5.661410  5.485764 -4.404354
  C     6.855782  5.186117 -3.633380
  C     5.553855  9.596679 -4.319485
  C     6.721737  9.057208 -3.678336
  N     7.864562  4.881120 -4.474598
  N     5.770715  5.373980 -5.756721
  N     4.949425  5.609870 -1.888009
  N     7.772422  8.859668 -4.451456
  N     5.733627  9.716536 -5.626906
  N     4.892531  9.086795 -1.854867
  S     7.360201  5.086776 -6.025296
  S     4.276833  5.659633 -3.403797
  S     6.631922  5.259630 -1.897072
  S     7.213633  9.170498 -5.971678
  S     4.200766  9.643890 -3.257495
  S     6.548943  8.798001 -1.974971
