16  
    
  C     5.658389  5.262649 -4.285639
  C     6.949921  5.026021 -3.667912
  C     5.567624  9.385639 -4.500564
  C     6.724568  8.965660 -3.759504
  N     7.888918  4.749190 -4.566854
  N     5.625778  5.348386 -5.603980
  N     5.271197  5.292254 -1.723349
  N     7.851431  8.742837 -4.432735
  N     5.873926  9.574687 -5.776886
  N     4.798463  9.101129 -2.089104
  S     7.231225  5.080559 -6.037742
  S     4.337844  5.440159 -3.151447
  S     6.859345  4.990287 -1.980096
  S     7.458058  9.123846 -6.012290
  S     4.172117  9.697506 -3.546365
  S     6.412557  8.704073 -2.082715
