16  
    
  C     5.570469  6.124048 -4.341377
  C     6.803481  5.533373 -3.791814
  C     5.485555  9.575922 -4.260907
  C     6.753596  9.081439 -3.698571
  N     7.777252  5.330372 -4.698975
  N     5.583164  6.275126 -5.660698
  N     5.032887  5.644424 -1.899916
  N     7.754599  8.930893 -4.567029
  N     5.627551  9.923483 -5.519191
  N     5.108571  9.420817 -1.728237
  S     7.134025  5.881024 -6.147919
  S     4.302956  6.327662 -3.221747
  S     6.646998  5.369991 -2.099386
  S     7.148783  9.467343 -5.974185
  S     4.174779  9.682971 -3.127774
  S     6.687489  8.959640 -2.022524
