16  
    
  C     5.820846  5.663626 -4.083917
  C     6.984425  5.091321 -3.393743
  C     5.648996  9.590837 -4.255033
  C     6.886130  9.066090 -3.717782
  N     8.051991  4.828297 -4.155090
  N     6.081274  5.907849 -5.357882
  N     5.082718  5.159267 -1.686952
  N     7.920672  9.137681 -4.548467
  N     5.733501 10.081212 -5.478615
  N     5.087728  8.894757 -1.847972
  S     7.668023  5.513380 -5.648613
  S     4.487601  5.814731 -3.046492
  S     6.683920  4.601603 -1.755875
  S     7.282354  9.807177 -5.997759
  S     4.358283  9.741850 -3.105312
  S     6.722220  8.425846 -2.084678
