16  
    
  C     5.530187  5.756900 -4.429258
  C     6.649668  5.170328 -3.751248
  C     5.707008  9.397737 -4.291037
  C     6.891550  8.979238 -3.570277
  N     7.736097  5.004602 -4.505718
  N     5.719728  5.954697 -5.744596
  N     4.781726  5.469081 -1.998350
  N     7.912206  8.734118 -4.371386
  N     5.845059  9.550083 -5.593271
  N     5.104801  9.202295 -1.695332
  S     7.284064  5.403423 -6.054871
  S     4.244710  6.222408 -3.354011
  S     6.379758  4.968249 -1.990316
  S     7.396643  9.139098 -5.982101
  S     4.378666  9.593905 -3.166277
  S     6.710441  8.733681 -1.821778
