16  
    
  C     5.459504  5.988698 -4.408783
  C     6.704996  5.504372 -3.841063
  C     5.692930  9.776401 -4.575546
  C     6.829609  9.126840 -3.924061
  N     7.623966  5.243191 -4.744854
  N     5.453295  6.231871 -5.713149
  N     5.000783  5.672892 -1.864044
  N     7.751310  8.873583 -4.830297
  N     5.712285  9.943320 -5.889080
  N     5.224433  9.646057 -1.998782
  S     6.987443  5.728943 -6.186285
  S     4.169815  6.214701 -3.192112
  S     6.583671  5.346570 -2.089472
  S     7.211166  9.332926 -6.361849
  S     4.485887 10.242872 -3.422609
  S     6.644353  8.896612 -2.235388
