16  
    
  C     5.643050  5.735165 -4.337951
  C     6.848695  5.097888 -3.798664
  C     5.710055  9.898347 -4.468694
  C     6.930122  9.442122 -3.834075
  N     7.762910  5.036157 -4.733558
  N     5.712285  6.135477 -5.595479
  N     5.281949  5.377026 -1.828419
  N     8.040256  9.336315 -4.612944
  N     5.906094 10.196547 -5.745535
  N     5.021476  8.896865 -2.196892
  S     7.233312  5.723701 -6.120762
  S     4.443479  5.827772 -3.129543
  S     6.834768  4.852188 -2.108072
  S     7.471841  9.774944 -6.137229
  S     4.333914  9.712675 -3.501384
  S     6.695121  8.802139 -2.194348
