16  
    
  C     5.448003  5.907752 -4.403294
  C     6.684977  5.532353 -3.856587
  C     5.436062  9.669186 -4.597546
  C     6.569713  9.153713 -3.863295
  N     7.643050  5.143688 -4.712156
  N     5.437342  5.998933 -5.737031
  N     5.019034  5.704296 -1.827224
  N     7.540134  8.822917 -4.682138
  N     5.547251  9.782249 -5.910536
  N     4.809431  9.422586 -2.106501
  S     6.972182  5.480197 -6.216258
  S     4.172936  6.000865 -3.263795
  S     6.608483  5.289665 -2.099865
  S     7.040679  9.197857 -6.252485
  S     4.009017  9.803374 -3.547826
  S     6.511362  9.231562 -2.173619
