16  
    
  C     5.429479  6.089597 -4.438726
  C     6.605594  5.563646 -3.801877
  C     5.458877  9.794352 -4.386137
  C     6.704560  9.318450 -3.856168
  N     7.568520  5.198599 -4.657230
  N     5.480379  6.318268 -5.749437
  N     4.810026  5.814654 -1.931023
  N     7.737906  9.271496 -4.700519
  N     5.546845 10.002171 -5.679160
  N     4.873690  9.537596 -1.925819
  S     6.966923  5.716527 -6.153752
  S     4.113394  6.382026 -3.327941
  S     6.374232  5.328973 -2.079787
  S     7.053413  9.631451 -6.203610
  S     4.130763  9.948122 -3.319421
  S     6.516839  9.024793 -2.100306
