16  
    
  C     5.191032  6.377201 -4.259718
  C     6.326383  5.764738 -3.627500
  C     5.856795  9.578582 -4.156782
  C     7.077808  9.049025 -3.633443
  N     7.335909  5.563730 -4.473673
  N     5.333417  6.507765 -5.571071
  N     4.396470  5.930994 -1.892966
  N     8.048415  8.780390 -4.536073
  N     5.912995  9.778806 -5.459009
  N     5.407347  9.653992 -1.625098
  S     6.911097  5.995510 -6.004922
  S     3.816033  6.711679 -3.239801
  S     6.006314  5.442417 -1.959229
  S     7.362829  9.198565 -5.990723
  S     4.568114  9.899961 -3.061071
  S     6.942063  8.880746 -1.802660
