16  
    
  C     5.557642  5.607995 -4.304287
  C     6.665357  5.043950 -3.644048
  C     5.507777  9.268863 -4.295491
  C     6.724691  8.758441 -3.682939
  N     7.764840  4.950653 -4.363999
  N     5.738024  5.848737 -5.612430
  N     4.979905  5.627260 -1.770737
  N     7.782181  8.651524 -4.497104
  N     5.654350  9.397207 -5.608686
  N     4.974439  9.121552 -1.787112
  S     7.266331  5.336586 -5.914463
  S     4.243236  6.043276 -3.207088
  S     6.540631  5.004386 -1.961556
  S     7.256134  9.149342 -5.959449
  S     4.198251  9.565762 -3.187487
  S     6.557305  8.570643 -1.947765
