16  
    
  C     5.389956  5.687012 -4.373581
  C     6.652980  5.386289 -3.731843
  C     5.367708 10.078809 -4.571656
  C     6.531470  9.374483 -3.983030
  N     7.663377  5.298478 -4.632948
  N     5.410743  5.938469 -5.698964
  N     4.930801  5.598014 -1.846525
  N     7.525087  9.237264 -4.854134
  N     5.525768 10.425892 -5.829846
  N     4.693108  9.678770 -2.064252
  S     7.005677  5.662157 -6.074453
  S     4.077174  5.627604 -3.263094
  S     6.540604  5.287496 -1.995677
  S     6.931780  9.828029 -6.317137
  S     3.983787 10.295640 -3.544825
  S     6.223050  9.138485 -2.297843
