16  
    
  C     5.195240  6.166868 -4.320615
  C     6.312974  5.545881 -3.696085
  C     5.448974  9.751439 -4.302824
  C     6.673516  9.243636 -3.718356
  N     7.382558  5.360912 -4.475988
  N     5.342499  6.325919 -5.624504
  N     4.627475  5.962586 -1.804411
  N     7.657282  8.990217 -4.560192
  N     5.551784  9.965563 -5.612305
  N     5.035197  9.557231 -1.714368
  S     6.840656  5.855708 -5.995655
  S     3.926925  6.532441 -3.225170
  S     6.142811  5.310703 -1.956218
  S     7.068408  9.450888 -6.088002
  S     4.184672 10.030178 -3.093262
  S     6.611644  9.007911 -1.961024
