16  
    
  C     5.665029  5.716131 -4.435969
  C     6.935246  5.371632 -3.860260
  C     5.181014  9.609134 -4.401056
  C     6.401191  9.149900 -3.779444
  N     7.949821  5.285989 -4.725141
  N     5.646837  5.730353 -5.772792
  N     5.259289  5.672117 -1.853028
  N     7.382367  8.871164 -4.614175
  N     5.295623  9.757717 -5.739648
  N     4.824737  9.567644 -1.857064
  S     7.203592  5.456416 -6.197941
  S     4.364859  5.884719 -3.286862
  S     6.828372  5.164303 -2.069361
  S     6.807244  9.355408 -6.125224
  S     3.990326 10.164460 -3.194553
  S     6.417833  9.112860 -2.075184
