16  
    
  C     5.477904  5.826265 -4.493281
  C     6.694511  5.526851 -3.801154
  C     5.619998  9.324583 -4.069000
  C     6.882424  8.954510 -3.479801
  N     7.726566  5.468600 -4.613179
  N     5.628267  6.085515 -5.770834
  N     4.958313  5.686974 -1.960056
  N     7.846268  8.686673 -4.349491
  N     5.663026  9.456397 -5.376515
  N     5.082124  8.757376 -1.647758
  S     7.246055  5.795694 -6.181880
  S     4.180143  5.874128 -3.390032
  S     6.586644  5.503309 -2.068325
  S     7.239822  9.049643 -5.837947
  S     4.281924  9.181477 -3.065751
  S     6.750844  8.672766 -1.746401
