16  
    
  C     5.447558  5.978061 -4.362372
  C     6.703996  5.512220 -3.664385
  C     5.289484  9.554004 -4.381330
  C     6.553848  9.251376 -3.754133
  N     7.789909  5.595966 -4.445997
  N     5.606384  6.287006 -5.660844
  N     4.845745  5.435957 -1.880692
  N     7.582257  9.131313 -4.591178
  N     5.352437  9.679019 -5.712315
  N     4.947219  9.390136 -1.784220
  S     7.177995  6.058355 -5.948396
  S     4.108034  6.012481 -3.247494
  S     6.455835  5.138444 -2.031806
  S     6.984938  9.425560 -6.108674
  S     4.061109  9.671796 -3.181615
  S     6.558078  8.960947 -2.066899
