16  
    
  C     5.649569  5.602235 -4.254592
  C     6.991964  5.228066 -3.676273
  C     5.805644  9.792428 -4.350611
  C     6.975558  9.185519 -3.807171
  N     7.997395  5.262154 -4.548951
  N     5.758340  5.972173 -5.526052
  N     5.259633  5.225586 -1.735998
  N     7.983901  8.994244 -4.707841
  N     5.908709 10.080965 -5.676827
  N     5.168093  9.138924 -1.901194
  S     7.344384  5.794214 -6.015583
  S     4.350718  5.673747 -3.089957
  S     6.903369  4.934418 -1.963920
  S     7.432024  9.545434 -6.131662
  S     4.400705  9.690526 -3.297957
  S     6.800773  8.792074 -2.149900
