16  
    
  C     5.529235  5.221295 -4.309460
  C     6.859585  5.017779 -3.719085
  C     5.597615  9.421692 -4.500789
  C     6.747177  8.966113 -3.756195
  N     7.869715  5.061857 -4.583253
  N     5.582152  5.259418 -5.632572
  N     5.268288  5.243648 -1.722997
  N     7.854938  8.753287 -4.470623
  N     5.757849  9.392075 -5.827363
  N     4.731632  9.145115 -2.093559
  S     7.146973  5.011161 -6.123111
  S     4.291022  5.413838 -3.038293
  S     6.920983  4.985088 -2.001826
  S     7.355567  9.021702 -6.084866
  S     4.176835  9.634753 -3.541259
  S     6.313919  8.666022 -2.055037
