16  
    
  C     5.647473  5.451188 -4.443656
  C     6.915730  5.156161 -3.694353
  C     5.410374  9.343386 -4.479864
  C     6.611484  8.958346 -3.794459
  N     7.975399  4.953320 -4.455577
  N     5.799817  5.542760 -5.747736
  N     5.158673  5.435651 -1.878249
  N     7.676802  8.738769 -4.553297
  N     5.531701  9.375882 -5.814632
  N     4.867024  9.320878 -1.901962
  S     7.420751  5.256379 -6.034621
  S     4.322558  5.511643 -3.331699
  S     6.762988  5.024000 -1.976094
  S     7.155844  8.974650 -6.137918
  S     4.157374  9.811065 -3.354144
  S     6.424214  8.810166 -2.107681
