16  
    
  C     5.586714  5.380046 -4.189704
  C     6.812631  5.186919 -3.480714
  C     5.328699  9.188779 -4.325226
  C     6.571369  8.681254 -3.781063
  N     7.853897  4.951370 -4.259085
  N     5.688833  5.318181 -5.513901
  N     4.995936  5.256935 -1.635314
  N     7.578250  8.457467 -4.622567
  N     5.395999  9.351693 -5.654209
  N     4.911368  9.018740 -1.799898
  S     7.274768  5.158499 -5.863030
  S     4.168366  5.606588 -3.094097
  S     6.589583  4.849505 -1.806113
  S     6.914888  8.833536 -6.110524
  S     4.198034  9.743188 -3.144854
  S     6.445610  8.489659 -2.035758
