16  
    
  C     5.561670  5.888920 -4.473604
  C     6.720880  5.334960 -3.791648
  C     5.557442  9.768260 -4.221561
  C     6.807142  9.248993 -3.644412
  N     7.796726  5.219116 -4.579228
  N     5.756258  6.027870 -5.780770
  N     4.888658  5.619144 -2.064703
  N     7.738079  9.029323 -4.577684
  N     5.563739  9.958937 -5.555799
  N     5.082727  9.216351 -1.696917
  S     7.298996  5.605545 -6.166816
  S     4.219096  6.196185 -3.436685
  S     6.485080  5.096834 -2.118867
  S     7.155815  9.614300 -6.034599
  S     4.219537  9.877084 -3.024127
  S     6.663119  8.747115 -2.015762
