16  
    
  C     5.572902  5.935845 -4.259572
  C     6.676584  5.294071 -3.652579
  C     5.946718  9.156437 -3.988585
  C     7.213000  8.780615 -3.373496
  N     7.694478  4.908053 -4.445184
  N     5.734719  6.150157 -5.577263
  N     4.923282  5.725546 -1.781003
  N     8.211334  8.671658 -4.258662
  N     5.954854  9.453935 -5.275812
  N     5.445639  8.931642 -1.526474
  S     7.194881  5.491554 -5.927359
  S     4.175235  6.175848 -3.223393
  S     6.489728  5.200358 -1.927621
  S     7.512958  9.173041 -5.756964
  S     4.597269  9.058329 -2.912668
  S     7.072312  8.422858 -1.665476
