16  
    
  C     5.434173  6.080960 -4.394818
  C     6.722515  5.718420 -3.756008
  C     5.487538  9.648554 -4.305046
  C     6.747944  9.223318 -3.695481
  N     7.726155  5.628291 -4.641580
  N     5.467997  6.078058 -5.737746
  N     4.982600  5.756317 -1.883981
  N     7.729639  9.077013 -4.568896
  N     5.571026  9.880836 -5.583694
  N     5.017266  9.547235 -1.731140
  S     7.119599  5.836896 -6.160649
  S     4.189706  6.269197 -3.229354
  S     6.616058  5.495860 -2.077146
  S     7.128841  9.481259 -6.048908
  S     4.130162  9.813712 -3.167011
  S     6.547638  8.896537 -1.909609
