16  
    
  C     5.518101  5.883506 -4.464723
  C     6.715301  5.550580 -3.851286
  C     5.423065  9.393870 -4.344348
  C     6.706221  9.024488 -3.797347
  N     7.780430  5.408720 -4.638249
  N     5.607567  5.961821 -5.790894
  N     5.078370  5.706521 -1.878202
  N     7.649599  8.945342 -4.721495
  N     5.472646  9.740332 -5.649578
  N     5.078716  9.430757 -1.795768
  S     7.203740  5.625732 -6.204501
  S     4.216098  5.929331 -3.327028
  S     6.714567  5.475183 -2.117054
  S     7.056283  9.404040 -6.148166
  S     4.202718  9.825651 -3.151660
  S     6.685302  9.146123 -2.022065
