16  
    
  C     5.350109  6.405654 -4.626400
  C     6.558806  5.926612 -4.009876
  C     5.767482  9.796749 -4.348476
  C     7.006111  9.444827 -3.723189
  N     7.579448  5.738466 -4.777861
  N     5.416857  6.394830 -5.934795
  N     4.862035  6.340420 -2.091312
  N     8.004543  9.139939 -4.554573
  N     5.804009  9.782164 -5.677647
  N     5.081721  9.632222 -1.886361
  S     6.955204  5.942717 -6.383362
  S     4.138558  6.757215 -3.504035
  S     6.436407  5.875441 -2.274430
  S     7.389557  9.512038 -6.069985
  S     4.407385  9.965610 -3.322361
  S     6.730151  9.244522 -2.024575
