16  
    
  C     5.577137  5.362356 -4.189845
  C     6.886323  5.220277 -3.545672
  C     5.683838  9.328296 -4.185018
  C     6.961688  9.138821 -3.556044
  N     7.923939  5.239737 -4.405321
  N     5.707944  5.375971 -5.515087
  N     5.105542  5.804827 -1.748969
  N     7.980498  9.170845 -4.436353
  N     5.732080  9.508748 -5.486544
  N     5.128170  8.830707 -1.717514
  S     7.279649  5.308884 -5.907263
  S     4.209505  5.771626 -3.139383
  S     6.762751  5.425304 -1.833746
  S     7.301270  9.389587 -5.910325
  S     4.295996  9.054849 -3.171988
  S     6.766831  8.890117 -1.815630
