16  
    
  C     5.748019  5.767632 -4.357226
  C     6.959053  5.248651 -3.724165
  C     5.699455  9.406184 -4.333720
  C     6.917659  8.818139 -3.826793
  N     7.952089  5.064475 -4.554466
  N     5.906007  6.003715 -5.641444
  N     5.127551  5.344728 -1.937138
  N     7.935747  8.954392 -4.702357
  N     5.830546 10.024829 -5.500998
  N     5.228256  8.847458 -1.846098
  S     7.466503  5.597957 -6.083670
  S     4.416904  5.850879 -3.302396
  S     6.771958  4.974892 -2.011876
  S     7.416079  9.742034 -5.981663
  S     4.354848  9.413950 -3.168880
  S     6.907878  8.662391 -2.112317
