16  
    
  C     5.374130  6.034408 -4.506154
  C     6.508246  5.572715 -3.775803
  C     5.350682  9.664924 -4.187875
  C     6.563109  9.329169 -3.523667
  N     7.625569  5.404844 -4.491474
  N     5.526021  6.182696 -5.813372
  N     4.658199  5.870365 -1.992701
  N     7.639690  9.137591 -4.329835
  N     5.492774  9.814405 -5.535235
  N     4.724092  9.315664 -1.714697
  S     7.098713  5.763877 -6.076289
  S     3.892624  6.170030 -3.442856
  S     6.285838  5.450804 -2.017811
  S     7.084285  9.458983 -5.905814
  S     3.949903  9.767621 -3.127923
  S     6.423513  9.028761 -1.901740
