16  
    
  C     5.359904  5.710319 -4.514122
  C     6.506680  5.226772 -3.732544
  C     5.293703  9.442753 -4.374046
  C     6.514821  9.012243 -3.697961
  N     7.562600  5.056879 -4.533504
  N     5.580745  5.810852 -5.820169
  N     4.664770  5.762597 -2.053866
  N     7.479923  8.767967 -4.550822
  N     5.340764  9.580897 -5.688246
  N     4.758707  9.452001 -1.857492
  S     7.224183  5.529260 -6.094832
  S     4.043325  6.164749 -3.534684
  S     6.258132  5.283106 -2.035205
  S     6.904418  9.089098 -6.083326
  S     3.997861  9.683656 -3.342347
  S     6.368195  8.874354 -1.929308
