16  
    
  C     5.426021  5.966310 -4.365726
  C     6.618634  5.640227 -3.665882
  C     5.293090  9.406511 -4.389147
  C     6.587905  9.104004 -3.819104
  N     7.618797  5.386869 -4.513065
  N     5.506461  6.017348 -5.703374
  N     4.776355  5.605835 -1.858571
  N     7.596148  8.994202 -4.665366
  N     5.290153  9.431428 -5.711993
  N     4.932667  9.383098 -1.899241
  S     7.074424  5.653465 -6.053101
  S     4.049407  6.077560 -3.279337
  S     6.424224  5.255629 -1.968092
  S     6.923174  9.136106 -6.138090
  S     4.096341  9.705265 -3.273228
  S     6.551220  9.131151 -2.061569
