16  
    
  C     5.579237  6.065971 -4.206722
  C     6.723615  5.495498 -3.563787
  C     5.862644  9.581510 -4.213291
  C     7.075112  9.067814 -3.627990
  N     7.767288  5.286381 -4.378397
  N     5.710658  6.162919 -5.521577
  N     5.043333  5.999040 -1.688064
  N     8.059494  8.884242 -4.520678
  N     5.856532  9.712288 -5.533062
  N     5.444165  9.613745 -1.708077
  S     7.268381  5.698974 -5.931486
  S     4.362061  6.603492 -3.121268
  S     6.535933  5.294048 -1.848931
  S     7.505788  9.401148 -5.972255
  S     4.599578 10.001633 -3.057399
  S     6.947751  9.012921 -1.931998
