16  
    
  C     5.428408  6.101341 -4.168266
  C     6.628848  5.385387 -3.653501
  C     5.499751  9.528059 -4.276577
  C     6.699728  9.058053 -3.672298
  N     7.553030  5.209149 -4.573174
  N     5.540596  6.351609 -5.450807
  N     4.923183  5.539235 -1.728744
  N     7.733588  8.926844 -4.552880
  N     5.641606  9.879271 -5.591875
  N     4.795262  9.284598 -1.807661
  S     7.072546  5.807034 -6.022682
  S     4.153336  6.232407 -3.053223
  S     6.535230  5.196672 -1.940533
  S     7.178376  9.469512 -6.031009
  S     4.010243  9.639627 -3.256577
  S     6.464121  8.819293 -1.981320
