16  
    
  C     5.389770  5.832757 -4.524629
  C     6.534579  5.288468 -3.808411
  C     5.305742  9.398292 -4.393987
  C     6.453859  8.828858 -3.737048
  N     7.617815  5.048560 -4.529751
  N     5.593589  5.975914 -5.832077
  N     4.647100  5.699442 -2.121889
  N     7.479793  8.500981 -4.519265
  N     5.547027  9.665205 -5.659293
  N     4.744996  9.496540 -1.851418
  S     7.153770  5.378265 -6.110566
  S     3.981872  6.178982 -3.534408
  S     6.239784  5.288667 -2.106988
  S     7.033095  9.128563 -6.051055
  S     3.937652  9.730783 -3.268211
  S     6.271826  8.919801 -2.016829
