16  
    
  C     5.549023  5.674137 -4.731503
  C     6.797409  5.570399 -4.032887
  C     5.425701  9.687573 -4.207237
  C     6.662067  9.305778 -3.576530
  N     7.820230  5.681773 -4.824326
  N     5.563199  5.902703 -6.031259
  N     5.097607  5.306531 -2.113909
  N     7.740034  9.367007 -4.386370
  N     5.535265  9.972795 -5.517860
  N     4.817213  9.223264 -1.785429
  S     7.241937  5.831005 -6.411319
  S     4.236385  5.577870 -3.555762
  S     6.752055  5.400901 -2.316009
  S     7.094619  9.821878 -5.903294
  S     4.119216  9.798137 -3.141605
  S     6.443737  8.761872 -1.907482
