16  
    
  C     5.435260  6.399979 -4.603514
  C     6.636938  5.956547 -3.924408
  C     5.775641  9.797456 -4.374979
  C     6.977757  9.460712 -3.673662
  N     7.643737  5.675201 -4.793898
  N     5.456178  6.397352 -5.949167
  N     4.903652  6.297333 -2.129076
  N     7.951965  9.208756 -4.556985
  N     5.840354  9.785314 -5.705012
  N     5.068962  9.701919 -1.884142
  S     6.967421  5.921534 -6.312283
  S     4.138236  6.777361 -3.509619
  S     6.478401  5.848552 -2.209083
  S     7.383694  9.497898 -6.107028
  S     4.375661  9.969938 -3.379791
  S     6.726558  9.241963 -1.946701
