16  
    
  C     5.664181  5.918635 -4.339072
  C     6.858676  5.459958 -3.702246
  C     5.899636  9.415211 -4.181287
  C     7.120420  8.968783 -3.563026
  N     7.972566  5.428087 -4.453389
  N     5.792318  6.208530 -5.639547
  N     5.022150  5.627477 -1.859770
  N     8.170169  8.743747 -4.381043
  N     5.971135  9.462805 -5.484477
  N     5.278254  9.233389 -1.744034
  S     7.376485  5.868281 -5.948956
  S     4.331657  6.295126 -3.236843
  S     6.570724  5.167952 -2.038981
  S     7.564027  9.034620 -5.928339
  S     4.524446  9.604311 -3.170331
  S     6.866635  8.675404 -1.878885
