16  
    
  C     5.198359  5.292038 -3.984506
  C     6.397371  4.946099 -3.314807
  C     5.329580  9.451513 -4.235404
  C     6.546297  9.128251 -3.543195
  N     7.455129  4.746655 -4.106740
  N     5.360499  5.324987 -5.291647
  N     4.610669  5.163293 -1.477718
  N     7.576792  8.965501 -4.369747
  N     5.453881  9.427881 -5.589579
  N     4.763810  9.207410 -1.694377
  S     6.970193  5.127566 -5.603127
  S     3.829163  5.272830 -2.981924
  S     6.235984  4.711681 -1.566527
  S     7.026166  9.028347 -5.898714
  S     3.982097  9.651871 -3.110920
  S     6.386541  8.835947 -1.826079
