16  
    
  C     5.629136  5.660759 -4.082091
  C     6.883017  5.283269 -3.546328
  C     5.544075  8.988951 -4.186030
  C     6.846442  8.979373 -3.521733
  N     7.805368  4.964780 -4.445565
  N     5.590287  5.796144 -5.391278
  N     5.204113  5.452331 -1.571232
  N     7.882000  8.987707 -4.367468
  N     5.548194  9.073281 -5.504937
  N     5.084207  9.002458 -1.650995
  S     7.085508  5.319535 -5.900600
  S     4.391079  5.812763 -2.947226
  S     6.842175  5.307782 -1.833301
  S     7.168494  9.073176 -5.931275
  S     4.191612  8.963857 -3.071948
  S     6.743802  8.842882 -1.775387
