16  
    
  C     5.530455  6.035175 -4.342963
  C     6.774410  5.695108 -3.689393
  C     5.680268  9.486317 -4.371497
  C     6.872702  9.103040 -3.722226
  N     7.798202  5.505081 -4.450021
  N     5.594195  6.149561 -5.654863
  N     4.921034  5.896987 -1.896002
  N     7.885405  8.954138 -4.587546
  N     5.767152  9.558045 -5.682864
  N     5.146836  9.372022 -1.859710
  S     7.122614  5.776449 -6.086736
  S     4.202111  6.364967 -3.323213
  S     6.577551  5.545292 -1.929507
  S     7.333133  9.361324 -6.080762
  S     4.296663  9.656583 -3.293890
  S     6.678607  8.860185 -2.007704
