16  
    
  C     5.482795  6.027930 -4.190454
  C     6.577517  5.232791 -3.600239
  C     5.645686  9.924804 -4.457492
  C     6.775048  9.209741 -3.851307
  N     7.499880  4.933412 -4.483817
  N     5.651372  6.267228 -5.488037
  N     4.991364  5.800961 -1.750564
  N     7.839116  8.997514 -4.625600
  N     5.958632 10.355774 -5.669473
  N     4.673402  9.096338 -2.297326
  S     7.072127  5.536247 -5.993220
  S     4.139071  6.195121 -3.127974
  S     6.404618  4.968701 -1.967650
  S     7.454940  9.680029 -6.087667
  S     4.171514 10.015495 -3.630159
  S     6.294304  8.660510 -2.224691
