16  
    
  C     5.469662  5.811875 -4.111790
  C     6.508716  4.932101 -3.566484
  C     5.684411  9.433783 -4.464855
  C     6.893896  8.919948 -3.838498
  N     7.375488  4.425063 -4.460302
  N     5.559612  6.006698 -5.446814
  N     4.992593  5.595977 -1.585523
  N     7.951835  8.742990 -4.644625
  N     5.757389  9.609518 -5.754663
  N     4.977726  9.171165 -2.052414
  S     6.948876  5.199696 -5.901918
  S     4.314432  6.343601 -2.939818
  S     6.301553  4.640116 -1.934747
  S     7.314504  9.154455 -6.195778
  S     4.411774  9.935503 -3.434954
  S     6.540632  8.653801 -2.147867
