16  
    
  C     5.609827  5.788224 -4.322094
  C     6.762068  5.161271 -3.693807
  C     5.541260  9.238683 -4.412973
  C     6.757431  8.824297 -3.766008
  N     7.651250  4.716963 -4.597794
  N     5.694657  5.987957 -5.638290
  N     4.951758  5.428682 -1.797030
  N     7.824290  8.658369 -4.532923
  N     5.733462  9.502773 -5.708307
  N     5.055752  9.154083 -1.822494
  S     7.145790  5.409495 -6.094987
  S     4.269887  6.013903 -3.193556
  S     6.566805  5.019903 -1.926120
  S     7.292943  9.030984 -6.070463
  S     4.279102  9.463825 -3.253404
  S     6.658037  8.634833 -2.039222
