16  
    
  C     5.617942  5.737948 -4.510658
  C     6.832426  5.315582 -3.900065
  C     5.198207  9.761961 -4.371365
  C     6.375758  9.266817 -3.703641
  N     7.869684  5.199359 -4.721085
  N     5.656019  5.923693 -5.841612
  N     5.210835  5.736388 -1.891819
  N     7.302756  8.778386 -4.528686
  N     5.274858  9.809711 -5.716719
  N     4.568679  9.579109 -1.888529
  S     7.224074  5.536940 -6.192186
  S     4.304502  5.829863 -3.295391
  S     6.824497  5.325276 -2.098447
  S     6.710886  9.088021 -6.108424
  S     3.920605 10.032294 -3.303998
  S     6.188680  9.162657 -1.921389
