16  
    
  C     5.467461  6.020184 -4.273294
  C     6.652005  5.566947 -3.669595
  C     5.362928  9.510220 -4.397228
  C     6.617106  9.201534 -3.804485
  N     7.703626  5.558023 -4.492066
  N     5.584110  6.274968 -5.566725
  N     4.878141  5.509362 -1.818694
  N     7.604657  9.200925 -4.661971
  N     5.368152  9.693020 -5.687056
  N     4.937086  9.314524 -1.795618
  S     7.252948  6.056712 -5.969243
  S     4.123090  6.032801 -3.212899
  S     6.498869  5.062596 -2.001290
  S     6.929955  9.411239 -6.137262
  S     4.124607  9.662046 -3.210615
  S     6.519664  8.921647 -2.037103
