16  
    
  C     5.639035  5.741318 -4.365677
  C     6.840931  5.277488 -3.768327
  C     5.432848  9.400853 -4.637021
  C     6.689388  9.220912 -3.978389
  N     7.885207  5.144125 -4.581521
  N     5.615803  5.868429 -5.686262
  N     5.172156  5.723413 -1.846020
  N     7.816664  9.288848 -4.671451
  N     5.660386  9.552579 -5.954930
  N     4.842691  9.313372 -2.179612
  S     7.188196  5.482928 -6.128160
  S     4.290775  6.070169 -3.219462
  S     6.689342  5.157919 -2.040866
  S     7.255854  9.612418 -6.234289
  S     4.118727  9.633983 -3.628257
  S     6.490470  8.964766 -2.245322
