16  
    
  C     5.527996  5.930905 -4.372037
  C     6.795377  5.518613 -3.721728
  C     5.733713  9.455469 -4.431840
  C     7.000987  9.115182 -3.761352
  N     7.859772  5.419662 -4.463601
  N     5.703197  6.014841 -5.701062
  N     4.970071  5.594485 -1.873397
  N     8.056583  8.965066 -4.539341
  N     5.944764  9.671556 -5.713735
  N     5.188627  9.343722 -1.907072
  S     7.306705  5.730868 -6.064648
  S     4.231139  6.107044 -3.252855
  S     6.639669  5.268049 -1.983990
  S     7.516218  9.323787 -6.062388
  S     4.407257  9.511497 -3.395410
  S     6.820501  9.096208 -2.021601
