16  
    
  C     5.171768  6.239893 -4.599353
  C     6.407620  5.832636 -3.947810
  C     5.466696  9.603027 -4.050997
  C     6.787650  9.257252 -3.477186
  N     7.468980  5.697740 -4.780209
  N     5.271599  6.474227 -5.915958
  N     4.693348  5.831663 -2.043980
  N     7.778272  9.368982 -4.323227
  N     5.572097  9.820596 -5.369539
  N     5.052501  8.995528 -1.568158
  S     6.881663  6.190172 -6.316551
  S     3.918091  6.472176 -3.375102
  S     6.298277  5.545372 -2.262903
  S     7.155125  9.844149 -5.764507
  S     4.141266  9.422350 -2.878843
  S     6.681126  8.695771 -1.856600
