16  
    
  C     5.385897  5.948117 -4.344007
  C     6.670950  5.586731 -3.798236
  C     5.593366  9.397960 -4.479401
  C     6.835433  9.096092 -3.774964
  N     7.622658  5.484460 -4.701717
  N     5.448686  6.154238 -5.653266
  N     4.965422  5.913116 -1.810914
  N     7.847078  8.948418 -4.634132
  N     5.624023  9.471638 -5.794380
  N     4.876250  9.080965 -2.016955
  S     6.982464  5.870647 -6.180585
  S     4.184922  6.265440 -3.195924
  S     6.541171  5.414326 -2.086088
  S     7.238381  9.267232 -6.156114
  S     4.171029  9.239031 -3.467028
  S     6.577475  8.790642 -2.081552
