16  
    
  C     5.248789  6.282642 -4.373211
  C     6.488322  5.747658 -3.801506
  C     5.679616  9.546955 -4.259852
  C     6.936788  9.083563 -3.645080
  N     7.477310  5.473726 -4.683017
  N     5.383471  6.543314 -5.667057
  N     4.741848  6.067469 -1.858693
  N     7.933581  8.946222 -4.487921
  N     5.823629  9.681977 -5.540967
  N     5.193955  9.459412 -1.790882
  S     6.897755  6.030966 -6.143296
  S     3.907561  6.545179 -3.207892
  S     6.324429  5.575440 -2.007926
  S     7.356696  9.298158 -6.033304
  S     4.363202  9.754848 -3.109974
  S     6.779361  8.938055 -1.933028
