16  
    
  C     5.626922  5.692867 -4.128562
  C     6.955527  5.306572 -3.536298
  C     5.537757  9.069163 -4.161447
  C     6.830290  8.938350 -3.574284
  N     7.889398  5.076010 -4.432983
  N     5.662082  5.804187 -5.432742
  N     5.249875  5.583006 -1.583592
  N     7.885247  8.995496 -4.379380
  N     5.635697  9.206407 -5.500151
  N     5.073613  8.898347 -1.644331
  S     7.115882  5.187551 -5.969307
  S     4.267871  5.730816 -2.959936
  S     6.896934  5.329590 -1.777119
  S     7.242439  9.193999 -5.908468
  S     4.213822  8.944984 -3.042179
  S     6.743716  8.932974 -1.862895
