16  
    
  C     5.577487  5.496497 -4.136503
  C     6.918098  5.289236 -3.688105
  C     5.536147  9.420938 -4.582910
  C     6.619863  8.802979 -3.834512
  N     7.827357  5.186514 -4.654184
  N     5.430819  5.593587 -5.462528
  N     5.382186  5.251924 -1.596578
  N     7.707787  8.553950 -4.527990
  N     5.783844  9.599814 -5.882068
  N     4.824344  9.309070 -2.068554
  S     6.995751  5.475037 -6.042838
  S     4.400431  5.380177 -2.871572
  S     7.036562  5.124841 -1.888075
  S     7.316179  9.054597 -6.137639
  S     4.119319  9.702490 -3.536152
  S     6.320401  8.468780 -2.195144
