16  
    
  C     5.234123  5.763297 -4.534242
  C     6.520658  5.348174 -3.876320
  C     5.443841  9.603746 -4.453490
  C     6.569737  9.073589 -3.738773
  N     7.556063  5.143361 -4.705805
  N     5.373014  5.960009 -5.844754
  N     4.767325  5.730746 -1.933598
  N     7.592723  8.785458 -4.562362
  N     5.530082  9.538184 -5.786437
  N     4.715084  9.588748 -1.960460
  S     6.962656  5.587454 -6.209086
  S     4.007415  6.182992 -3.386772
  S     6.385187  5.211179 -2.109120
  S     6.992890  8.950373 -6.144792
  S     4.105265 10.079092 -3.400105
  S     6.194495  8.900115 -2.076909
