16  
    
  C     5.473480  5.583692 -4.210455
  C     6.649234  5.188499 -3.507376
  C     5.859817  9.020039 -3.944029
  C     7.112116  8.593831 -3.396260
  N     7.709405  4.932821 -4.272404
  N     5.621273  5.654035 -5.517012
  N     4.834299  5.820831 -1.787076
  N     8.103620  8.501887 -4.292502
  N     5.953251  9.320182 -5.226483
  N     5.387392  8.310335 -1.510422
  S     7.194293  5.187181 -5.832154
  S     4.104079  6.076223 -3.234434
  S     6.358008  5.107733 -1.828732
  S     7.534606  9.019400 -5.713621
  S     4.553539  9.082231 -2.773197
  S     7.035685  8.353520 -1.681628
