16  
    
  C     5.464425  5.775491 -4.445960
  C     6.665676  5.485963 -3.708289
  C     5.646806  9.006332 -4.179365
  C     6.907644  8.756818 -3.533207
  N     7.795596  5.554147 -4.424225
  N     5.625625  5.966216 -5.755827
  N     4.775169  5.519897 -1.903236
  N     7.969569  8.828184 -4.340864
  N     5.750827  9.174771 -5.515817
  N     5.194693  8.767236 -1.657294
  S     7.272870  5.739823 -5.978964
  S     4.115502  6.047258 -3.350098
  S     6.405825  5.279806 -1.946132
  S     7.317074  9.159034 -5.862903
  S     4.354344  8.964975 -3.053330
  S     6.865813  8.412218 -1.835520
