16  
    
  C     5.483433  5.643319 -4.268676
  C     6.655641  5.287182 -3.476515
  C     5.808984  8.897263 -3.981553
  C     7.060404  8.508100 -3.369258
  N     7.700620  4.966798 -4.204238
  N     5.583140  5.474599 -5.590928
  N     4.781270  5.758226 -1.744653
  N     8.111220  8.507913 -4.225082
  N     5.826853  9.144929 -5.280040
  N     5.338999  8.553521 -1.460269
  S     7.178459  5.064529 -5.803065
  S     4.067839  5.926819 -3.267297
  S     6.316715  5.071005 -1.729116
  S     7.430015  8.948198 -5.739315
  S     4.590286  9.135359 -2.835139
  S     6.960224  8.189371 -1.620540
