16  
    
  C     5.498317  5.831734 -4.416723
  C     6.598888  5.178291 -3.671602
  C     5.701307  9.185857 -4.252837
  C     6.946844  8.857008 -3.583817
  N     7.689807  4.949119 -4.419368
  N     5.812791  6.193970 -5.649296
  N     4.747034  5.650006 -1.906936
  N     7.946811  8.769001 -4.441492
  N     5.791398  9.477893 -5.577707
  N     5.248867  8.873060 -1.748749
  S     7.278454  5.506189 -5.962301
  S     4.052026  5.954093 -3.395339
  S     6.266175  5.030359 -1.935376
  S     7.429167  9.178176 -5.901599
  S     4.375323  9.108793 -3.111905
  S     6.899480  8.655185 -1.866889
