16  
    
  C     5.403167  5.873029 -4.486826
  C     6.584535  5.453296 -3.767372
  C     5.358755  9.371435 -4.177730
  C     6.611797  8.960410 -3.628333
  N     7.662558  5.228788 -4.528561
  N     5.559029  6.079964 -5.781482
  N     4.712622  5.678079 -1.946300
  N     7.643012  8.819409 -4.423586
  N     5.480216  9.426837 -5.493595
  N     4.973341  9.142503 -1.630168
  S     7.171951  5.686269 -6.086867
  S     4.024698  6.249630 -3.361430
  S     6.325480  5.055408 -2.056089
  S     7.057812  9.088579 -5.944984
  S     4.108681  9.549088 -2.955361
  S     6.661991  8.753243 -1.923422
