16  
    
  C     5.220708  6.205684 -4.366466
  C     6.338633  5.674969 -3.610568
  C     5.627324  9.664405 -4.128689
  C     6.776374  9.007688 -3.549632
  N     7.389197  5.382575 -4.374872
  N     5.424772  6.498957 -5.642820
  N     4.550177  6.141409 -1.838370
  N     7.724301  8.630004 -4.445949
  N     5.718767  9.804198 -5.467183
  N     5.188360  9.487952 -1.617707
  S     6.947196  5.823412 -5.936557
  S     3.870632  6.541799 -3.336602
  S     6.087140  5.602648 -1.911578
  S     7.207036  9.160860 -5.867816
  S     4.364942  9.852716 -3.046571
  S     6.831526  8.953915 -1.785807
