16  
    
  C     5.222363  6.479725 -4.637075
  C     6.467195  6.010557 -4.028838
  C     5.775456  9.646675 -4.394239
  C     7.059817  9.261487 -3.789686
  N     7.451732  5.814361 -4.896881
  N     5.312433  6.482596 -5.972018
  N     4.731244  6.348370 -2.138070
  N     8.027460  9.187016 -4.674517
  N     5.783998  9.930762 -5.689937
  N     5.358911  9.433971 -1.841226
  S     6.872596  6.048161 -6.451450
  S     3.888678  6.713353 -3.547003
  S     6.337107  5.997764 -2.272692
  S     7.329267  9.447061 -6.193752
  S     4.453117  9.828334 -3.291850
  S     6.955607  9.077619 -2.018711
