16  
    
  C     5.503727  6.144794 -4.435307
  C     6.750286  5.592984 -3.968929
  C     5.451151 10.001642 -4.419509
  C     6.602242  9.459001 -3.752921
  N     7.680661  5.493739 -4.878740
  N     5.443078  6.293799 -5.740837
  N     5.233755  5.879609 -1.876977
  N     7.598304  9.088557 -4.587307
  N     5.624856 10.117599 -5.763089
  N     4.730471  9.414456 -2.047254
  S     6.978584  5.781092 -6.324543
  S     4.343776  6.351081 -3.231905
  S     6.756455  5.289910 -2.262512
  S     7.202145  9.543446 -6.096852
  S     4.099890 10.245273 -3.310726
  S     6.396653  8.995844 -2.085915
