16  
    
  C     5.511320  6.018964 -4.202412
  C     6.657520  5.445025 -3.663360
  C     5.373618  9.553960 -4.414895
  C     6.572129  9.124776 -3.761690
  N     7.662242  5.284648 -4.521562
  N     5.583707  6.446978 -5.456389
  N     4.958073  5.582128 -1.718569
  N     7.584416  9.027961 -4.562272
  N     5.448156  9.754966 -5.704531
  N     4.903024  9.155785 -1.877628
  S     7.122864  5.949946 -5.970223
  S     4.189027  6.133420 -3.119053
  S     6.536805  5.118403 -1.949875
  S     7.065732  9.453070 -6.075882
  S     4.112789  9.623839 -3.211759
  S     6.548355  8.874421 -2.077563
