16  
    
  C     5.606415  6.304093 -4.567448
  C     6.606338  5.538199 -3.872850
  C     5.709706  9.430411 -4.457666
  C     6.926023  9.070494 -3.791318
  N     7.716245  5.324846 -4.610533
  N     5.982204  6.705821 -5.807097
  N     4.559839  5.781081 -2.317885
  N     7.989200  9.058917 -4.607555
  N     5.873864  9.647127 -5.733601
  N     5.043068  9.202185 -2.016831
  S     7.421847  5.943840 -6.113053
  S     4.089589  6.616679 -3.681558
  S     6.071921  5.127808 -2.286372
  S     7.474688  9.500039 -6.070566
  S     4.396167  9.767731 -3.391819
  S     6.642801  8.759458 -2.089135
