16  
    
  C     5.557603  6.232410 -4.400230
  C     6.732551  5.608026 -3.822451
  C     5.393597  9.783347 -4.264616
  C     6.594569  9.227353 -3.615035
  N     7.728194  5.415815 -4.689518
  N     5.680183  6.484659 -5.711743
  N     4.989774  5.650041 -1.954417
  N     7.592440  8.963016 -4.409143
  N     5.566964  9.981910 -5.570496
  N     4.959154  9.639527 -1.694123
  S     7.185136  6.008473 -6.173374
  S     4.213454  6.379991 -3.204449
  S     6.620076  5.181140 -2.151009
  S     7.107052  9.408013 -5.939061
  S     4.138109 10.027124 -3.065700
  S     6.534810  9.048992 -1.856553
