16  
    
  C     5.489126  5.828129 -4.487771
  C     6.702793  5.531928 -3.812349
  C     5.629228  9.367259 -4.066827
  C     6.873531  8.974790 -3.474432
  N     7.719945  5.449129 -4.624013
  N     5.622539  6.066550 -5.781314
  N     4.968656  5.677637 -1.950750
  N     7.857045  8.682479 -4.346920
  N     5.683741  9.459636 -5.380939
  N     5.072655  8.764105 -1.659515
  S     7.246460  5.795644 -6.187120
  S     4.173023  5.886041 -3.391004
  S     6.589854  5.504649 -2.072909
  S     7.233812  9.050568 -5.848728
  S     4.279984  9.192143 -3.048183
  S     6.737950  8.690579 -1.750151
