16  
    
  C     5.497523  5.111336 -4.240251
  C     6.822320  5.060666 -3.603056
  C     5.374712  9.185016 -4.512358
  C     6.565370  8.699832 -3.870732
  N     7.768719  5.067856 -4.519434
  N     5.479346  5.250919 -5.569624
  N     5.137502  5.258253 -1.641824
  N     7.576447  8.413574 -4.695182
  N     5.551038  9.368228 -5.836453
  N     4.791279  9.088269 -1.970168
  S     7.077433  5.121405 -6.009621
  S     4.259079  5.164267 -2.999859
  S     6.818400  5.076783 -1.878812
  S     7.122721  8.896162 -6.176341
  S     4.078402  9.545323 -3.401857
  S     6.437865  8.740665 -2.091656
