16  
    
  C     5.546656  6.241403 -4.509875
  C     6.761720  5.704205 -3.884281
  C     5.370232  9.941988 -4.726845
  C     6.626050  9.570785 -4.053396
  N     7.724558  5.527900 -4.766126
  N     5.679533  6.605590 -5.772096
  N     4.987872  5.872843 -2.021810
  N     7.697183  9.482111 -4.859114
  N     5.520842 10.124336 -6.053435
  N     4.845500  9.675738 -2.185113
  S     7.250376  6.092995 -6.172976
  S     4.241267  6.435102 -3.374991
  S     6.595019  5.510738 -2.172265
  S     7.086431  9.756237 -6.364002
  S     4.015702 10.067264 -3.548280
  S     6.543341  9.546560 -2.377105
