16  
    
  C     5.180862  6.125761 -4.267623
  C     6.361412  5.568038 -3.608919
  C     5.511198  9.794165 -4.232190
  C     6.695213  9.153559 -3.671797
  N     7.341914  5.334956 -4.479537
  N     5.314351  6.406977 -5.545312
  N     4.558392  5.942648 -1.850363
  N     7.620082  8.865184 -4.561132
  N     5.546700  9.938660 -5.527818
  N     5.047618  9.754213 -1.683324
  S     6.870829  5.845252 -5.953997
  S     3.882622  6.588780 -3.259011
  S     6.168662  5.365927 -1.913391
  S     7.055287  9.449574 -6.012972
  S     4.262338  9.983736 -3.147647
  S     6.532753  8.979215 -1.848888
