16  
    
  C     5.472704  5.784570 -4.363483
  C     6.658540  5.355992 -3.655506
  C     5.751533  9.104564 -4.160617
  C     7.052374  8.891611 -3.573542
  N     7.787964  5.207817 -4.380148
  N     5.657631  5.937479 -5.664629
  N     4.737455  5.473404 -1.985255
  N     8.059026  8.893514 -4.439997
  N     5.782235  9.355913 -5.457641
  N     5.198838  8.721685 -1.670907
  S     7.242611  5.699256 -5.895137
  S     4.052841  6.084673 -3.386200
  S     6.353194  5.164891 -1.941015
  S     7.332816  9.106157 -5.924603
  S     4.383032  8.938123 -3.086167
  S     6.850592  8.470884 -1.859626
