16  
    
  C     5.604401  6.121478 -4.280797
  C     6.685394  5.437609 -3.638940
  C     5.839545  9.823694 -4.220908
  C     7.033551  9.282543 -3.609051
  N     7.647655  4.958026 -4.452162
  N     5.746623  6.203966 -5.606547
  N     5.010733  6.157227 -1.787311
  N     8.014893  8.960830 -4.437897
  N     5.914757  9.904982 -5.529011
  N     5.222208  9.296893 -1.807068
  S     7.202574  5.512872 -5.982160
  S     4.219997  6.477958 -3.250180
  S     6.447194  5.367492 -1.951416
  S     7.467480  9.231204 -5.952564
  S     4.497018  9.915923 -3.142278
  S     6.860324  9.121300 -1.851394
