16  
    
  C     5.540964  5.249523 -4.059489
  C     6.862174  5.246784 -3.621834
  C     5.552286  9.333587 -4.613754
  C     6.672724  8.818059 -3.885326
  N     7.777438  5.353290 -4.563740
  N     5.419925  5.341638 -5.360644
  N     5.381526  5.170398 -1.534671
  N     7.730715  8.646165 -4.666609
  N     5.678756  9.367176 -5.937578
  N     4.724182  9.152089 -2.196200
  S     6.974615  5.350169 -6.006181
  S     4.364379  5.315604 -2.786220
  S     7.005294  5.083622 -1.918465
  S     7.251892  8.952472 -6.250099
  S     4.263002  9.921403 -3.612940
  S     6.330298  8.681220 -2.162591
