16  
    
  C     5.391405  5.945436 -4.368859
  C     6.631453  5.595295 -3.800306
  C     5.606418  9.334590 -4.408231
  C     6.839169  8.990544 -3.764303
  N     7.651966  5.416096 -4.654612
  N     5.409997  6.188351 -5.664287
  N     4.984996  5.877150 -1.820013
  N     7.870495  8.916040 -4.610680
  N     5.652180  9.482116 -5.740645
  N     4.900569  9.083601 -1.971773
  S     6.925825  5.895258 -6.149403
  S     4.137869  6.286194 -3.222005
  S     6.553654  5.381797 -2.090142
  S     7.205709  9.242403 -6.179828
  S     4.106849  9.212735 -3.498972
  S     6.562331  8.787150 -2.036106
