16  
    
  C     5.521662  6.226551 -4.625663
  C     6.508676  5.501935 -3.863378
  C     5.784255  9.514392 -4.398294
  C     6.969933  9.119451 -3.723044
  N     7.631102  5.264218 -4.491165
  N     5.928081  6.557748 -5.842686
  N     4.607086  5.884722 -2.166644
  N     8.010995  8.978180 -4.578209
  N     5.957590  9.713974 -5.704659
  N     5.156574  9.252183 -1.929340
  S     7.462775  5.939708 -5.949067
  S     4.173077  6.489537 -3.623854
  S     6.025807  5.030444 -2.267377
  S     7.523200  9.338688 -6.056667
  S     4.395700  9.549480 -3.334422
  S     6.748825  8.754460 -2.008917
