16  
    
  C     5.545240  5.965679 -4.498785
  C     6.617331  5.387603 -3.755986
  C     5.805719  9.463906 -4.317709
  C     7.007460  9.052904 -3.651482
  N     7.710914  5.122515 -4.455248
  N     5.837633  6.210788 -5.762133
  N     4.577094  5.693849 -2.136872
  N     8.018709  8.929838 -4.523847
  N     5.958317  9.734730 -5.615281
  N     5.210639  9.086698 -1.867885
  S     7.439818  5.827960 -5.938372
  S     4.064895  6.299603 -3.594161
  S     6.192747  5.151294 -2.052075
  S     7.503239  9.356786 -5.988880
  S     4.405304  9.428449 -3.277519
  S     6.838520  8.837210 -1.953831
