16  
    
  C     5.534709  6.016006 -4.707894
  C     6.698828  5.545802 -3.974044
  C     5.660103  9.876710 -4.365301
  C     6.814972  9.230125 -3.749466
  N     7.821538  5.508591 -4.687985
  N     5.757379  6.325250 -5.994309
  N     4.763508  5.741014 -2.250438
  N     7.851338  8.993605 -4.550681
  N     5.821807 10.213830 -5.622074
  N     4.893796  9.250710 -1.986789
  S     7.368645  5.925334 -6.274805
  S     4.095726  6.210513 -3.705952
  S     6.411778  5.333314 -2.349608
  S     7.310743  9.666617 -6.070953
  S     4.219911  9.743765 -3.429968
  S     6.514455  8.854165 -2.064688
