16  
    
  C     5.555456  5.674233 -4.395271
  C     6.730679  5.145603 -3.715630
  C     5.462010  9.879109 -4.511316
  C     6.649470  9.226644 -3.966666
  N     7.791274  4.848135 -4.478164
  N     5.778967  5.914029 -5.695906
  N     4.963209  5.665378 -1.880250
  N     7.651801  9.066831 -4.800071
  N     5.581879 10.163147 -5.810575
  N     4.905624  9.306700 -2.061870
  S     7.312360  5.411400 -5.992046
  S     4.152060  5.824079 -3.331683
  S     6.397090  4.833775 -2.008801
  S     7.141811  9.627571 -6.305339
  S     4.085885 10.032027 -3.357859
  S     6.509785  8.972841 -2.275727
