16  
    
  C     5.269391  5.682749 -4.312876
  C     6.583335  5.301407 -3.659363
  C     5.466259  9.349270 -4.216307
  C     6.696144  8.938098 -3.564849
  N     7.636497  5.210303 -4.478428
  N     5.370242  5.836732 -5.626522
  N     4.824103  5.634146 -1.784602
  N     7.637984  8.733024 -4.464506
  N     5.453833  9.462239 -5.512100
  N     4.974980  9.353971 -1.684161
  S     6.975469  5.530547 -6.008077
  S     4.034472  6.028327 -3.169486
  S     6.428135  5.203121 -1.921794
  S     6.989885  9.092060 -5.971136
  S     4.132135  9.592935 -3.099766
  S     6.495261  8.760337 -1.880810
