16  
    
  C     5.360153  6.052814 -4.341716
  C     6.514361  5.479848 -3.765618
  C     5.412607  9.141357 -4.266897
  C     6.692245  8.889101 -3.660013
  N     7.490794  5.273299 -4.629702
  N     5.469856  6.277564 -5.637879
  N     4.769078  5.521516 -1.986607
  N     7.774463  8.818140 -4.469460
  N     5.510390  9.342514 -5.583703
  N     4.973196  9.296427 -1.789107
  S     6.983780  5.828871 -6.117035
  S     3.983292  6.208250 -3.318475
  S     6.405750  5.276724 -2.046670
  S     7.097416  9.040671 -6.001688
  S     4.072183  9.263417 -3.188265
  S     6.528859  8.746771 -1.872235
