16  
    
  C     5.640725  5.740059 -4.363447
  C     6.845776  5.280179 -3.770100
  C     5.435065  9.398143 -4.638258
  C     6.684857  9.213055 -3.979890
  N     7.887265  5.149979 -4.580848
  N     5.619491  5.875798 -5.679844
  N     5.174252  5.724417 -1.844323
  N     7.822526  9.286135 -4.667034
  N     5.665898  9.552638 -5.957217
  N     4.842295  9.310263 -2.175932
  S     7.189119  5.478343 -6.129755
  S     4.287916  6.069950 -3.220027
  S     6.692075  5.151706 -2.040436
  S     7.258066  9.622654 -6.231621
  S     4.122557  9.630986 -3.628609
  S     6.490710  8.965243 -2.249707
