16  
    
  C     5.661136  5.458277 -4.431625
  C     6.874354  5.168629 -3.632033
  C     5.533993  9.567442 -4.344826
  C     6.703765  9.055742 -3.686064
  N     7.868571  4.860146 -4.467048
  N     5.778296  5.377055 -5.772435
  N     4.944573  5.600546 -1.899099
  N     7.770824  8.864795 -4.458659
  N     5.720878  9.676402 -5.644660
  N     4.873548  9.064284 -1.881873
  S     7.369873  5.102131 -6.038872
  S     4.255828  5.649897 -3.393218
  S     6.645079  5.247990 -1.881104
  S     7.188869  9.160370 -5.989361
  S     4.207261  9.673030 -3.283028
  S     6.540565  8.810194 -1.970743
