16  
    
  C     5.408713  5.475835 -4.201617
  C     6.572525  5.025632 -3.482040
  C     5.694878  8.961985 -4.010924
  C     6.935548  8.532128 -3.377772
  N     7.693235  4.776153 -4.195624
  N     5.606599  5.580404 -5.519959
  N     4.705809  5.443851 -1.741223
  N     7.953286  8.365379 -4.206838
  N     5.719031  9.066175 -5.324241
  N     5.367076  8.929367 -1.442780
  S     7.228869  5.241792 -5.765086
  S     3.997653  5.830368 -3.209705
  S     6.386899  5.203639 -1.725072
  S     7.324729  8.685796 -5.753944
  S     4.423157  9.104265 -2.806040
  S     6.830007  8.247148 -1.702509
