16  
    
  C     5.655440  5.608387 -4.249664
  C     6.993765  5.228497 -3.674403
  C     5.800075  9.789140 -4.351044
  C     6.976578  9.188418 -3.813676
  N     7.989642  5.261357 -4.554853
  N     5.761404  5.964803 -5.523612
  N     5.265397  5.220279 -1.740614
  N     7.994898  8.997842 -4.713722
  N     5.909811 10.082336 -5.669501
  N     5.171472  9.149224 -1.904612
  S     7.343387  5.798543 -6.016397
  S     4.351439  5.673035 -3.090545
  S     6.902952  4.928546 -1.968923
  S     7.435361  9.551343 -6.129997
  S     4.399858  9.696398 -3.299099
  S     6.803443  8.789233 -2.150163
