16  
    
  C     5.519368  6.061278 -4.208224
  C     6.646257  5.421859 -3.661269
  C     5.379893  9.530460 -4.387351
  C     6.632435  9.061440 -3.769709
  N     7.590954  5.180632 -4.576076
  N     5.572044  6.397423 -5.506447
  N     4.928666  5.559963 -1.759151
  N     7.682351  8.995160 -4.562551
  N     5.579668  9.872404 -5.618044
  N     4.881396  9.209142 -1.819243
  S     7.070983  5.884660 -5.994792
  S     4.145625  6.200258 -3.055694
  S     6.567836  5.161691 -1.893981
  S     7.150812  9.442795 -6.038277
  S     4.043652  9.622521 -3.232149
  S     6.487795  8.848353 -2.015282
