16  
    
  C     5.124498  6.264592 -4.321376
  C     6.200959  5.492540 -3.633967
  C     5.741643  9.590212 -4.208196
  C     6.960086  9.139550 -3.615379
  N     7.310125  5.270625 -4.358606
  N     5.425096  6.424414 -5.610296
  N     4.458375  6.244377 -1.811383
  N     7.942602  8.926404 -4.438074
  N     5.839054  9.719456 -5.504148
  N     5.276321  9.435151 -1.668785
  S     6.955336  5.832709 -5.888968
  S     3.795470  6.786206 -3.298911
  S     5.880018  5.373993 -1.901096
  S     7.378139  9.346465 -5.965699
  S     4.452831 10.003831 -3.008632
  S     6.812466  8.821472 -1.914635
