16  
    
  C     5.233917  6.320906 -4.520695
  C     6.393704  5.742478 -3.819116
  C     5.394722  9.964498 -4.139282
  C     6.694459  9.654047 -3.553948
  N     7.475816  5.575744 -4.504109
  N     5.502033  6.557953 -5.807124
  N     4.517888  6.099887 -2.021328
  N     7.700310  9.623845 -4.436983
  N     5.449352 10.257403 -5.437660
  N     5.029813  9.374033 -1.605415
  S     7.101876  6.052037 -6.046391
  S     3.808769  6.487678 -3.486101
  S     6.049778  5.475582 -2.129090
  S     7.022144 10.084463 -5.863621
  S     4.147300  9.688930 -2.994538
  S     6.649601  9.284057 -1.886227
