16  
    
  C     5.450314  6.116940 -4.393448
  C     6.630178  5.722903 -3.600457
  C     5.579744  9.563167 -4.204052
  C     6.812995  9.058659 -3.515348
  N     7.692145  5.511501 -4.362917
  N     5.701480  6.125440 -5.700288
  N     4.681818  6.105313 -1.915145
  N     7.890057  8.897636 -4.298070
  N     5.782421  9.731134 -5.485756
  N     4.783006  9.415959 -1.810422
  S     7.266804  5.749926 -5.978768
  S     4.078169  6.454310 -3.408936
  S     6.243557  5.600626 -1.900886
  S     7.305894  9.226225 -5.826101
  S     4.199908  9.950991 -3.292026
  S     6.443105  9.023502 -1.725156
