16  
    
  C     5.594031  5.694707 -4.331044
  C     6.854664  5.308347 -3.658293
  C     5.520775  9.459987 -4.383322
  C     6.770234  9.153970 -3.732311
  N     7.874862  5.397335 -4.470489
  N     5.667299  6.068431 -5.590788
  N     5.073359  5.303931 -1.849089
  N     7.824143  9.034935 -4.559172
  N     5.605047  9.562531 -5.718523
  N     5.167107  9.436771 -1.796452
  S     7.266001  5.745948 -6.032145
  S     4.264195  5.810877 -3.231312
  S     6.687482  4.977875 -1.951113
  S     7.159634  9.298908 -6.114618
  S     4.315842  9.760570 -3.193248
  S     6.761004  8.967145 -1.981521
