16  
    
  C     5.310268  6.165723 -4.354063
  C     6.555633  5.703074 -3.731340
  C     5.455326  9.651069 -4.401033
  C     6.680383  9.198206 -3.751161
  N     7.530499  5.538277 -4.599375
  N     5.351266  6.251873 -5.663563
  N     4.823477  5.998003 -1.847898
  N     7.772730  9.001536 -4.544234
  N     5.665895  9.934308 -5.683174
  N     4.813664  9.468854 -1.973046
  S     6.983019  5.930402 -6.107507
  S     3.973609  6.337272 -3.250710
  S     6.430570  5.689668 -2.054412
  S     7.224293  9.476149 -6.019205
  S     4.110961  9.884127 -3.385226
  S     6.408887  9.136056 -2.035975
