16  
    
  C     5.842399  5.646399 -4.084540
  C     6.992716  5.076287 -3.389710
  C     5.643104  9.601537 -4.247842
  C     6.887090  9.070812 -3.728807
  N     8.065791  4.845509 -4.153605
  N     6.073646  5.886943 -5.363842
  N     5.078764  5.159858 -1.697417
  N     7.925446  9.139176 -4.547593
  N     5.736220 10.066142 -5.484132
  N     5.078240  8.895453 -1.854990
  S     7.672225  5.497432 -5.651738
  S     4.493092  5.818662 -3.054117
  S     6.670179  4.607639 -1.757158
  S     7.292500  9.802423 -6.003302
  S     4.355957  9.742699 -3.106796
  S     6.716591  8.428478 -2.089830
