16  
    
  C     5.629040  5.624135 -4.429358
  C     6.786494  5.137895 -3.758705
  C     5.448962  9.961888 -4.494037
  C     6.601774  9.387648 -3.896892
  N     7.845546  4.948319 -4.556344
  N     5.753629  5.920909 -5.732691
  N     5.016747  5.503930 -1.936042
  N     7.557228  9.057179 -4.763557
  N     5.490829 10.127286 -5.815420
  N     4.940423  9.415616 -1.956511
  S     7.281214  5.409667 -6.045710
  S     4.244726  5.837185 -3.350159
  S     6.584312  4.996434 -1.967211
  S     6.934089  9.517898 -6.253985
  S     4.206874 10.054803 -3.312990
  S     6.526266  9.029651 -2.195101
