16  
    
  C     5.449764  5.735747 -4.398884
  C     6.638627  5.435183 -3.664344
  C     5.697510  9.037289 -4.174959
  C     6.952742  8.761492 -3.515967
  N     7.748668  5.515106 -4.399162
  N     5.642823  5.961252 -5.684851
  N     4.736478  5.483908 -1.936915
  N     7.947558  8.878473 -4.338561
  N     5.726001  9.221294 -5.483682
  N     5.229657  8.741473 -1.704924
  S     7.288378  5.723497 -5.978283
  S     4.108406  6.078060 -3.352027
  S     6.403544  5.256081 -1.959845
  S     7.318614  9.133049 -5.876515
  S     4.366625  8.955039 -3.083382
  S     6.875142  8.415757 -1.833802
