16  
    
  C     5.585964  5.673840 -4.374069
  C     6.750457  5.100093 -3.739284
  C     5.441443  9.934614 -4.520805
  C     6.626197  9.372156 -3.905785
  N     7.802967  4.938637 -4.539592
  N     5.764880  5.910823 -5.669186
  N     4.973589  5.574912 -1.924797
  N     7.550129  9.068260 -4.772451
  N     5.546794 10.173171 -5.855989
  N     4.927534  9.360960 -1.985131
  S     7.305015  5.406198 -6.045231
  S     4.235396  5.816919 -3.367117
  S     6.547125  4.952624 -1.987583
  S     6.989333  9.530777 -6.258305
  S     4.179561 10.045380 -3.294337
  S     6.526416  9.029728 -2.230988
