16  
    
  C     5.213671  6.408440 -4.681149
  C     6.447970  5.948138 -4.039050
  C     5.651463  9.709903 -4.441020
  C     6.857394  9.308913 -3.778473
  N     7.500440  5.701065 -4.859520
  N     5.338914  6.427773 -6.015490
  N     4.839484  6.416968 -2.196170
  N     7.922872  9.189372 -4.566752
  N     5.881928  9.946407 -5.733399
  N     5.203411  9.493628 -1.863069
  S     6.887156  6.049005 -6.429545
  S     3.936403  6.699419 -3.544797
  S     6.418946  5.936511 -2.330585
  S     7.439977  9.464694 -6.108611
  S     4.386795  9.940634 -3.220152
  S     6.928616  9.172741 -2.012181
