16  
    
  C     5.686323  5.834791 -4.312508
  C     6.865398  5.325252 -3.787074
  C     5.628775  9.694801 -4.592252
  C     6.817800  9.274688 -3.904298
  N     7.794981  5.042832 -4.678385
  N     5.704025  6.002231 -5.625194
  N     5.225445  5.580173 -1.799240
  N     7.947719  9.252694 -4.668794
  N     5.809592 10.039230 -5.859773
  N     4.904747  9.034483 -2.180522
  S     7.223406  5.544437 -6.139074
  S     4.382755  5.958978 -3.147651
  S     6.761133  4.980903 -2.103189
  S     7.419657  9.777179 -6.185551
  S     4.179348  9.507463 -3.643810
  S     6.584019  8.921929 -2.222162
