16  
    
  C     5.524004  6.154465 -4.395133
  C     6.725872  5.654220 -3.800988
  C     5.481320  9.801995 -4.227777
  C     6.641868  9.253032 -3.541416
  N     7.714726  5.467325 -4.644993
  N     5.691068  6.504802 -5.658620
  N     4.991508  5.680809 -1.916460
  N     7.593636  8.986792 -4.466689
  N     5.487336  9.915230 -5.597703
  N     4.888265  9.547262 -1.680761
  S     7.266895  5.980010 -6.163466
  S     4.259078  6.362746 -3.226810
  S     6.529137  5.184700 -2.140504
  S     7.079988  9.417975 -5.945237
  S     4.130263  9.997846 -3.076459
  S     6.551804  9.045600 -1.814577
