16  
    
  C     5.394266  5.515546 -4.305707
  C     6.629658  5.042190 -3.682745
  C     5.748572  9.377529 -4.207425
  C     6.828494  8.598974 -3.661956
  N     7.655481  4.892264 -4.514822
  N     5.497542  5.654208 -5.610116
  N     4.882714  5.332704 -1.856451
  N     7.797939  8.315238 -4.548796
  N     5.828356  9.665439 -5.486099
  N     5.007481  8.810259 -1.803476
  S     7.105634  5.276569 -6.026503
  S     4.009012  5.404767 -3.274398
  S     6.482335  4.745092 -1.993530
  S     7.257552  8.932705 -6.007629
  S     4.332997  9.520638 -3.239432
  S     6.584080  8.304397 -1.987945
