16  
    
  C     5.348567  5.983531 -4.438525
  C     6.590570  5.618646 -3.729549
  C     5.405330  9.606104 -4.275646
  C     6.588597  9.200228 -3.622552
  N     7.636612  5.469867 -4.521665
  N     5.536599  6.277411 -5.733799
  N     4.710519  5.609079 -1.970434
  N     7.565671  9.107087 -4.475518
  N     5.427540  9.806102 -5.574413
  N     4.824099  9.420360 -1.764337
  S     7.168944  5.926352 -6.034706
  S     4.000609  6.007879 -3.394578
  S     6.345935  5.361060 -2.051362
  S     6.973185  9.462759 -6.012559
  S     4.072536  9.707227 -3.195728
  S     6.441705  9.101690 -1.849960
