16  
    
  C     5.386106  6.055013 -4.413313
  C     6.601514  5.639630 -3.769479
  C     5.618506  9.702506 -4.377870
  C     6.749787  9.112431 -3.684021
  N     7.641696  5.464429 -4.564985
  N     5.512222  6.139528 -5.733574
  N     4.782498  5.933100 -1.870545
  N     7.828906  8.801238 -4.438815
  N     5.836496  9.846731 -5.700914
  N     5.012218  9.381688 -1.821513
  S     7.135552  5.789573 -6.032450
  S     4.087748  6.422809 -3.323324
  S     6.325716  5.391136 -2.015566
  S     7.409702  9.359765 -5.956941
  S     4.311745  9.869642 -3.297406
  S     6.565523  8.883265 -1.932261
