16  
    
  C     5.524092  6.271751 -4.399509
  C     6.700244  5.886330 -3.729128
  C     5.659036  9.714696 -4.379337
  C     6.906396  9.345833 -3.718072
  N     7.742210  5.690123 -4.577044
  N     5.622706  6.484797 -5.739410
  N     4.875917  6.311304 -1.950070
  N     7.953727  9.302186 -4.568965
  N     5.703648  9.958633 -5.700505
  N     4.971914  9.529229 -1.874959
  S     7.210627  6.041469 -6.040985
  S     4.148904  6.633277 -3.402777
  S     6.428912  5.815550 -2.013263
  S     7.276657  9.553349 -6.126788
  S     4.277095  9.826359 -3.381831
  S     6.626826  9.278417 -2.017026
