16  
    
  C     5.342723  5.952996 -4.292662
  C     6.609678  5.485044 -3.655602
  C     5.554489  9.642306 -4.259736
  C     6.714019  9.034312 -3.544620
  N     7.606378  5.224574 -4.530016
  N     5.439898  6.077262 -5.630906
  N     4.804632  5.778333 -1.750524
  N     7.801843  8.898546 -4.237922
  N     5.849272  9.872383 -5.518751
  N     4.857518  9.343438 -1.768539
  S     6.950298  5.657336 -6.025770
  S     4.052228  6.282368 -3.161392
  S     6.397748  5.201974 -1.931203
  S     7.409041  9.365743 -5.833190
  S     4.080512  9.880059 -3.194447
  S     6.391117  8.739409 -1.911348
