16  
    
  C     5.256542  6.264501 -4.498521
  C     6.383214  5.792767 -3.744062
  C     5.385379  9.999274 -4.161689
  C     6.647971  9.649832 -3.603789
  N     7.518148  5.601755 -4.430367
  N     5.543441  6.496658 -5.774105
  N     4.480814  6.069337 -2.075596
  N     7.660641  9.734182 -4.419240
  N     5.458188 10.344825 -5.424337
  N     5.024800  9.490868 -1.670840
  S     7.080600  6.064269 -6.048520
  S     3.849304  6.605965 -3.505307
  S     6.080609  5.487090 -2.090024
  S     7.070026 10.095508 -5.896401
  S     4.099228  9.751754 -3.025793
  S     6.687532  9.353070 -1.890957
