16  
    
  C     5.275473  6.247020 -4.586651
  C     6.565622  5.957952 -4.010952
  C     5.648050  9.500402 -4.040104
  C     6.819165  9.010232 -3.460908
  N     7.558069  5.906436 -4.868827
  N     5.232129  6.444597 -5.863281
  N     4.856145  5.776660 -2.103276
  N     7.819154  9.086536 -4.330706
  N     5.672723  9.905900 -5.301913
  N     5.104016  9.015762 -1.577853
  S     6.777543  6.175698 -6.391104
  S     4.004560  6.405728 -3.393244
  S     6.467880  5.569233 -2.349953
  S     7.210214  9.619581 -5.752623
  S     4.307368  9.255893 -2.966713
  S     6.700256  8.545316 -1.807761
