16  
    
  C     5.224236  5.271621 -3.999679
  C     6.452593  4.913250 -3.236774
  C     5.324623  9.496340 -4.211125
  C     6.539165  9.114493 -3.537446
  N     7.475735  4.816830 -4.053153
  N     5.405379  5.366746 -5.317088
  N     4.650401  5.183360 -1.455315
  N     7.588002  8.920313 -4.360364
  N     5.406167  9.453984 -5.525002
  N     4.735345  9.158378 -1.699811
  S     7.023280  5.122449 -5.599228
  S     3.805868  5.247509 -2.945477
  S     6.282411  4.721799 -1.521639
  S     7.046847  9.027807 -5.892865
  S     3.994489  9.646333 -3.117456
  S     6.348243  8.813828 -1.792125
