16  
    
  C     5.454504  5.960324 -4.395751
  C     6.704033  5.395652 -3.913406
  C     5.534574  9.888924 -4.644580
  C     6.645129  9.225420 -4.078408
  N     7.632322  5.170784 -4.801356
  N     5.470242  6.202298 -5.723414
  N     5.109558  5.520041 -1.882537
  N     7.558216  8.795319 -4.940868
  N     5.563882 10.010815 -5.971892
  N     5.246210  9.755902 -2.073939
  S     6.983449  5.699636 -6.214296
  S     4.243234  6.147717 -3.183774
  S     6.710450  5.197472 -2.168544
  S     7.072690  9.353072 -6.435571
  S     4.386070 10.328411 -3.406032
  S     6.652778  9.011974 -2.373759
