16  
    
  C     5.715724  5.834443 -4.346627
  C     6.877985  5.172761 -3.875180
  C     5.760796  9.233839 -4.054940
  C     7.031368  8.800484 -3.549517
  N     7.873451  5.202786 -4.782512
  N     5.765304  6.345891 -5.587822
  N     5.358321  5.249621 -1.844073
  N     8.007899  8.803593 -4.487557
  N     5.753793  9.432487 -5.362031
  N     5.365812  8.806663 -1.523319
  S     7.256996  5.966313 -6.084087
  S     4.494385  5.889841 -3.118323
  S     6.921157  4.782788 -2.197578
  S     7.229078  9.179608 -5.932623
  S     4.532032  9.271197 -2.882312
  S     6.938267  8.289729 -1.815090
