16  
    
  C     5.620898  5.528263 -4.196629
  C     6.852361  5.379597 -3.547933
  C     5.594027  9.229622 -4.211322
  C     6.884487  9.044012 -3.556070
  N     7.899077  5.118667 -4.350592
  N     5.593716  5.420418 -5.544441
  N     5.195112  5.782191 -1.639457
  N     7.912472  9.040915 -4.369185
  N     5.671288  9.473566 -5.506759
  N     5.110473  8.794784 -1.725463
  S     7.228897  5.260411 -5.895476
  S     4.368787  5.702021 -3.068051
  S     6.768972  5.388046 -1.840332
  S     7.298795  9.367202 -5.912394
  S     4.269382  8.994505 -3.147685
  S     6.806846  8.962194 -1.802822
