16  
    
  C     5.249486  6.339105 -4.451579
  C     6.495590  6.044766 -3.785925
  C     5.515588  9.632909 -4.297882
  C     6.777881  9.295149 -3.758779
  N     7.581720  5.989137 -4.561339
  N     5.376493  6.516459 -5.774769
  N     4.671288  6.016109 -1.977067
  N     7.779204  9.370230 -4.612942
  N     5.568533  9.943499 -5.563276
  N     5.103289  9.300281 -1.788523
  S     6.936017  6.260250 -6.142944
  S     3.925866  6.418792 -3.402672
  S     6.341030  5.892542 -2.122135
  S     7.077988  9.690924 -6.092947
  S     4.198311  9.681552 -3.148477
  S     6.626445  9.028427 -2.045543
