16  
    
  C     5.563917  5.695637 -4.344644
  C     6.853756  5.313074 -3.682608
  C     5.524016  9.468621 -4.369338
  C     6.766024  9.137621 -3.715367
  N     7.890698  5.415821 -4.475132
  N     5.659032  6.058224 -5.600538
  N     5.081124  5.303244 -1.856587
  N     7.825881  9.031752 -4.556192
  N     5.579482  9.583680 -5.703192
  N     5.143993  9.455305 -1.790552
  S     7.260937  5.754827 -6.033076
  S     4.275785  5.782172 -3.237065
  S     6.680195  4.988419 -1.973913
  S     7.147143  9.320234 -6.110923
  S     4.311457  9.743552 -3.194710
  S     6.754015  8.974445 -1.966102
