16  
    
  C     5.507633  5.809169 -4.386847
  C     6.672609  5.283971 -3.724917
  C     5.723414  9.213809 -4.247316
  C     6.947477  8.892999 -3.549526
  N     7.678660  4.986605 -4.542710
  N     5.595665  5.869830 -5.717981
  N     4.864443  5.610489 -1.878235
  N     8.010953  8.585653 -4.280614
  N     5.863250  9.053248 -5.559098
  N     5.173918  9.295392 -1.706876
  S     7.137615  5.239707 -6.093439
  S     4.107726  5.976497 -3.330620
  S     6.531468  5.282500 -1.987333
  S     7.444643  8.673274 -5.907044
  S     4.349610  9.442456 -3.128484
  S     6.807044  8.992637 -1.827505
