16  
    
  C     5.895198  5.931193 -4.419476
  C     7.064159  5.511814 -3.696801
  C     5.644892  9.593344 -4.339343
  C     6.915352  9.255512 -3.732866
  N     8.131903  5.256173 -4.455485
  N     6.078546  5.948516 -5.723200
  N     5.126568  5.658503 -2.008457
  N     7.882583  9.144176 -4.644818
  N     5.661040  9.713631 -5.659039
  N     5.097243  9.227031 -1.873514
  S     7.666652  5.584742 -6.036547
  S     4.478697  6.210842 -3.467246
  S     6.751314  5.413481 -2.053321
  S     7.267622  9.454129 -6.118421
  S     4.301467  9.675942 -3.253211
  S     6.714002  8.821688 -2.020862
