16  
    
  C     5.511881  5.735536 -4.069883
  C     6.756844  5.250260 -3.506256
  C     5.462039  8.900720 -4.119449
  C     6.745364  8.771816 -3.494766
  N     7.773000  5.144850 -4.358420
  N     5.552598  5.868207 -5.394685
  N     5.077806  5.492336 -1.544056
  N     7.734276  8.623131 -4.376460
  N     5.530696  8.833189 -5.448738
  N     5.107181  9.118545 -1.578143
  S     7.098848  5.483968 -5.825620
  S     4.318309  6.015641 -2.920757
  S     6.592996  4.975900 -1.840565
  S     7.134689  8.639235 -5.860886
  S     4.154298  9.040231 -2.904614
  S     6.726828  8.692754 -1.784302
