16  
    
  C     5.373467  5.628234 -4.437076
  C     6.518436  5.065128 -3.714468
  C     5.532379  9.143442 -4.254145
  C     6.763747  8.795963 -3.615507
  N     7.621914  4.863900 -4.436325
  N     5.642766  5.771087 -5.728736
  N     4.622843  5.589795 -1.914682
  N     7.752203  8.574842 -4.478189
  N     5.546454  9.088365 -5.602020
  N     4.943722  8.933297 -1.710199
  S     7.172062  5.245152 -6.031762
  S     3.916701  5.835598 -3.423516
  S     6.191993  4.984184 -1.921570
  S     7.079468  8.756507 -6.021560
  S     4.205070  9.365754 -3.148599
  S     6.587174  8.733018 -1.878358
