16  
    
  C     5.655351  6.596802 -4.542863
  C     6.860268  6.039702 -3.926988
  C     5.490551 10.081770 -4.613730
  C     6.716654  9.593958 -3.961051
  N     7.895673  5.863272 -4.751572
  N     5.720741  6.694048 -5.821731
  N     5.040389  6.398562 -2.039930
  N     7.724854  9.335228 -4.779506
  N     5.689835 10.164000 -5.931050
  N     4.992893 10.157400 -2.144387
  S     7.246695  6.204469 -6.287420
  S     4.342471  6.961472 -3.451389
  S     6.568911  5.694774 -2.190753
  S     7.185171  9.582953 -6.303130
  S     4.236742 10.476332 -3.510369
  S     6.559774  9.404181 -2.223984
