16  
    
  C     5.555349  5.197797 -4.309972
  C     6.853559  5.067011 -3.707516
  C     5.557692  9.387151 -4.504677
  C     6.741370  8.970707 -3.762822
  N     7.840500  5.086043 -4.587531
  N     5.532365  5.230298 -5.655947
  N     5.286593  5.232400 -1.688480
  N     7.845901  8.751292 -4.465284
  N     5.741965  9.386976 -5.819885
  N     4.737434  9.148260 -2.090639
  S     7.131127  5.015369 -6.126217
  S     4.298816  5.404150 -3.040045
  S     6.911302  4.982006 -1.999717
  S     7.336291  8.995929 -6.111272
  S     4.168700  9.627622 -3.548005
  S     6.309945  8.657105 -2.041908
