16  
    
  C     5.240466  6.262291 -4.565714
  C     6.533350  5.941411 -3.998028
  C     5.606402  9.484326 -4.036195
  C     6.794097  9.038982 -3.450416
  N     7.538630  5.901925 -4.820827
  N     5.250821  6.437069 -5.891321
  N     4.840306  5.781366 -2.106631
  N     7.816965  9.156784 -4.332672
  N     5.665484  9.921828 -5.291142
  N     5.126767  9.013884 -1.547673
  S     6.781125  6.173317 -6.396684
  S     3.985596  6.432838 -3.380026
  S     6.459937  5.565659 -2.347630
  S     7.209884  9.638837 -5.769242
  S     4.280606  9.262297 -2.964572
  S     6.679850  8.546268 -1.807463
