16  
    
  C     5.395654  5.735040 -4.129968
  C     6.569322  5.122075 -3.535413
  C     5.566427  9.464164 -4.169909
  C     6.759936  8.959823 -3.547113
  N     7.537897  4.888463 -4.412801
  N     5.594256  6.202367 -5.371274
  N     4.882676  5.290440 -1.600270
  N     7.710316  8.691330 -4.403488
  N     5.722767  9.783271 -5.454050
  N     5.057019  9.019138 -1.715747
  S     7.013937  5.521130 -5.864733
  S     4.137253  5.861194 -3.012459
  S     6.431191  4.864551 -1.813038
  S     7.259396  9.338996 -5.869816
  S     4.232185  9.562190 -3.064550
  S     6.684109  8.764562 -1.824008
