16  
    
  C     5.776802  5.611716 -4.300085
  C     6.993272  5.047291 -3.643160
  C     5.529520  9.500935 -4.338143
  C     6.679557  8.884674 -3.704732
  N     8.054287  5.068408 -4.458891
  N     5.977159  5.936293 -5.558418
  N     5.139548  5.241122 -1.859332
  N     7.745530  8.699972 -4.449048
  N     5.748382  9.792536 -5.626075
  N     4.761785  8.582442 -2.083344
  S     7.547787  5.586262 -5.939454
  S     4.407767  5.795212 -3.266334
  S     6.659568  4.675252 -2.021355
  S     7.291338  9.388637 -5.966881
  S     4.186169  9.617760 -3.291195
  S     6.415661  8.305868 -2.077048
