16  
    
  C     5.400001  5.935324 -4.361055
  C     6.636155  5.604227 -3.811169
  C     5.629721  9.359997 -4.431935
  C     6.844406  9.019959 -3.761198
  N     7.642062  5.433090 -4.660717
  N     5.429139  6.175695 -5.652932
  N     4.979342  5.890073 -1.810616
  N     7.862689  8.923477 -4.614599
  N     5.636752  9.475863 -5.759431
  N     4.890400  9.080277 -1.983882
  S     6.937402  5.890539 -6.160459
  S     4.154599  6.281434 -3.214701
  S     6.548133  5.390781 -2.092283
  S     7.212576  9.251962 -6.175069
  S     4.119273  9.219943 -3.493339
  S     6.568587  8.787207 -2.049209
