16  
    
  C     5.323420  5.500339 -4.361305
  C     6.483675  4.958994 -3.714391
  C     5.487723  9.203847 -4.418450
  C     6.574325  8.474567 -3.785108
  N     7.520435  4.797411 -4.537484
  N     5.500310  5.831336 -5.629976
  N     4.574832  5.167231 -1.893411
  N     7.590409  8.198731 -4.586487
  N     5.744623  9.603286 -5.668969
  N     4.947716  8.927620 -1.900494
  S     7.063703  5.223091 -6.070329
  S     4.041250  5.930016 -3.257229
  S     6.176858  4.658869 -1.950134
  S     7.272072  9.022664 -6.037999
  S     4.138809  9.349515 -3.273500
  S     6.302389  8.015066 -2.142641
