16  
    
  C     5.379179  5.854146 -4.463469
  C     6.525033  5.322090 -3.833866
  C     5.377945  9.576744 -4.396261
  C     6.564448  9.055726 -3.767587
  N     7.543843  5.198512 -4.652463
  N     5.490797  5.998320 -5.757031
  N     4.758346  5.708748 -2.051535
  N     7.571609  8.635793 -4.572214
  N     5.491376  9.586454 -5.731679
  N     4.672053  9.531815 -1.925860
  S     6.988549  5.467913 -6.194220
  S     3.982038  6.173329 -3.439267
  S     6.296572  5.219700 -2.159846
  S     7.048233  8.986411 -6.121278
  S     4.068125 10.018004 -3.413199
  S     6.214095  8.871236 -1.981109
