16  
    
  C     5.644383  5.421586 -4.240652
  C     6.896852  5.343304 -3.542300
  C     5.243440  9.905805 -4.615164
  C     6.303399  9.268503 -3.927568
  N     7.988735  5.238019 -4.302854
  N     5.756674  5.383262 -5.593617
  N     5.052653  5.562447 -1.773957
  N     7.259240  8.925071 -4.774879
  N     5.308390 10.035181 -5.905894
  N     4.509015  9.865244 -2.153954
  S     7.344188  5.287990 -5.937036
  S     4.270595  5.701462 -3.208412
  S     6.704359  5.338458 -1.818434
  S     6.871599  9.485661 -6.301209
  S     3.929114 10.366605 -3.609770
  S     6.097880  9.099390 -2.202128
