16  
    
  C     5.530823  5.668473 -4.739377
  C     6.785667  5.579327 -4.051639
  C     5.412116  9.679565 -4.234504
  C     6.650236  9.310256 -3.587863
  N     7.843582  5.703859 -4.821585
  N     5.562916  5.927774 -6.028248
  N     5.073670  5.311044 -2.134805
  N     7.741548  9.350553 -4.362439
  N     5.518596  9.984489 -5.544449
  N     4.824779  9.218960 -1.796752
  S     7.240747  5.819061 -6.403051
  S     4.256256  5.601299 -3.561478
  S     6.734520  5.412837 -2.333810
  S     7.119961  9.834762 -5.900750
  S     4.128040  9.809797 -3.140806
  S     6.446577  8.759948 -1.922325
