16  
    
  C     5.639958  5.941909 -4.079046
  C     6.701071  5.102924 -3.569742
  C     5.791222  9.570370 -4.513556
  C     6.913073  8.875826 -3.895365
  N     7.700544  4.738298 -4.410231
  N     5.810059  6.185530 -5.377312
  N     5.062449  5.605023 -1.641537
  N     7.895645  8.565502 -4.737658
  N     5.901866  9.777549 -5.802326
  N     5.209055  9.389490 -1.985553
  S     7.238925  5.469292 -5.892060
  S     4.373578  6.361800 -3.007703
  S     6.502562  4.749605 -1.836762
  S     7.297696  9.132511 -6.277673
  S     4.426915  9.792857 -3.421917
  S     6.741141  8.776683 -2.176656
