16  
    
  C     5.429932  6.044519 -4.148093
  C     6.677805  5.672386 -3.631251
  C     5.703986  9.679323 -4.392668
  C     6.844016  9.244430 -3.650976
  N     7.675335  5.523033 -4.494154
  N     5.440793  6.259333 -5.454357
  N     5.013816  5.717936 -1.604514
  N     7.876046  9.051517 -4.480542
  N     5.794633  9.704804 -5.729928
  N     4.904496  9.414660 -1.966217
  S     6.984531  5.808174 -5.992689
  S     4.140003  6.189222 -3.007347
  S     6.595778  5.254454 -1.913729
  S     7.340131  9.292618 -6.076028
  S     4.267422  9.910484 -3.417038
  S     6.521968  9.060065 -1.927020
