16  
    
  C     5.585232  5.706303 -4.432956
  C     6.872271  5.346578 -3.836868
  C     5.266914  9.724002 -4.359960
  C     6.421637  9.156631 -3.699154
  N     7.842773  5.197005 -4.737376
  N     5.669591  5.839859 -5.749379
  N     5.236565  5.729225 -1.875404
  N     7.348220  8.821838 -4.606366
  N     5.287212  9.798822 -5.679868
  N     4.629447  9.498242 -1.861569
  S     7.238740  5.534582 -6.248146
  S     4.346739  5.845214 -3.287156
  S     6.826574  5.296521 -2.111815
  S     6.700478  9.161472 -6.115833
  S     3.941257 10.071190 -3.275084
  S     6.212691  9.181362 -1.950282
