16  
    
  C     5.458602  6.132096 -4.186527
  C     6.704172  5.640428 -3.587270
  C     5.654633  9.630975 -4.436185
  C     6.825994  9.229565 -3.697595
  N     7.684462  5.511121 -4.491192
  N     5.437719  6.203727 -5.543347
  N     4.997114  5.695824 -1.644192
  N     7.921562  9.015611 -4.462571
  N     5.831575  9.749351 -5.722160
  N     4.826921  9.334388 -1.997991
  S     6.971952  5.787588 -5.958621
  S     4.181488  6.256697 -2.956733
  S     6.589781  5.230577 -1.887524
  S     7.427587  9.377491 -6.026359
  S     4.339455  9.936027 -3.460212
  S     6.468917  8.996795 -1.952119
