16  
    
  C     5.469928  5.890449 -4.313013
  C     6.615328  5.189596 -3.647861
  C     5.543797  9.977397 -4.571382
  C     6.643160  9.285518 -3.915103
  N     7.607147  4.892874 -4.496527
  N     5.657119  6.158267 -5.633159
  N     4.803690  5.560827 -1.746512
  N     7.759081  9.102350 -4.587488
  N     5.841689 10.219762 -5.860342
  N     4.708107  9.099426 -2.273100
  S     7.103409  5.452521 -5.971354
  S     4.169967  6.199973 -3.158900
  S     6.346285  4.854960 -1.953505
  S     7.439244  9.726131 -6.094347
  S     4.193294 10.012829 -3.544761
  S     6.289200  8.627213 -2.337255
