16  
    
  C     5.621673  5.669268 -4.253320
  C     6.772320  5.285567 -3.495518
  C     5.521138  9.305447 -4.186593
  C     6.705236  8.802351 -3.538828
  N     7.803011  5.013145 -4.286944
  N     5.725199  5.641305 -5.573119
  N     4.962501  5.674351 -1.761178
  N     7.757119  8.694360 -4.382412
  N     5.638688  9.567920 -5.476317
  N     4.853044  8.978557 -1.743053
  S     7.389071  5.317009 -5.848572
  S     4.253052  6.074061 -3.194832
  S     6.465060  4.972642 -1.805589
  S     7.193806  9.117595 -5.884392
  S     4.218892  9.586782 -3.157651
  S     6.435874  8.564973 -1.801785
