16  
    
  C     5.558380  5.333859 -4.279791
  C     6.848224  5.252377 -3.556262
  C     5.692355  9.353954 -4.209537
  C     6.966262  9.233896 -3.534261
  N     7.897002  5.267960 -4.338067
  N     5.675718  5.431324 -5.580493
  N     5.023479  5.785925 -1.758953
  N     8.045996  9.266180 -4.345697
  N     5.724955  9.517536 -5.527483
  N     5.112938  8.892947 -1.741321
  S     7.321164  5.350996 -5.944241
  S     4.187063  5.794243 -3.248089
  S     6.681300  5.446822 -1.809875
  S     7.346776  9.403334 -5.936867
  S     4.337396  9.137099 -3.145630
  S     6.781762  8.804620 -1.874620
