16  
    
  C     5.611734  5.541320 -4.411037
  C     6.856962  5.342566 -3.721857
  C     5.664793  9.567944 -4.179872
  C     6.812076  8.983075 -3.556758
  N     7.942927  5.102029 -4.450059
  N     5.776633  5.476355 -5.710801
  N     5.026597  5.713730 -1.908014
  N     7.828065  8.768639 -4.413379
  N     5.861109  9.878143 -5.475268
  N     5.058621  9.206153 -1.665622
  S     7.325289  5.030866 -5.990151
  S     4.199377  5.795987 -3.336541
  S     6.653282  5.273106 -1.974708
  S     7.338115  9.370814 -5.901542
  S     4.269414  9.546143 -3.078119
  S     6.662143  8.662320 -1.842954
