16  
    
  C     5.267825  6.262682 -4.336245
  C     6.485420  5.674581 -3.787558
  C     5.740311  9.529713 -4.236285
  C     6.942710  9.146888 -3.619645
  N     7.453542  5.542833 -4.691448
  N     5.364439  6.501039 -5.640924
  N     4.765129  6.117667 -1.839510
  N     7.933100  8.965093 -4.517972
  N     5.755003  9.671602 -5.592406
  N     5.163130  9.393731 -1.775188
  S     6.932223  6.000064 -6.165389
  S     3.962518  6.530536 -3.223989
  S     6.353472  5.576242 -2.032503
  S     7.307007  9.348485 -6.010221
  S     4.343476  9.739054 -3.166336
  S     6.703010  8.944968 -1.943018
