16  
    
  C     5.533640  5.912511 -4.446112
  C     6.661933  5.457999 -3.646595
  C     5.794938  9.289581 -4.269397
  C     7.041670  9.003858 -3.631533
  N     7.786235  5.258500 -4.364760
  N     5.863407  6.104703 -5.744647
  N     4.692901  5.595966 -2.028427
  N     8.059343  9.104614 -4.491853
  N     5.870530  9.519951 -5.582538
  N     5.154702  8.975874 -1.780375
  S     7.383920  5.491396 -5.927993
  S     4.028509  5.979207 -3.495535
  S     6.354966  5.310158 -1.942115
  S     7.466306  9.475838 -5.953746
  S     4.424325  9.423136 -3.207786
  S     6.814462  8.805630 -1.892732
