16  
    
  C     5.751394  5.694412 -4.213355
  C     6.952529  5.250912 -3.706693
  C     5.774114  9.707012 -4.389326
  C     7.032351  9.180067 -3.851837
  N     7.932522  5.253931 -4.601770
  N     5.759023  5.917442 -5.522628
  N     5.293101  5.178567 -1.788810
  N     8.035699  9.056292 -4.671779
  N     5.929187 10.093200 -5.631664
  N     5.234767  9.259059 -1.969511
  S     7.315751  5.827098 -6.007043
  S     4.400961  5.653708 -3.093636
  S     6.889316  4.854278 -2.026471
  S     7.455876  9.644537 -6.136001
  S     4.399526  9.772562 -3.307422
  S     6.823267  8.757721 -2.146617
