16  
    
  C     5.234128  6.283056 -4.364498
  C     6.316848  5.573762 -3.694550
  C     5.627348  9.582600 -4.222083
  C     6.783135  9.042847 -3.556547
  N     7.393480  5.335437 -4.440580
  N     5.499478  6.512279 -5.649726
  N     4.570128  6.256929 -1.875477
  N     7.723334  8.704616 -4.407855
  N     5.744655  9.783240 -5.534295
  N     5.184554  9.488645 -1.678485
  S     6.970424  5.875053 -5.969304
  S     3.860154  6.613550 -3.320460
  S     6.131041  5.578237 -1.901677
  S     7.242750  9.233854 -5.944174
  S     4.326108  9.839383 -3.047178
  S     6.766999  8.951283 -1.841113
