16  
    
  C     5.574829  5.740769 -4.409764
  C     6.866000  5.451775 -3.861952
  C     5.542153  9.581462 -4.359943
  C     6.795237  9.203205 -3.783117
  N     7.897643  5.319993 -4.704623
  N     5.569800  5.885362 -5.729674
  N     5.206624  5.627551 -1.866958
  N     7.812611  9.118598 -4.644864
  N     5.532718  9.728651 -5.682483
  N     5.269791  9.319897 -1.741209
  S     7.131995  5.628360 -6.183048
  S     4.281544  5.965002 -3.228283
  S     6.803444  5.387640 -2.077344
  S     7.165342  9.538629 -6.113936
  S     4.322720  9.687607 -3.092152
  S     6.834017  8.891671 -2.107218
