16  
    
  C     5.571537  5.704196 -4.246498
  C     6.749496  5.098729 -3.609756
  C     5.458447  9.212251 -4.187338
  C     6.633951  8.816282 -3.498691
  N     7.773855  4.920223 -4.456977
  N     5.673038  5.786660 -5.564683
  N     4.981266  5.631040 -1.720979
  N     7.711673  8.744329 -4.281770
  N     5.606196  9.289161 -5.503713
  N     4.870184  9.069122 -1.671190
  S     7.200375  5.324400 -5.974885
  S     4.296122  6.133173 -3.202900
  S     6.407590  4.819579 -1.897666
  S     7.211461  9.100422 -5.817237
  S     4.130886  9.464524 -3.119891
  S     6.450294  8.567331 -1.799522
