16  
    
  C     5.477257  6.017861 -4.356441
  C     6.569490  5.460339 -3.648987
  C     5.748365  9.746179 -4.239725
  C     6.794672  9.040798 -3.585368
  N     7.634960  5.175606 -4.405626
  N     5.691631  6.315919 -5.653000
  N     4.634665  5.706856 -1.890880
  N     7.785767  8.670494 -4.339952
  N     5.919865  9.918041 -5.543879
  N     5.066493  9.528465 -1.673296
  S     7.146469  5.648737 -5.941907
  S     4.035106  6.221820 -3.364416
  S     6.242396  5.260676 -1.920489
  S     7.439117  9.245854 -5.843950
  S     4.401862  9.950785 -3.109839
  S     6.588442  8.825206 -1.847831
