16  
    
  C     5.494246  5.256279 -4.095877
  C     6.905385  5.243029 -3.591328
  C     5.497869  9.372516 -4.663053
  C     6.666969  8.880987 -3.924923
  N     7.846427  5.350775 -4.539206
  N     5.399012  5.259651 -5.436350
  N     5.365491  5.107478 -1.525710
  N     7.736662  8.589715 -4.643523
  N     5.664537  9.336402 -5.976963
  N     4.713296  9.162666 -2.251119
  S     6.976548  5.307712 -5.937610
  S     4.322193  5.298731 -2.784418
  S     6.993970  5.039238 -1.885110
  S     7.223455  8.930646 -6.272151
  S     4.257446  9.939591 -3.633340
  S     6.403693  8.736053 -2.169087
