16  
    
  C     5.559792  5.611538 -4.537494
  C     6.839267  5.391974 -3.877708
  C     5.363242  9.674878 -4.231462
  C     6.595270  9.184411 -3.647262
  N     7.841069  5.615796 -4.748287
  N     5.604561  5.961689 -5.845557
  N     5.099253  5.431929 -2.012977
  N     7.601570  9.099588 -4.464653
  N     5.485489  9.952057 -5.531740
  N     4.983291  9.237505 -1.679205
  S     7.195127  5.856616 -6.217808
  S     4.253725  5.462643 -3.403841
  S     6.761655  5.135653 -2.154548
  S     7.125460  9.576329 -5.914799
  S     4.091514  9.652125 -3.078774
  S     6.606530  9.017180 -1.905099
