16  
    
  C     5.898952  6.070422 -4.454823
  C     7.033118  5.558717 -3.712553
  C     5.684548  9.497658 -4.407179
  C     6.890144  8.959711 -3.781771
  N     8.096331  5.303763 -4.458170
  N     6.097492  6.289736 -5.782607
  N     5.083301  5.599316 -2.015302
  N     7.938686  8.877398 -4.575240
  N     5.783587  9.707922 -5.688962
  N     5.134664  9.264595 -1.895330
  S     7.638078  5.674796 -6.022916
  S     4.429418  6.126472 -3.450093
  S     6.743001  5.419035 -1.915343
  S     7.406186  9.320110 -6.095557
  S     4.404886  9.840210 -3.253298
  S     6.729039  8.906919 -2.053248
