16  
    
  C     5.726199  6.274474 -4.176865
  C     6.921503  5.663155 -3.658624
  C     5.891600  9.586667 -4.190261
  C     7.129632  9.034097 -3.664897
  N     7.875839  5.358875 -4.562915
  N     5.801083  6.550163 -5.492429
  N     5.148800  5.663457 -1.737695
  N     8.027030  8.713911 -4.559972
  N     5.865277  9.715226 -5.491740
  N     5.468106  9.413657 -1.653850
  S     7.291100  6.020225 -5.990369
  S     4.340180  6.287668 -3.058067
  S     6.715006  5.303708 -1.982737
  S     7.397701  9.148875 -6.043454
  S     4.627340  9.735191 -3.052202
  S     7.010583  8.791607 -1.911286
