16  
    
  C     5.360839  6.036260 -4.340883
  C     6.510877  5.492123 -3.767118
  C     5.423115  9.144551 -4.259228
  C     6.694085  8.878360 -3.647245
  N     7.497872  5.266640 -4.609777
  N     5.473772  6.272619 -5.644938
  N     4.767057  5.520794 -1.989300
  N     7.777626  8.836562 -4.464642
  N     5.503912  9.350660 -5.576168
  N     4.980456  9.293527 -1.765934
  S     6.979215  5.827102 -6.113974
  S     3.983648  6.212654 -3.332261
  S     6.408113  5.264796 -2.043337
  S     7.081269  9.032755 -6.005978
  S     4.082777  9.271035 -3.192004
  S     6.518471  8.746612 -1.862757
