16  
    
  C     5.591454  5.643584 -4.226370
  C     6.937157  5.212828 -3.695759
  C     5.550408  9.406119 -4.481062
  C     6.625197  8.722199 -3.780069
  N     7.945090  5.146983 -4.593520
  N     5.646902  5.908984 -5.544939
  N     5.279864  5.220128 -1.659204
  N     7.673106  8.464270 -4.548736
  N     5.800853  9.830667 -5.720555
  N     4.749772  9.069372 -2.040504
  S     7.192516  5.501857 -6.014641
  S     4.367760  5.532889 -2.985380
  S     6.946819  4.981380 -1.966094
  S     7.313537  9.209566 -6.058956
  S     4.131128  9.571817 -3.454284
  S     6.302362  8.414835 -2.140173
