16  
    
  C     5.545990  5.913722 -4.418481
  C     6.827515  5.636988 -3.769336
  C     5.755558  9.487427 -4.381121
  C     7.056520  9.137861 -3.724829
  N     7.834569  5.549797 -4.615931
  N     5.678269  6.056854 -5.733192
  N     5.012117  5.449908 -1.952566
  N     8.092585  8.982509 -4.499953
  N     5.884442  9.558453 -5.706069
  N     5.304236  9.382047 -1.851724
  S     7.271560  5.786413 -6.074741
  S     4.209330  6.072031 -3.325967
  S     6.635801  5.247750 -2.098326
  S     7.516063  9.346008 -6.060742
  S     4.396335  9.524300 -3.267410
  S     6.920449  9.006185 -1.988448
