16  
    
  C     5.507243  5.793919 -4.539500
  C     6.685921  5.594436 -3.853362
  C     5.229548  9.620476 -4.448059
  C     6.400524  9.220898 -3.753082
  N     7.768225  5.483670 -4.590763
  N     5.660715  5.848862 -5.859737
  N     4.917971  5.671533 -2.051021
  N     7.441050  8.849351 -4.515268
  N     5.340091  9.468183 -5.744407
  N     4.645169  9.853400 -1.979892
  S     7.312746  5.751730 -6.187533
  S     4.110478  5.971898 -3.487476
  S     6.502323  5.405458 -2.168509
  S     6.867409  8.898620 -6.018196
  S     3.888879 10.105131 -3.437364
  S     6.190838  9.297825 -2.070797
