16  
    
  C     5.309742  6.213590 -4.350742
  C     6.341813  5.544793 -3.601403
  C     5.476673  9.696661 -4.225355
  C     6.591142  9.098791 -3.597265
  N     7.237566  5.028120 -4.419506
  N     5.503021  6.273298 -5.659493
  N     4.487137  6.139773 -1.942301
  N     7.671698  8.909166 -4.369191
  N     5.745497 10.030418 -5.511754
  N     4.919597  9.447317 -1.667686
  S     6.922196  5.401238 -5.971667
  S     3.953786  6.753056 -3.396387
  S     5.987839  5.561460 -1.928591
  S     7.292774  9.486477 -5.831074
  S     4.084859  9.700832 -3.114608
  S     6.489484  8.823059 -1.855010
