16  
    
  C     5.495429  5.911971 -4.435252
  C     6.599879  5.281762 -3.749195
  C     5.416859  9.393259 -4.161849
  C     6.682130  8.917991 -3.620083
  N     7.663609  5.099069 -4.483210
  N     5.691204  6.123665 -5.720403
  N     4.786913  5.717754 -2.017493
  N     7.666479  8.760038 -4.510165
  N     5.457565  9.663460 -5.461032
  N     5.070405  9.146976 -1.616719
  S     7.191981  5.615363 -6.052546
  S     4.146718  6.162207 -3.457207
  S     6.330628  5.103993 -2.089798
  S     6.977103  9.255404 -5.989207
  S     4.238327  9.631498 -2.980018
  S     6.651531  8.794603 -1.823998
