16  
    
  C     5.517042  5.956156 -4.547877
  C     6.800106  5.635333 -3.955327
  C     5.819256  9.468506 -4.202796
  C     7.113045  9.121910 -3.608931
  N     7.750429  5.599589 -4.897797
  N     5.561133  6.286402 -5.819863
  N     5.016116  5.644394 -2.019151
  N     8.112572  9.035876 -4.440782
  N     5.801356  9.515075 -5.538765
  N     5.355082  9.157473 -1.710571
  S     7.150520  6.083934 -6.282259
  S     4.169716  5.970986 -3.426390
  S     6.643734  5.340123 -2.178718
  S     7.381295  9.297674 -5.991568
  S     4.455071  9.556510 -3.106064
  S     6.936482  8.757319 -1.885696
