16  
    
  C     5.580949  6.025176 -4.448702
  C     6.780326  5.642171 -3.676720
  C     5.536519  9.464596 -4.351521
  C     6.786130  9.174242 -3.684132
  N     7.886370  5.480091 -4.435160
  N     5.705069  6.033241 -5.781276
  N     4.850569  5.913721 -1.979672
  N     7.899435  9.027646 -4.396050
  N     5.827095  9.677282 -5.639334
  N     5.011416  9.499330 -1.869902
  S     7.346520  5.734112 -5.999159
  S     4.155596  6.252667 -3.457283
  S     6.456115  5.662491 -1.954941
  S     7.398100  9.266872 -5.999803
  S     4.136889  9.626131 -3.322779
  S     6.587967  9.084690 -1.926730
