16  
    
  C     5.599675  5.696106 -4.241898
  C     6.775565  5.183588 -3.619999
  C     5.429945  9.116784 -4.189282
  C     6.657990  8.784707 -3.491219
  N     7.764755  4.789420 -4.424455
  N     5.719342  5.798794 -5.549835
  N     4.965990  5.675516 -1.769649
  N     7.718220  8.681720 -4.254858
  N     5.566934  9.323637 -5.496103
  N     4.820979  9.022725 -1.704656
  S     7.239324  5.325373 -6.010944
  S     4.271523  6.151321 -3.181443
  S     6.469180  4.824955 -1.917582
  S     7.177986  9.034669 -5.845781
  S     4.130435  9.489587 -3.097236
  S     6.415595  8.570204 -1.818571
