16  
    
  C     5.293041  6.045976 -4.456537
  C     6.540292  5.555065 -3.769056
  C     5.376619  9.672527 -4.222625
  C     6.645936  9.312428 -3.590720
  N     7.648827  5.452917 -4.505549
  N     5.566139  6.226271 -5.764653
  N     4.684084  5.784923 -1.971813
  N     7.639715  9.090170 -4.402609
  N     5.451019  9.791388 -5.516524
  N     4.760209  9.340903 -1.748808
  S     7.117450  5.807982 -6.060978
  S     3.918156  6.102425 -3.447045
  S     6.309546  5.431076 -2.050205
  S     7.047758  9.467651 -5.925667
  S     3.931794  9.757609 -3.158059
  S     6.448473  9.062098 -1.860047
