16  
    
  C     5.512090  5.964914 -4.461013
  C     6.722839  5.474828 -3.789991
  C     5.655097  9.391705 -4.220907
  C     6.876225  9.060730 -3.551825
  N     7.730312  5.110640 -4.582475
  N     5.611310  5.987457 -5.790154
  N     4.869730  5.850418 -1.993477
  N     7.970998  9.096994 -4.340042
  N     5.811190  9.528873 -5.546467
  N     5.158160  9.517722 -1.697399
  S     7.159349  5.473695 -6.075461
  S     4.165627  6.396056 -3.377585
  S     6.477726  5.412847 -2.081106
  S     7.375132  9.319662 -5.922517
  S     4.364801  9.754626 -3.120400
  S     6.689096  8.941259 -1.789667
