16  
    
  C     5.591327  5.320191 -4.188972
  C     6.864565  5.204268 -3.546685
  C     5.678339  9.337156 -4.183085
  C     6.986722  9.178958 -3.569366
  N     7.924017  5.265729 -4.400388
  N     5.706561  5.392045 -5.528137
  N     5.080741  5.803305 -1.763676
  N     8.022803  9.198285 -4.398966
  N     5.718998  9.517920 -5.493858
  N     5.109598  8.849073 -1.731046
  S     7.299144  5.318575 -5.924458
  S     4.174096  5.786134 -3.169597
  S     6.754696  5.433334 -1.821609
  S     7.309223  9.393684 -5.920679
  S     4.313650  9.076309 -3.162768
  S     6.764664  8.863879 -1.830702
