16  
    
  C     5.568158  5.873229 -4.459602
  C     6.686194  5.304987 -3.798823
  C     5.578768  9.547785 -4.100199
  C     6.809242  8.977455 -3.597426
  N     7.682183  4.982857 -4.620072
  N     5.762425  6.182001 -5.733564
  N     4.789848  5.699501 -1.955919
  N     7.643281  8.745418 -4.613048
  N     5.487888  9.727227 -5.409368
  N     5.041171  9.207472 -1.610984
  S     7.292384  5.549885 -6.104719
  S     4.112861  6.138436 -3.451456
  S     6.342821  5.128178 -2.016993
  S     6.969338  9.382531 -6.002434
  S     4.210418  9.697032 -3.009243
  S     6.705442  8.780748 -1.846524
