16  
    
  C     5.670138  5.741728 -4.276953
  C     6.976591  5.272429 -3.728048
  C     5.803106  9.649293 -4.440743
  C     6.975325  9.123030 -3.799770
  N     7.983701  5.250685 -4.595269
  N     5.685629  6.025378 -5.579506
  N     5.279124  5.172229 -1.761031
  N     8.035406  9.148530 -4.638107
  N     5.930719 10.065939 -5.690277
  N     5.272023  9.312332 -1.976373
  S     7.277846  5.804979 -6.011953
  S     4.473691  5.632646 -3.101729
  S     6.879024  4.765935 -2.073541
  S     7.477688  9.757531 -6.134404
  S     4.452777  9.844373 -3.323475
  S     6.816500  8.740360 -2.142788
