16  
    
  C     5.723657  5.795779 -4.541465
  C     6.910942  5.333566 -3.835038
  C     5.544417  9.398635 -4.242705
  C     6.858992  9.116833 -3.706669
  N     7.959352  5.130912 -4.646676
  N     5.892028  5.982915 -5.850876
  N     5.153126  5.766264 -2.012184
  N     7.829526  9.154925 -4.603222
  N     5.499302  9.798900 -5.473641
  N     5.103051  8.946948 -1.786390
  S     7.422101  5.412800 -6.187821
  S     4.397863  6.084712 -3.466738
  S     6.808627  5.306725 -2.094682
  S     7.111728  9.692467 -5.997533
  S     4.208748  9.372714 -3.154119
  S     6.723192  8.921600 -2.012744
