16  
    
  C     5.580253  5.441589 -4.097002
  C     6.808404  5.102519 -3.459917
  C     5.791811  9.269062 -3.984796
  C     7.020538  8.902303 -3.311551
  N     7.844719  5.030176 -4.310395
  N     5.622821  5.538311 -5.422363
  N     5.078582  5.290016 -1.524979
  N     8.026657  8.775782 -4.183299
  N     5.780619  9.273995 -5.292731
  N     5.244406  9.157944 -1.460681
  S     7.241710  5.119068 -5.851027
  S     4.296538  5.586804 -2.957365
  S     6.690925  5.084076 -1.704587
  S     7.377342  9.049810 -5.718245
  S     4.529526  9.606078 -2.906542
  S     6.935973  8.794495 -1.560425
