16  
    
  C     5.466641  6.108754 -4.358698
  C     6.609465  5.759251 -3.594911
  C     5.604834  9.573086 -4.182893
  C     6.804107  9.041416 -3.523907
  N     7.659029  5.476146 -4.374731
  N     5.657565  6.165734 -5.659851
  N     4.674865  6.078514 -1.886222
  N     7.873635  8.897943 -4.292651
  N     5.773077  9.733166 -5.473774
  N     4.817207  9.419028 -1.762460
  S     7.240255  5.750654 -5.961869
  S     4.072831  6.470441 -3.421072
  S     6.228165  5.602658 -1.923643
  S     7.292001  9.231924 -5.822212
  S     4.193316  9.980144 -3.289714
  S     6.426726  9.019744 -1.736009
