16  
    
  C     5.238092  6.415311 -4.616455
  C     6.450365  6.066296 -3.974158
  C     5.712410  9.693726 -4.435377
  C     6.972878  9.341211 -3.827266
  N     7.494383  5.844658 -4.725049
  N     5.308393  6.422881 -5.905182
  N     4.770158  6.344635 -2.131110
  N     7.983744  9.075530 -4.657873
  N     5.798321  9.679042 -5.774064
  N     5.372593  9.438461 -1.820878
  S     6.867519  6.031491 -6.304374
  S     4.018316  6.780607 -3.500938
  S     6.370608  5.957698 -2.285345
  S     7.404972  9.440712 -6.160755
  S     4.464222  9.773261 -3.192255
  S     6.912607  9.075525 -2.182119
