16  
    
  C     5.498651  5.901738 -4.376145
  C     6.764486  5.637469 -3.721245
  C     5.585242  9.003661 -4.140871
  C     6.866633  8.679089 -3.545590
  N     7.809087  5.515592 -4.539805
  N     5.637399  6.010266 -5.693326
  N     4.899358  5.738169 -1.941258
  N     7.937199  8.757898 -4.329423
  N     5.716622  9.252894 -5.432316
  N     5.149049  8.818500 -1.637530
  S     7.244396  5.810151 -6.073700
  S     4.081238  5.876539 -3.418974
  S     6.528168  5.399053 -2.055343
  S     7.319675  9.138737 -5.862200
  S     4.281929  9.050542 -2.980219
  S     6.764251  8.512907 -1.811218
