16  
    
  C     5.098081  6.287455 -4.558460
  C     6.350106  5.927841 -3.928601
  C     5.402843  9.600847 -4.098639
  C     6.705448  9.304581 -3.491863
  N     7.382927  5.895354 -4.735080
  N     5.184725  6.507400 -5.868011
  N     4.569706  5.988210 -2.009611
  N     7.646002  9.234076 -4.406367
  N     5.385018  9.737563 -5.415172
  N     4.920216  9.121996 -1.656783
  S     6.782211  6.289298 -6.256963
  S     3.750865  6.476397 -3.404405
  S     6.178196  5.552933 -2.183424
  S     7.002509  9.666571 -5.897190
  S     4.089466  9.487287 -2.971440
  S     6.623021  8.973387 -1.774788
