16  
    
  C     5.664015  5.816030 -4.105809
  C     6.762316  5.211799 -3.417481
  C     5.530976  9.501227 -4.028148
  C     6.642772  8.845684 -3.382698
  N     7.832283  4.879266 -4.104873
  N     5.938312  5.943399 -5.394528
  N     4.918702  5.421558 -1.699018
  N     7.672049  8.625069 -4.176319
  N     5.722966  9.736845 -5.343234
  N     4.840090  9.096934 -1.592517
  S     7.446515  5.424024 -5.662791
  S     4.256948  5.946604 -3.147064
  S     6.553012  5.107267 -1.697006
  S     7.225378  9.120551 -5.654323
  S     4.126934  9.591876 -2.987026
  S     6.416347  8.584189 -1.697099
