16  
    
  C     5.884747  6.027502 -4.458352
  C     7.053021  5.589212 -3.691266
  C     5.642058  9.507686 -4.402076
  C     6.863677  9.123481 -3.760130
  N     8.080080  5.243709 -4.464429
  N     6.099947  6.103212 -5.754347
  N     5.089388  5.585641 -2.023311
  N     7.909199  9.023094 -4.591024
  N     5.771367  9.724950 -5.750112
  N     5.112819  9.242542 -1.847705
  S     7.677270  5.637398 -6.047248
  S     4.462907  6.165949 -3.456403
  S     6.752460  5.431287 -1.949702
  S     7.312151  9.395559 -6.133211
  S     4.382295  9.770755 -3.273429
  S     6.723970  8.853991 -1.990035
