16  
    
  C     5.738914  5.851163 -4.313999
  C     6.913302  5.212404 -3.852261
  C     5.770139  9.224619 -4.043260
  C     7.058493  8.844118 -3.540817
  N     7.843798  5.164752 -4.795584
  N     5.754035  6.334632 -5.550154
  N     5.335106  5.254201 -1.824949
  N     8.033635  8.825814 -4.471550
  N     5.780775  9.445504 -5.363100
  N     5.365088  8.795477 -1.526329
  S     7.249089  5.934011 -6.075095
  S     4.520998  5.888012 -3.107948
  S     6.888701  4.789600 -2.171281
  S     7.246050  9.162866 -5.941299
  S     4.505505  9.257974 -2.863779
  S     6.913554  8.301358 -1.804395
