16  
    
  C     5.560708  5.799039 -4.494455
  C     6.777751  5.539768 -3.829620
  C     5.089532  9.433894 -4.474385
  C     6.224725  9.007195 -3.721833
  N     7.819097  5.428682 -4.637618
  N     5.664781  5.918485 -5.810803
  N     4.963619  5.643070 -2.037583
  N     7.284488  8.784427 -4.506769
  N     5.221850  9.465391 -5.785930
  N     4.612403 10.006292 -1.954544
  S     7.252282  5.593708 -6.230242
  S     4.216566  5.894348 -3.470573
  S     6.583995  5.319425 -2.086158
  S     6.858887  9.038342 -6.050194
  S     3.869601 10.171347 -3.455499
  S     6.052378  9.265705 -1.962998
