16  
    
  C     5.255590  6.313276 -4.523788
  C     6.362684  5.735890 -3.820586
  C     5.465347  9.851189 -4.058998
  C     6.771324  9.555149 -3.506636
  N     7.400236  5.514985 -4.566456
  N     5.493212  6.584735 -5.812728
  N     4.524847  6.119390 -2.040491
  N     7.745822  9.579867 -4.446357
  N     5.420149 10.131513 -5.373992
  N     4.989647  9.246465 -1.610151
  S     7.050893  6.102525 -6.112799
  S     3.824142  6.390712 -3.496092
  S     6.071486  5.470047 -2.135440
  S     7.026162 10.064848 -5.902111
  S     4.109195  9.646996 -2.954066
  S     6.667951  9.162424 -1.825339
