16  
    
  C     5.452508  5.299520 -4.285065
  C     6.710135  5.054538 -3.642993
  C     5.682695  9.296715 -4.183890
  C     6.860202  8.712318 -3.573020
  N     7.778845  5.005873 -4.429834
  N     5.568696  5.430893 -5.614855
  N     4.948078  5.327181 -1.708536
  N     7.832095  8.450755 -4.420994
  N     5.811086  9.566031 -5.499094
  N     5.253134  9.206586 -1.606051
  S     7.186756  5.263389 -5.983244
  S     4.130087  5.437893 -3.118553
  S     6.567459  4.921503 -1.893282
  S     7.382360  8.978264 -5.902590
  S     4.358216  9.463657 -3.026196
  S     6.715319  8.505048 -1.841663
