16  
    
  C     5.631710  5.415508 -4.269099
  C     6.896095  5.342327 -3.558801
  C     5.154619  9.924929 -4.610929
  C     6.292495  9.262441 -3.959355
  N     7.985010  5.213477 -4.272735
  N     5.799176  5.427874 -5.562496
  N     5.097527  5.600809 -1.756567
  N     7.295535  8.936251 -4.751954
  N     5.323956 10.004744 -5.921201
  N     4.541267  9.851654 -2.159872
  S     7.386570  5.269950 -5.944046
  S     4.319838  5.705490 -3.198122
  S     6.698323  5.323773 -1.836952
  S     6.868004  9.446000 -6.279261
  S     3.896476 10.321664 -3.614289
  S     6.062863  9.113371 -2.210334
