16  
    
  C     5.411627  6.006980 -4.461096
  C     6.685726  5.533522 -3.827155
  C     5.373565  9.596945 -4.557147
  C     6.548359  9.062411 -3.911347
  N     7.592269  5.178383 -4.717689
  N     5.397271  5.992652 -5.800235
  N     4.996521  5.719363 -1.872425
  N     7.543808  8.745574 -4.735638
  N     5.560859  9.780046 -5.876565
  N     4.780308  9.482237 -2.046820
  S     6.929353  5.488296 -6.234439
  S     4.146901  5.994840 -3.251260
  S     6.592924  5.268994 -2.077566
  S     7.039619  9.178467 -6.254599
  S     4.036460  9.862189 -3.530856
  S     6.471208  9.257189 -2.144310
