16  
    
  C     5.743158  5.860565 -4.381807
  C     7.005008  5.410975 -3.866334
  C     5.721425  9.336278 -4.037044
  C     6.958775  8.757385 -3.581444
  N     7.932342  5.441803 -4.835080
  N     5.731301  6.236893 -5.647822
  N     5.260782  5.169183 -2.032412
  N     7.894388  8.624226 -4.541659
  N     5.711008  9.706036 -5.311553
  N     5.491425  8.840569 -1.457146
  S     7.274376  5.902258 -6.251368
  S     4.432804  5.792858 -3.309110
  S     6.877245  4.827814 -2.203307
  S     7.256350  9.303345 -5.916853
  S     4.583595  9.415591 -2.746317
  S     7.014504  8.375456 -1.855124
