16  
    
  C     5.840900  5.517705 -3.989631
  C     7.093373  5.174133 -3.365188
  C     5.488358  9.368366 -4.212862
  C     6.622479  8.773071 -3.548771
  N     8.011500  4.988563 -4.309280
  N     5.829707  5.622500 -5.325540
  N     5.369175  5.185720 -1.497767
  N     7.638188  8.498676 -4.336464
  N     5.640726  9.510325 -5.523138
  N     4.752598  9.287787 -1.744414
  S     7.408417  5.364336 -5.795034
  S     4.492228  5.530288 -2.877133
  S     7.045879  4.852991 -1.624444
  S     7.186939  8.865429 -5.876741
  S     4.165483  9.791836 -3.244941
  S     6.185584  8.408408 -1.826444
