16  
    
  C     5.667574  5.834597 -4.108603
  C     6.762443  5.195692 -3.394495
  C     5.529706  9.495316 -4.025934
  C     6.636516  8.828382 -3.390454
  N     7.818694  4.861662 -4.106617
  N     5.944638  5.956912 -5.413434
  N     4.921765  5.406207 -1.676111
  N     7.683182  8.624408 -4.154131
  N     5.723056  9.740885 -5.329210
  N     4.845312  9.118925 -1.580129
  S     7.457441  5.448772 -5.659742
  S     4.243189  5.940405 -3.139314
  S     6.566248  5.107010 -1.688908
  S     7.218239  9.133623 -5.655745
  S     4.142380  9.592765 -2.982713
  S     6.411664  8.584809 -1.680025
