16  
    
  C     5.530046  5.803769 -4.368918
  C     6.680207  5.277922 -3.729846
  C     5.722667  9.196603 -4.225933
  C     6.970135  8.873907 -3.549276
  N     7.644239  4.959612 -4.563583
  N     5.575445  5.859207 -5.710312
  N     4.901245  5.630301 -1.838901
  N     8.031509  8.598146 -4.307875
  N     5.866945  9.071599 -5.551780
  N     5.150522  9.289364 -1.723431
  S     7.154215  5.268590 -6.107661
  S     4.123792  5.981347 -3.301438
  S     6.517607  5.272048 -2.018744
  S     7.456928  8.675837 -5.915969
  S     4.352200  9.467405 -3.164571
  S     6.803226  8.969105 -1.822136
