16  
    
  C     5.770692  5.794657 -3.960613
  C     6.893719  4.965152 -3.500992
  C     5.650960  9.650379 -4.154071
  C     6.830511  8.977454 -3.704331
  N     7.948183  4.867561 -4.297003
  N     6.055722  6.339177 -5.139826
  N     5.162852  5.118037 -1.578255
  N     7.838708  8.981568 -4.575756
  N     5.695720 10.108301 -5.406037
  N     5.169162  8.929280 -1.743115
  S     7.543806  5.683508 -5.669330
  S     4.400225  5.758012 -2.887903
  S     6.744841  4.598066 -1.772589
  S     7.271319  9.820764 -5.912127
  S     4.376661  9.639227 -2.978849
  S     6.736813  8.484208 -2.067184
