16  
    
  C     5.601109  5.852319 -4.305774
  C     6.758487  5.165844 -3.701478
  C     5.603666  9.261522 -4.407216
  C     6.788469  8.811929 -3.752903
  N     7.652112  4.728529 -4.612203
  N     5.688719  5.991693 -5.615951
  N     4.940580  5.403807 -1.802588
  N     7.836883  8.664985 -4.583096
  N     5.746759  9.506755 -5.711334
  N     5.064723  9.138619 -1.835768
  S     7.118063  5.403542 -6.096498
  S     4.291184  6.017240 -3.193723
  S     6.572994  5.019060 -1.962047
  S     7.292495  9.008460 -6.082613
  S     4.272421  9.450237 -3.273274
  S     6.665391  8.647499 -2.033740
