16  
    
  C     5.241093  6.471375 -4.662931
  C     6.475437  6.048827 -4.052871
  C     5.711927  9.652776 -4.412650
  C     7.024499  9.262031 -3.812406
  N     7.452749  5.816801 -4.912873
  N     5.297569  6.468337 -5.967541
  N     4.740957  6.329119 -2.109627
  N     8.027003  9.201301 -4.677184
  N     5.785635  9.917446 -5.726305
  N     5.369881  9.432793 -1.861641
  S     6.874412  6.044850 -6.394482
  S     3.890557  6.736827 -3.545566
  S     6.347023  5.990458 -2.267400
  S     7.354619  9.430489 -6.193056
  S     4.449546  9.815459 -3.271318
  S     6.974647  9.065361 -2.018811
