16  
    
  C     5.715765  5.576824 -4.318472
  C     6.945984  5.234856 -3.593023
  C     5.124236  9.835824 -4.638633
  C     6.290077  9.281954 -3.957406
  N     8.002976  5.104161 -4.387351
  N     5.826391  5.571960 -5.627753
  N     5.130937  5.680613 -1.749117
  N     7.344331  8.988958 -4.701075
  N     5.396913 10.021737 -5.938516
  N     4.470101  9.820143 -2.157473
  S     7.449773  5.253816 -5.908735
  S     4.341765  5.729909 -3.213185
  S     6.770871  5.270491 -1.832073
  S     6.892387  9.326062 -6.259084
  S     3.769921 10.237248 -3.557330
  S     6.034475  9.146029 -2.283090
