16  
    
  C     5.474505  5.868217 -4.557954
  C     6.708863  5.544810 -3.841032
  C     5.586329  9.346319 -4.171655
  C     6.852641  8.980817 -3.532959
  N     7.791829  5.434836 -4.646506
  N     5.549099  5.896901 -5.909188
  N     4.883053  5.766419 -1.957516
  N     7.897423  8.906617 -4.325107
  N     5.692834  9.408056 -5.477247
  N     5.147058  9.390469 -1.674878
  S     7.156174  5.525392 -6.175107
  S     4.196219  6.242538 -3.392165
  S     6.536880  5.359426 -2.070478
  S     7.313994  9.304315 -5.827246
  S     4.281993  9.574742 -3.081917
  S     6.694559  8.841889 -1.791668
