16  
    
  C     5.531042  6.213468 -4.429412
  C     6.755681  5.836480 -3.703823
  C     5.679160  9.643798 -4.390732
  C     6.837851  9.180118 -3.716741
  N     7.784793  5.497048 -4.464891
  N     5.696416  6.290212 -5.750462
  N     4.895229  6.049932 -1.919035
  N     7.837302  8.918960 -4.557057
  N     5.736491  9.680405 -5.712507
  N     5.045731  9.601112 -1.887958
  S     7.230598  5.836294 -6.088377
  S     4.256239  6.513286 -3.409050
  S     6.519241  5.762667 -2.018382
  S     7.269781  9.292842 -6.125143
  S     4.305602  9.860112 -3.388606
  S     6.565796  9.092620 -2.010211
