16  
    
  C     5.443284  5.921401 -4.419682
  C     6.563327  5.337415 -3.751852
  C     5.404105  9.318425 -4.219942
  C     6.632460  8.893369 -3.602841
  N     7.621671  5.193428 -4.540521
  N     5.621506  6.075311 -5.730947
  N     4.820277  5.694427 -2.015846
  N     7.646051  8.830456 -4.460172
  N     5.454413  9.631433 -5.533908
  N     5.069300  9.122602 -1.592135
  S     7.197590  5.638884 -6.033051
  S     4.090971  6.208116 -3.448080
  S     6.330479  5.071950 -2.071427
  S     7.012809  9.153010 -5.944154
  S     4.184842  9.601638 -2.944863
  S     6.641149  8.787301 -1.883078
