16  
    
  C     5.715817  5.595227 -4.279809
  C     6.934022  5.277546 -3.591688
  C     5.115720  9.875590 -4.625397
  C     6.249882  9.303559 -3.961787
  N     8.022738  5.021163 -4.332530
  N     5.868634  5.642566 -5.612386
  N     5.179742  5.665801 -1.794023
  N     7.332356  8.977338 -4.695849
  N     5.374097  9.991605 -5.915078
  N     4.456188  9.793290 -2.132148
  S     7.422365  5.269718 -5.967199
  S     4.345176  5.749004 -3.235541
  S     6.790440  5.242629 -1.838292
  S     6.915585  9.312097 -6.275212
  S     3.769699 10.219466 -3.591164
  S     6.047246  9.148043 -2.262241
