16  
    
  C     5.603661  5.875725 -4.527270
  C     6.792230  5.420617 -3.862299
  C     5.574840  9.726283 -4.192785
  C     6.816163  9.221519 -3.712127
  N     7.859539  5.280008 -4.611086
  N     5.705007  6.004642 -5.861454
  N     4.901700  5.620905 -1.996942
  N     7.807246  9.111153 -4.618493
  N     5.630997  9.968271 -5.477725
  N     4.998479  9.233536 -1.840483
  S     7.317656  5.661486 -6.204810
  S     4.216845  6.222992 -3.426264
  S     6.490201  5.086050 -2.078485
  S     7.133893  9.695307 -6.033962
  S     4.285970  9.908038 -3.113211
  S     6.612126  8.773938 -2.007638
