16  
    
  C     5.503877  5.336495 -4.202193
  C     6.774797  5.059923 -3.570284
  C     5.675683  9.264118 -4.149833
  C     6.852031  8.677938 -3.551870
  N     7.791927  4.979319 -4.431808
  N     5.546726  5.336035 -5.520999
  N     4.999990  5.289285 -1.704239
  N     7.920583  8.521250 -4.354562
  N     5.808501  9.500513 -5.436538
  N     5.255111  9.260463 -1.551338
  S     7.206751  5.268979 -5.955586
  S     4.109476  5.469680 -3.135983
  S     6.627196  4.965827 -1.862189
  S     7.400246  8.997694 -5.874781
  S     4.373857  9.491446 -2.962911
  S     6.750237  8.575006 -1.844951
