16  
    
  C     5.537093  6.153441 -4.364853
  C     6.746612  5.594367 -3.865286
  C     5.484251  9.777795 -4.262245
  C     6.621726  9.118043 -3.660992
  N     7.635664  5.381371 -4.829765
  N     5.545399  6.525601 -5.618935
  N     5.083544  5.578737 -1.943923
  N     7.614621  8.897762 -4.485558
  N     5.608125 10.058430 -5.535263
  N     4.968146  9.850384 -1.710654
  S     7.054027  6.007317 -6.226600
  S     4.310672  6.386502 -3.240872
  S     6.685764  5.262579 -2.215890
  S     7.129192  9.465475 -5.927306
  S     4.155723 10.104546 -3.115119
  S     6.461539  9.058032 -1.958746
