16  
    
  C     5.502132  5.806480 -4.551247
  C     6.712344  5.576576 -3.835731
  C     5.186826  9.578596 -4.431811
  C     6.396983  9.203437 -3.749405
  N     7.783406  5.480217 -4.586001
  N     5.660390  5.831775 -5.866629
  N     4.901756  5.653407 -2.040655
  N     7.437319  8.824674 -4.514227
  N     5.305866  9.445877 -5.719305
  N     4.654570  9.882510 -2.000723
  S     7.308538  5.745030 -6.183131
  S     4.103515  5.972980 -3.487308
  S     6.514537  5.396629 -2.179394
  S     6.868433  8.919641 -6.018525
  S     3.888384 10.129416 -3.468226
  S     6.164561  9.297103 -2.062662
