16  
    
  C     5.553823  5.626533 -4.538845
  C     6.846219  5.396704 -3.854157
  C     5.375045  9.656076 -4.226867
  C     6.607009  9.171156 -3.646145
  N     7.838505  5.596814 -4.728657
  N     5.605026  5.954441 -5.843496
  N     5.103914  5.428605 -2.014014
  N     7.626427  9.073802 -4.461623
  N     5.481609  9.946532 -5.536391
  N     4.980685  9.256001 -1.685342
  S     7.208750  5.861456 -6.213975
  S     4.232337  5.469293 -3.383474
  S     6.767941  5.121792 -2.142932
  S     7.124490  9.566314 -5.931386
  S     4.093180  9.648581 -3.079685
  S     6.617474  9.026971 -1.910190
