16  
    
  C     5.175640  6.227420 -4.570260
  C     6.410264  5.771692 -3.976037
  C     5.430039  9.613406 -4.049426
  C     6.696533  9.317302 -3.502125
  N     7.472649  5.642247 -4.713325
  N     5.341942  6.500625 -5.843171
  N     4.637971  5.885203 -2.058532
  N     7.759020  9.425006 -4.325816
  N     5.528036  9.834772 -5.343688
  N     5.087787  8.990320 -1.558586
  S     6.868681  6.189739 -6.288465
  S     3.912582  6.451136 -3.420135
  S     6.252212  5.536487 -2.240493
  S     7.126671  9.886665 -5.755745
  S     4.181301  9.482683 -2.911849
  S     6.663520  8.777576 -1.860409
