16  
    
  C     5.422412  6.125759 -4.189652
  C     6.721046  5.646467 -3.598339
  C     5.683617  9.648823 -4.428584
  C     6.844039  9.239454 -3.669651
  N     7.708198  5.524474 -4.509281
  N     5.437794  6.222270 -5.536251
  N     4.998731  5.701762 -1.613407
  N     7.892997  9.033800 -4.459409
  N     5.840303  9.722835 -5.739323
  N     4.833332  9.353291 -1.988286
  S     6.969162  5.790171 -5.958706
  S     4.166518  6.237261 -2.972684
  S     6.592845  5.233271 -1.887561
  S     7.386190  9.355261 -6.046886
  S     4.334413  9.929971 -3.446395
  S     6.483464  9.016641 -1.933904
