16  
    
  C     5.637071  5.508154 -4.377407
  C     6.871439  5.260881 -3.666367
  C     5.600818  9.612718 -4.230617
  C     6.799381  9.102178 -3.600177
  N     7.929915  5.003522 -4.406632
  N     5.730594  5.452667 -5.681751
  N     5.018720  5.648287 -1.910630
  N     7.792277  8.782145 -4.425639
  N     5.743632  9.856792 -5.519042
  N     5.020365  9.170648 -1.759180
  S     7.318236  5.022080 -5.982075
  S     4.285289  5.719763 -3.385373
  S     6.594200  5.286387 -1.993498
  S     7.335268  9.239948 -5.954127
  S     4.183405  9.562568 -3.156871
  S     6.579898  8.736279 -1.941022
