16  
    
  C     5.361356  6.066137 -4.616336
  C     6.637025  5.730648 -4.083143
  C     5.700458  9.411836 -4.160736
  C     6.922849  8.915776 -3.589518
  N     7.615087  5.726767 -4.999402
  N     5.392829  6.470464 -5.897953
  N     5.008775  5.732289 -2.063857
  N     7.979511  8.897669 -4.348250
  N     5.788305  9.797015 -5.452034
  N     5.221719  8.859598 -1.615798
  S     7.003153  6.202016 -6.359032
  S     4.081280  6.083936 -3.389217
  S     6.640003  5.518972 -2.362664
  S     7.367582  9.373684 -5.866050
  S     4.423341  9.433661 -2.933688
  S     6.840166  8.707603 -1.826818
