16  
    
  C     5.504147  5.981636 -4.458648
  C     6.636667  5.418564 -3.761437
  C     5.700626  9.514398 -4.240067
  C     6.922768  9.135556 -3.546798
  N     7.698765  5.074512 -4.532418
  N     5.650530  6.101828 -5.790340
  N     4.868301  5.876273 -1.950371
  N     7.956472  9.115287 -4.353344
  N     5.775433  9.625293 -5.555366
  N     5.159961  9.461910 -1.727813
  S     7.153959  5.450762 -6.056068
  S     4.196042  6.414738 -3.390084
  S     6.487558  5.430258 -2.030231
  S     7.425802  9.269008 -5.917611
  S     4.363462  9.799481 -3.140509
  S     6.739638  8.979549 -1.806534
