16  
    
  C     5.589215  5.949276 -4.321698
  C     6.821221  5.486937 -3.808416
  C     5.805330  9.390793 -4.232543
  C     7.027879  8.888926 -3.678064
  N     7.821227  5.496759 -4.671850
  N     5.666128  6.246010 -5.583079
  N     5.178003  5.685957 -1.851942
  N     8.026731  8.790820 -4.567317
  N     5.844100  9.619000 -5.540470
  N     5.315839  9.107347 -1.715651
  S     7.250677  6.040562 -6.125665
  S     4.327166  6.162752 -3.159907
  S     6.732806  5.140000 -2.138839
  S     7.436645  9.342174 -6.002410
  S     4.467763  9.550650 -3.083573
  S     6.885519  8.780607 -1.973118
