16  
    
  C     5.546819  5.641605 -4.533802
  C     6.847428  5.410464 -3.848025
  C     5.392132  9.633837 -4.227258
  C     6.619924  9.161307 -3.637485
  N     7.840996  5.571724 -4.702967
  N     5.604053  5.941738 -5.831624
  N     5.111760  5.423711 -2.008941
  N     7.658106  9.047029 -4.460641
  N     5.484396  9.937880 -5.538669
  N     4.977038  9.276464 -1.694530
  S     7.223181  5.867479 -6.211026
  S     4.211667  5.477522 -3.366562
  S     6.772469  5.108587 -2.132652
  S     7.118866  9.557591 -5.949623
  S     4.095328  9.645772 -3.079493
  S     6.626281  9.035138 -1.916745
