16  
    
  C     5.629680  6.105291 -4.496111
  C     6.802292  5.738084 -3.802250
  C     5.530060  9.659881 -4.488624
  C     6.702336  9.211708 -3.741383
  N     7.862625  5.541551 -4.579026
  N     5.763100  6.167857 -5.811438
  N     4.925305  5.961612 -1.962109
  N     7.804664  9.030301 -4.462925
  N     5.738728  9.817392 -5.801895
  N     4.911281  9.424986 -1.944204
  S     7.384818  5.809444 -6.079691
  S     4.278226  6.347093 -3.400788
  S     6.535113  5.554543 -2.048391
  S     7.377104  9.398471 -5.987737
  S     4.186535  9.902635 -3.344066
  S     6.490915  8.978536 -2.095412
