16  
    
  C     5.571386  6.138688 -4.371420
  C     6.753162  5.537390 -3.755818
  C     5.539510  9.635004 -4.284823
  C     6.797179  9.103793 -3.687115
  N     7.679248  5.286157 -4.682689
  N     5.722304  6.480655 -5.653861
  N     5.044264  5.732242 -1.881618
  N     7.767279  8.945172 -4.577036
  N     5.622437  9.840853 -5.568795
  N     5.115813  9.331195 -1.725975
  S     7.220361  5.838733 -6.163933
  S     4.282363  6.335298 -3.225579
  S     6.665785  5.223094 -2.066467
  S     7.150011  9.420719 -6.073412
  S     4.270645  9.648243 -3.129700
  S     6.726238  8.921044 -1.892962
