16  
    
  C     5.736311  5.769658 -4.387002
  C     6.976980  5.334074 -3.757273
  C     5.706375  9.508690 -4.308093
  C     6.938176  8.925799 -3.830886
  N     8.017260  5.090882 -4.590321
  N     5.813540  5.958426 -5.718421
  N     5.218549  5.406928 -1.875368
  N     7.960840  8.939915 -4.645558
  N     5.814477 10.013118 -5.545779
  N     5.282107  8.801796 -1.874265
  S     7.394362  5.592583 -6.060547
  S     4.381286  5.880244 -3.241467
  S     6.790288  5.007143 -2.049379
  S     7.394251  9.732667 -6.012618
  S     4.378865  9.423716 -3.150478
  S     6.947580  8.725425 -2.119258
