16  
    
  C     5.241392  6.288930 -4.324839
  C     6.382530  5.634089 -3.647313
  C     5.578631  9.544162 -4.267598
  C     6.819402  9.036206 -3.695977
  N     7.323798  5.261772 -4.523867
  N     5.472517  6.496860 -5.627483
  N     4.663120  6.272366 -1.859021
  N     7.859271  8.883014 -4.489627
  N     5.708823  9.728997 -5.555071
  N     5.092785  9.485841 -1.699015
  S     7.011064  5.913646 -6.007817
  S     3.907613  6.715555 -3.297981
  S     6.122765  5.563768 -1.988566
  S     7.283905  9.284113 -5.987837
  S     4.303364  9.829691 -3.075381
  S     6.622619  8.946158 -1.929388
