16  
    
  C     5.732734  5.889782 -4.215252
  C     6.977633  5.277112 -3.795386
  C     5.791356  9.215602 -4.037872
  C     7.106125  8.889707 -3.501205
  N     7.845852  5.079107 -4.788279
  N     5.735659  6.297876 -5.469887
  N     5.299206  5.249097 -1.794582
  N     8.054555  8.847279 -4.424341
  N     5.757605  9.475446 -5.344366
  N     5.354235  8.783350 -1.525924
  S     7.248016  5.877003 -6.105176
  S     4.531557  5.896943 -3.078394
  S     6.837269  4.800257 -2.119108
  S     7.309108  9.136902 -5.933666
  S     4.458700  9.240167 -2.833966
  S     6.892080  8.339758 -1.814205
