16  
    
  C     5.529780  5.328269 -4.153817
  C     6.825826  5.100553 -3.536458
  C     5.675116  9.193148 -4.087808
  C     6.898408  8.705545 -3.511194
  N     7.822911  4.964491 -4.390721
  N     5.579940  5.328143 -5.473987
  N     5.030531  5.251157 -1.702886
  N     7.956219  8.596119 -4.291716
  N     5.846208  9.413278 -5.401603
  N     5.256165  9.274062 -1.551429
  S     7.176422  5.246085 -5.896911
  S     4.149565  5.506055 -3.133984
  S     6.680374  5.011535 -1.810712
  S     7.387670  9.031198 -5.818941
  S     4.398992  9.540925 -2.911965
  S     6.806565  8.644432 -1.801432
