16  
    
  C     5.139519  6.223093 -4.286956
  C     6.177967  5.563524 -3.622538
  C     5.760722  9.614391 -4.202717
  C     6.974042  9.143826 -3.590228
  N     7.266544  5.391175 -4.366613
  N     5.376518  6.446414 -5.567289
  N     4.467984  6.212175 -1.845996
  N     7.969392  8.899321 -4.464637
  N     5.820356  9.690287 -5.549479
  N     5.285506  9.490053 -1.636810
  S     6.958446  5.870260 -5.885819
  S     3.814194  6.779838 -3.310983
  S     5.892836  5.351821 -1.925772
  S     7.404504  9.310130 -5.918999
  S     4.512418 10.000355 -2.981916
  S     6.858188  8.831295 -1.964997
