16  
    
  C     5.576322  5.883812 -4.341214
  C     6.799196  5.508187 -3.689283
  C     5.770488  9.460109 -4.470156
  C     6.968905  9.084966 -3.752479
  N     7.845924  5.387830 -4.531507
  N     5.706596  6.035020 -5.691491
  N     4.993756  5.647091 -1.821447
  N     8.083736  8.981658 -4.511935
  N     5.920286  9.712319 -5.743012
  N     5.180775  9.324806 -1.903834
  S     7.307848  5.722755 -6.038764
  S     4.239776  6.112923 -3.248208
  S     6.607283  5.285926 -1.958282
  S     7.508892  9.307874 -6.080611
  S     4.411966  9.509415 -3.417145
  S     6.770900  9.103041 -2.019900
