16  
    
  C     5.706275  5.787950 -4.265496
  C     6.903554  5.206183 -3.824783
  C     5.748744  9.632265 -4.484334
  C     6.986519  9.225817 -3.863551
  N     7.922452  5.202200 -4.682088
  N     5.743909  6.152990 -5.547978
  N     5.321774  5.254806 -1.805899
  N     8.068061  9.258103 -4.594699
  N     5.935314 10.008876 -5.748933
  N     5.139086  9.114415 -2.033426
  S     7.270642  5.761396 -6.132695
  S     4.360225  5.677473 -3.055555
  S     6.878498  4.687660 -2.138717
  S     7.537784  9.905923 -6.103019
  S     4.477223  9.909647 -3.307813
  S     6.728658  8.769789 -2.201291
