16  
    
  C     5.521685  6.203838 -4.429153
  C     6.738922  5.541185 -3.987166
  C     5.500680  9.831005 -4.295490
  C     6.614248  9.253419 -3.656841
  N     7.636123  5.404068 -4.931437
  N     5.476222  6.459256 -5.740023
  N     5.176205  5.665231 -1.840776
  N     7.573878  8.942028 -4.563622
  N     5.625155 10.106865 -5.611040
  N     4.902682  9.746538 -1.818925
  S     6.998672  5.959576 -6.359030
  S     4.283105  6.384820 -3.149051
  S     6.759317  5.290540 -2.213554
  S     7.124732  9.538957 -6.060570
  S     4.200217 10.201431 -3.271398
  S     6.410615  9.009255 -1.902766
