16  
    
  C     5.559196  5.778369 -4.449499
  C     6.833796  5.451101 -3.836930
  C     5.182223  9.786310 -4.380715
  C     6.323451  9.218163 -3.676987
  N     7.802951  5.202290 -4.680513
  N     5.689360  5.940424 -5.745304
  N     5.150766  5.741089 -1.977694
  N     7.250550  8.765471 -4.512632
  N     5.261486  9.711139 -5.727722
  N     4.618799  9.746469 -1.886798
  S     7.259560  5.554036 -6.231661
  S     4.268576  5.820779 -3.345710
  S     6.743655  5.330829 -2.129763
  S     6.773029  9.021253 -6.022563
  S     3.766021 10.051010 -3.351921
  S     6.166842  9.153848 -2.002660
