16  
    
  C     5.546166  5.652537 -4.357651
  C     6.600958  5.052246 -3.677673
  C     5.466769  9.750045 -4.580486
  C     6.654817  9.222559 -4.000137
  N     7.672619  4.928428 -4.427834
  N     5.723534  5.897364 -5.655369
  N     4.894886  5.588235 -1.884354
  N     7.682547  9.077708 -4.819564
  N     5.618583 10.098192 -5.862174
  N     4.827444  9.348023 -2.125970
  S     7.317526  5.404198 -5.990708
  S     4.153615  5.925998 -3.322226
  S     6.346770  4.770610 -2.000177
  S     7.160703  9.755354 -6.230885
  S     4.215358  9.987475 -3.505070
  S     6.427081  8.859154 -2.243524
