16  
    
  C     5.587395  5.481082 -4.042405
  C     6.859989  5.072496 -3.443686
  C     5.833409  9.334082 -3.919756
  C     7.063766  9.015390 -3.226782
  N     7.888442  4.964453 -4.318346
  N     5.670087  5.749831 -5.334138
  N     5.194068  5.488718 -1.485836
  N     8.055684  8.795596 -4.075420
  N     5.883696  9.463812 -5.223610
  N     5.374993  9.163872 -1.392156
  S     7.211165  5.374752 -5.839423
  S     4.375313  5.878468 -2.873616
  S     6.761969  4.952459 -1.672277
  S     7.509044  9.096998 -5.571762
  S     4.520867  9.398187 -2.801407
  S     6.979424  8.809367 -1.531643
