16  
    
  C     5.594595  5.860976 -4.517802
  C     6.840798  5.501797 -3.855348
  C     5.075762  9.480844 -4.442972
  C     6.254235  9.076628 -3.695139
  N     7.888165  5.343271 -4.674974
  N     5.656235  5.912940 -5.843101
  N     4.952257  5.694272 -1.986557
  N     7.297765  8.762369 -4.453782
  N     5.239561  9.561112 -5.779082
  N     4.601205  9.971907 -1.964867
  S     7.230444  5.582525 -6.203580
  S     4.218171  5.861576 -3.432719
  S     6.634514  5.313269 -2.084809
  S     6.832797  9.028759 -6.032875
  S     3.828799 10.135780 -3.394297
  S     6.069555  9.228703 -2.025115
