16  
    
  C     5.576323  6.402626 -4.551476
  C     6.587677  5.578383 -3.839059
  C     5.794141  9.436798 -4.423553
  C     6.992004  9.013364 -3.726952
  N     7.651896  5.223527 -4.539181
  N     5.938831  6.600464 -5.824491
  N     4.595131  5.853384 -2.246497
  N     8.091336  9.024326 -4.510921
  N     5.852824  9.639798 -5.723273
  N     5.089148  9.228928 -1.940860
  S     7.488968  5.964293 -6.055325
  S     4.069835  6.604671 -3.651903
  S     6.045504  5.035224 -2.287753
  S     7.455794  9.433173 -6.102873
  S     4.404739  9.685835 -3.423429
  S     6.694727  8.740865 -2.032025
