16  
    
  C     5.597716  5.270079 -3.903839
  C     6.806453  5.017600 -3.180041
  C     5.350438  9.345691 -4.215161
  C     6.451630  8.734541 -3.519529
  N     7.818523  4.862069 -4.012224
  N     5.653276  5.404675 -5.223482
  N     4.985877  5.076598 -1.429558
  N     7.551424  8.435141 -4.266485
  N     5.686096  9.659133 -5.472666
  N     4.684117  9.186468 -1.673027
  S     7.270613  5.218677 -5.562839
  S     4.161085  5.343962 -2.861260
  S     6.662437  4.877062 -1.410956
  S     7.185923  9.139497 -5.768537
  S     4.029500  9.693563 -3.120218
  S     6.273909  8.670095 -1.755703
