16  
    
  C     5.588833  5.478128 -4.162296
  C     6.909374  5.283945 -3.692977
  C     5.522318  9.386775 -4.583348
  C     6.636353  8.815263 -3.862674
  N     7.842334  5.199610 -4.646399
  N     5.403670  5.550374 -5.478138
  N     5.382182  5.247925 -1.576640
  N     7.737847  8.566845 -4.541607
  N     5.770077  9.576131 -5.887834
  N     4.798441  9.307335 -2.086776
  S     6.973367  5.467056 -6.033553
  S     4.397170  5.367062 -2.854816
  S     7.045298  5.127133 -1.874031
  S     7.307245  9.037103 -6.152833
  S     4.145038  9.731630 -3.539015
  S     6.312875  8.491195 -2.194311
