16  
    
  C     5.766116  5.576867 -4.218669
  C     6.965652  5.143654 -3.514753
  C     5.437726  9.345625 -4.541508
  C     6.656757  8.969318 -3.885314
  N     7.957487  4.991304 -4.339987
  N     5.903918  5.592643 -5.532157
  N     5.141427  5.275300 -1.758499
  N     7.698193  8.752547 -4.697969
  N     5.538272  9.452699 -5.851390
  N     4.810408  9.192869 -2.119004
  S     7.497722  5.319723 -5.911702
  S     4.449031  5.801547 -3.186289
  S     6.709898  4.742090 -1.861651
  S     7.137333  9.040563 -6.233941
  S     4.117152  9.669200 -3.538969
  S     6.369076  8.578831 -2.216369
