16  
    
  C     5.692388  5.775153 -4.424669
  C     6.982439  5.290571 -3.963936
  C     5.645808  9.096475 -4.084959
  C     6.948890  8.632719 -3.652761
  N     7.936673  5.339376 -4.877432
  N     5.760493  6.236397 -5.674352
  N     5.331457  5.176912 -1.918618
  N     7.932703  8.607663 -4.528555
  N     5.747295  9.509557 -5.355756
  N     5.500556  8.822668 -1.562159
  S     7.340171  6.076587 -6.186275
  S     4.444985  5.840988 -3.136352
  S     6.886967  4.800910 -2.306156
  S     7.240284  9.274355 -5.885816
  S     4.514532  9.389983 -2.768903
  S     7.027202  8.361781 -1.949656
