16  
    
  C     5.522640  5.801148 -4.554213
  C     6.750967  5.543112 -3.898410
  C     5.161630  9.423302 -4.467998
  C     6.328719  9.095498 -3.682039
  N     7.878665  5.491620 -4.634910
  N     5.641947  5.855864 -5.895105
  N     4.858241  5.609059 -2.043608
  N     7.365262  8.760876 -4.455237
  N     5.259853  9.355115 -5.779963
  N     4.597890 10.004493 -2.038745
  S     7.272070  5.672539 -6.154093
  S     4.123318  5.957525 -3.482595
  S     6.560867  5.350635 -2.131673
  S     6.832141  9.023966 -6.069648
  S     3.877700 10.205862 -3.516645
  S     6.122518  9.281125 -1.969326
