16  
    
  C     5.458269  5.630347 -4.369555
  C     6.718846  5.174300 -3.772640
  C     5.697491  9.081473 -4.388739
  C     6.932623  8.799742 -3.700583
  N     7.683433  5.011075 -4.682714
  N     5.500939  5.867669 -5.692586
  N     5.084909  5.668381 -1.840251
  N     8.013148  8.582475 -4.451631
  N     5.920796  9.139123 -5.699262
  N     5.121698  9.221274 -1.836210
  S     6.983462  5.470835 -6.158220
  S     4.302829  6.172166 -3.181531
  S     6.600677  4.994019 -2.080590
  S     7.529806  8.852596 -5.996488
  S     4.329225  9.491468 -3.288126
  S     6.716645  8.743021 -1.955783
