16  
    
  C     5.184338  6.282370 -4.477285
  C     6.383118  5.843171 -3.860500
  C     5.430221  9.491084 -4.115029
  C     6.703117  9.213967 -3.451760
  N     7.410779  5.717172 -4.651288
  N     5.296100  6.514586 -5.784938
  N     4.566291  5.911432 -2.066350
  N     7.691934  9.333723 -4.319788
  N     5.463204  9.745254 -5.402858
  N     4.902099  9.140198 -1.561648
  S     6.826079  6.178531 -6.230581
  S     3.849051  6.505771 -3.409348
  S     6.132356  5.509176 -2.209964
  S     7.020189  9.567417 -5.801641
  S     4.088584  9.498900 -3.009793
  S     6.542332  8.954691 -1.746997
