16  
    
  C     5.348720  5.996867 -4.431146
  C     6.537370  5.590232 -3.748597
  C     5.346680  9.682625 -4.224856
  C     6.638873  9.271939 -3.602342
  N     7.601147  5.476549 -4.524981
  N     5.546500  6.257816 -5.710764
  N     4.694408  5.725407 -1.970289
  N     7.643293  9.083547 -4.479604
  N     5.451696  9.780588 -5.536579
  N     4.814902  9.361023 -1.769830
  S     7.150057  5.839761 -6.051529
  S     3.948623  6.063935 -3.435782
  S     6.319121  5.414480 -2.076418
  S     7.018362  9.469586 -5.940216
  S     3.964597  9.741994 -3.181959
  S     6.441739  9.080776 -1.829175
