16  
    
  C     5.227744  6.450710 -4.646725
  C     6.452270  5.998555 -4.012717
  C     5.832504  9.664988 -4.356101
  C     7.059950  9.274131 -3.766867
  N     7.467154  5.796749 -4.871015
  N     5.317059  6.507592 -5.987522
  N     4.719549  6.373324 -2.164938
  N     8.025816  9.153998 -4.688108
  N     5.806058  9.906862 -5.654434
  N     5.315919  9.446130 -1.845535
  S     6.855804  6.054482 -6.479328
  S     3.900581  6.689106 -3.547478
  S     6.328077  6.002448 -2.285143
  S     7.309847  9.473961 -6.185645
  S     4.471676  9.835119 -3.290718
  S     6.932330  9.093090 -2.036172
