16  
    
  C     5.226987  6.198141 -4.353621
  C     6.338054  5.698708 -3.617519
  C     5.640004  9.663359 -4.117744
  C     6.780857  9.002762 -3.542735
  N     7.378276  5.390936 -4.373172
  N     5.416444  6.479339 -5.626951
  N     4.544135  6.123450 -1.839452
  N     7.730002  8.624262 -4.442797
  N     5.715908  9.807021 -5.459737
  N     5.193328  9.485813 -1.608872
  S     6.947466  5.816499 -5.932243
  S     3.871248  6.533328 -3.335468
  S     6.081761  5.605134 -1.914201
  S     7.199351  9.150910 -5.863103
  S     4.368926  9.855588 -3.039622
  S     6.827253  8.955511 -1.784970
