16  
    
  C     5.554157  5.774820 -4.452538
  C     6.836223  5.442979 -3.832688
  C     5.184111  9.790451 -4.381386
  C     6.327500  9.223999 -3.676996
  N     7.804557  5.200745 -4.680843
  N     5.688379  5.943059 -5.751016
  N     5.153342  5.741458 -1.980001
  N     7.248863  8.766246 -4.514905
  N     5.256092  9.719675 -5.725407
  N     4.615758  9.736781 -1.885456
  S     7.258457  5.552781 -6.230654
  S     4.272364  5.820515 -3.340673
  S     6.749270  5.331239 -2.129531
  S     6.772497  9.021847 -6.026726
  S     3.772296 10.048643 -3.350760
  S     6.169015  9.152799 -1.996735
