16  
    
  C     5.370341  6.540974 -4.492147
  C     6.475939  5.897829 -3.819250
  C     5.434057 10.041131 -4.323016
  C     6.726168  9.784295 -3.659056
  N     7.581838  5.609069 -4.556010
  N     5.609585  6.673425 -5.813565
  N     4.699491  6.340449 -2.002959
  N     7.800311  9.849512 -4.443292
  N     5.616072 10.305854 -5.618257
  N     4.995293  9.868647 -1.787640
  S     7.162431  6.043505 -6.079463
  S     3.982977  6.838671 -3.448097
  S     6.272120  5.758979 -2.085894
  S     7.191816 10.093336 -5.971045
  S     4.111351 10.154379 -3.263523
  S     6.565926  9.413207 -1.926144
