16  
    
  C     5.586021  5.998007 -4.445898
  C     6.759762  5.650771 -3.740825
  C     5.607492  9.451887 -4.427504
  C     6.837752  9.178180 -3.771928
  N     7.829615  5.455703 -4.494092
  N     5.699030  6.130359 -5.772687
  N     4.879304  5.745066 -1.943664
  N     7.896947  9.049375 -4.562215
  N     5.675806  9.512775 -5.734376
  N     4.983239  9.460391 -1.925575
  S     7.246022  5.722562 -6.110744
  S     4.170561  6.166695 -3.364331
  S     6.553174  5.680722 -1.974567
  S     7.266084  9.399125 -6.098644
  S     4.308802  9.495664 -3.405989
  S     6.608789  9.029290 -1.970235
