16  
    
  C     5.449872  5.476391 -4.203553
  C     6.595746  5.172637 -3.477436
  C     5.795450  8.871674 -3.946275
  C     7.063064  8.510617 -3.367426
  N     7.694742  4.965276 -4.212858
  N     5.640694  5.561042 -5.515680
  N     4.722676  5.640278 -1.730595
  N     8.037141  8.491359 -4.290403
  N     5.842985  9.048077 -5.247298
  N     5.354236  8.790030 -1.438236
  S     7.201639  5.057544 -5.794371
  S     4.070451  5.848664 -3.216384
  S     6.276607  5.151689 -1.783045
  S     7.382138  8.843674 -5.735471
  S     4.478095  9.143307 -2.819033
  S     6.891656  8.140743 -1.675131
