16  
    
  C     5.136033  6.339640 -4.499846
  C     6.364933  5.848404 -3.906677
  C     5.398157  9.522631 -4.093896
  C     6.660505  9.283319 -3.486356
  N     7.415416  5.829320 -4.790192
  N     5.216063  6.482016 -5.815381
  N     4.527515  5.946878 -2.015094
  N     7.701673  9.276620 -4.349378
  N     5.392819  9.739338 -5.439178
  N     4.945052  9.102240 -1.608495
  S     6.824460  6.228268 -6.228367
  S     3.800449  6.499378 -3.400702
  S     6.145933  5.515507 -2.189013
  S     6.988505  9.617637 -5.833575
  S     4.117866  9.500194 -3.026065
  S     6.571417  8.959713 -1.705268
