16  
    
  C     5.071404  6.287762 -4.524410
  C     6.318164  5.944360 -3.948014
  C     5.343160  9.599657 -4.157107
  C     6.682806  9.274966 -3.642854
  N     7.358720  5.982051 -4.739272
  N     5.162739  6.532572 -5.811470
  N     4.593843  6.030395 -2.054561
  N     7.723736  9.294841 -4.466925
  N     5.441284  9.921130 -5.436357
  N     5.033292  9.175807 -1.563542
  S     6.770543  6.324328 -6.211006
  S     3.779349  6.399102 -3.421175
  S     6.202812  5.690837 -2.244279
  S     7.003078  9.648110 -5.918358
  S     4.068021  9.492174 -2.947023
  S     6.639794  8.987147 -1.941984
