16  
    
  C     5.462700  5.980224 -4.393746
  C     6.669368  5.378473 -3.875955
  C     5.550002  9.848897 -4.637981
  C     6.672701  9.204273 -4.055715
  N     7.631321  5.176798 -4.762277
  N     5.479365  6.209535 -5.731353
  N     5.083713  5.521203 -1.876216
  N     7.569029  8.811861 -4.927435
  N     5.590630 10.014628 -5.964065
  N     5.278688  9.731267 -2.076033
  S     6.978816  5.706430 -6.239928
  S     4.229266  6.153891 -3.181575
  S     6.718864  5.221803 -2.167320
  S     7.094485  9.346061 -6.429947
  S     4.375847 10.338513 -3.393531
  S     6.661012  9.006131 -2.389853
