16  
    
  C     5.600951  6.118213 -4.418334
  C     6.737414  5.544828 -3.712613
  C     5.344776  9.665438 -4.282947
  C     6.568290  9.364391 -3.581180
  N     7.869894  5.392335 -4.433586
  N     5.834614  6.327020 -5.734711
  N     4.804802  5.861762 -1.904656
  N     7.580984  9.237442 -4.414826
  N     5.447314  9.796444 -5.620837
  N     4.931481  9.350818 -1.662010
  S     7.370029  5.875784 -5.964791
  S     4.237176  6.359379 -3.370916
  S     6.463005  5.413007 -1.963117
  S     7.065203  9.570491 -5.966922
  S     4.036639  9.766769 -3.062503
  S     6.575477  9.056983 -1.908406
