16  
    
  C     5.585155  6.094264 -4.331788
  C     6.779373  5.632630 -3.672655
  C     5.357574  9.675340 -4.182733
  C     6.647653  9.281744 -3.626413
  N     7.786499  5.410102 -4.494069
  N     5.767257  6.314243 -5.614185
  N     4.955016  5.857991 -1.979723
  N     7.709577  9.233106 -4.473568
  N     5.433159  9.847136 -5.507346
  N     4.876311  9.316054 -1.707534
  S     7.372083  5.951961 -6.013331
  S     4.189500  6.396772 -3.403524
  S     6.489691  5.257771 -2.006879
  S     7.014523  9.468721 -5.937313
  S     4.097878  9.853305 -3.071652
  S     6.534674  9.074816 -1.864410
