16  
    
  C     5.663645  5.442791 -4.277913
  C     6.887634  5.312823 -3.558933
  C     5.159510  9.892419 -4.628424
  C     6.281419  9.264220 -3.957517
  N     7.978016  5.198023 -4.310791
  N     5.803924  5.464637 -5.571268
  N     5.108022  5.631511 -1.741406
  N     7.330798  8.949387 -4.736965
  N     5.354406 10.006080 -5.959656
  N     4.582723  9.824303 -2.156335
  S     7.422759  5.257313 -5.931020
  S     4.342915  5.707806 -3.193845
  S     6.707071  5.312482 -1.845937
  S     6.856558  9.414250 -6.258511
  S     3.849280 10.297221 -3.598630
  S     6.029444  9.130964 -2.229060
