16  
    
  C     5.138635  6.213099 -4.306047
  C     6.203011  5.596363 -3.599858
  C     5.740287  9.637907 -4.192226
  C     6.964626  9.137692 -3.610575
  N     7.259258  5.416812 -4.352612
  N     5.364840  6.461827 -5.577632
  N     4.459601  6.198357 -1.866736
  N     7.992591  8.891179 -4.456898
  N     5.815458  9.691457 -5.555966
  N     5.313506  9.502300 -1.630500
  S     6.941001  5.889860 -5.881607
  S     3.829577  6.770980 -3.306177
  S     5.898097  5.347872 -1.937367
  S     7.410097  9.293520 -5.915848
  S     4.540106  9.991438 -2.984789
  S     6.867534  8.836770 -1.957909
