16  
    
  C     5.637885  5.704771 -4.234506
  C     6.798920  5.269365 -3.459278
  C     5.535525  9.368136 -4.159976
  C     6.693571  8.808513 -3.539767
  N     7.826271  5.047077 -4.259028
  N     5.769672  5.642521 -5.557749
  N     4.925466  5.667568 -1.732216
  N     7.733826  8.701078 -4.367680
  N     5.650675  9.587702 -5.472319
  N     4.829962  8.961746 -1.743428
  S     7.394898  5.307473 -5.860035
  S     4.253710  6.070272 -3.193551
  S     6.460816  4.975888 -1.763139
  S     7.196521  9.104779 -5.844265
  S     4.204956  9.584334 -3.126833
  S     6.423377  8.567678 -1.778621
