16  
    
  C     5.524034  5.239939 -4.056090
  C     6.884048  5.245048 -3.609398
  C     5.535310  9.350329 -4.631055
  C     6.661158  8.830979 -3.895488
  N     7.791673  5.359892 -4.562891
  N     5.411508  5.321634 -5.382325
  N     5.371849  5.156534 -1.539337
  N     7.741849  8.631671 -4.655016
  N     5.675947  9.349014 -5.942637
  N     4.707782  9.151812 -2.215139
  S     6.976596  5.337546 -5.986394
  S     4.354125  5.311370 -2.778981
  S     7.001816  5.073321 -1.916998
  S     7.241520  8.948853 -6.260953
  S     4.267771  9.929560 -3.619226
  S     6.352742  8.695542 -2.159276
