16  
    
  C     5.478836  5.819076 -4.136843
  C     6.485162  4.950992 -3.615353
  C     5.689388  9.413256 -4.508919
  C     6.838154  8.868795 -3.862157
  N     7.408924  4.576850 -4.475416
  N     5.707164  6.095270 -5.400863
  N     5.061355  5.660935 -1.628393
  N     7.845073  8.674668 -4.712525
  N     5.837377  9.648615 -5.828029
  N     5.053026  9.286930 -2.047575
  S     7.021620  5.218545 -5.905761
  S     4.345672  6.442147 -2.912657
  S     6.348434  4.602020 -1.862149
  S     7.384325  9.181089 -6.177357
  S     4.417801  9.908160 -3.440341
  S     6.591747  8.616198 -2.188136
