16  
    
  C     5.447043  5.701255 -4.393746
  C     6.670370  5.256772 -3.792456
  C     5.780071  9.062827 -4.257942
  C     7.007494  8.834016 -3.546759
  N     7.661857  4.870437 -4.601796
  N     5.579710  5.829143 -5.736395
  N     4.990454  5.717307 -1.845781
  N     8.027521  8.631026 -4.372716
  N     5.879354  9.113674 -5.590960
  N     5.145494  9.276113 -1.814658
  S     7.101320  5.400041 -6.117609
  S     4.197782  6.036817 -3.215641
  S     6.548891  5.181452 -2.040128
  S     7.431468  8.733025 -5.904208
  S     4.427886  9.522853 -3.298211
  S     6.755244  8.881590 -1.801265
