16  
    
  C     5.079352  6.268254 -4.577878
  C     6.331373  5.948333 -3.901349
  C     5.419888  9.610093 -4.078168
  C     6.693379  9.299420 -3.500632
  N     7.372184  5.907415 -4.704108
  N     5.193647  6.516111 -5.853573
  N     4.587395  6.001131 -2.028168
  N     7.650560  9.238533 -4.432016
  N     5.407471  9.757220 -5.431130
  N     4.949067  9.126949 -1.626718
  S     6.768675  6.303254 -6.269047
  S     3.753112  6.463301 -3.405938
  S     6.184824  5.573749 -2.196280
  S     7.002723  9.670117 -5.906599
  S     4.069077  9.486358 -2.964147
  S     6.626221  8.978954 -1.812070
