16  
    
  C     5.654968  5.749354 -4.301592
  C     6.867606  5.218461 -3.838734
  C     5.805564  9.820679 -4.461178
  C     7.004615  9.299975 -3.823871
  N     7.816293  5.009677 -4.752586
  N     5.711623  6.113902 -5.584973
  N     5.302207  5.318552 -1.767984
  N     8.022382  9.372929 -4.634831
  N     5.886440 10.142808 -5.757226
  N     5.046134  8.922250 -2.161265
  S     7.242922  5.767288 -6.089863
  S     4.445674  5.765643 -3.119808
  S     6.832284  4.796740 -2.149601
  S     7.515524  9.818130 -6.096225
  S     4.340727  9.826425 -3.418277
  S     6.734579  8.792788 -2.203395
