16  
    
  C     5.878951  6.083961 -4.427987
  C     7.005860  5.548886 -3.710578
  C     5.713716  9.479927 -4.358421
  C     6.899169  8.941913 -3.766093
  N     8.084159  5.336018 -4.453420
  N     6.106392  6.328246 -5.706333
  N     5.094609  5.622147 -1.993525
  N     7.934338  8.804199 -4.594105
  N     5.824681  9.695722 -5.686127
  N     5.146332  9.273202 -1.911182
  S     7.625641  5.698672 -6.023949
  S     4.425038  6.113282 -3.457104
  S     6.728152  5.408207 -1.943545
  S     7.436800  9.288392 -6.070172
  S     4.400296  9.863821 -3.250879
  S     6.740296  8.920461 -2.080844
