16  
    
  C     5.316040  5.509396 -4.312947
  C     6.506679  4.935720 -3.708961
  C     5.518376  9.135203 -4.391770
  C     6.637369  8.395457 -3.844424
  N     7.482195  4.664336 -4.561722
  N     5.453620  5.734210 -5.618159
  N     4.719709  5.140961 -1.892933
  N     7.719828  8.266531 -4.583969
  N     5.784015  9.600157 -5.594470
  N     4.927452  8.795977 -1.962719
  S     7.064158  5.315386 -5.992330
  S     3.966313  5.841055 -3.247882
  S     6.282706  4.550908 -2.085547
  S     7.270202  9.069358 -6.037524
  S     4.250950  9.508175 -3.303646
  S     6.244117  7.853844 -2.249725
