16  
    
  C     5.726850  5.874274 -4.417381
  C     6.958027  5.349646 -3.958935
  C     5.688116  9.149259 -4.092142
  C     6.922218  8.575656 -3.632774
  N     7.991321  5.348115 -4.841621
  N     5.751405  6.204341 -5.718053
  N     5.291329  5.143187 -1.914258
  N     7.904422  8.616768 -4.542407
  N     5.724939  9.577565 -5.345908
  N     5.476891  8.833887 -1.498952
  S     7.287158  6.057780 -6.218858
  S     4.499962  5.804165 -3.209595
  S     6.856183  4.808899 -2.278542
  S     7.277012  9.291645 -5.919458
  S     4.520041  9.405153 -2.719487
  S     7.035906  8.386341 -1.949532
