16  
    
  C     5.488905  6.612989 -4.497069
  C     6.605597  5.978626 -3.883210
  C     5.545427 10.210864 -4.423638
  C     6.731867  9.766131 -3.767962
  N     7.560653  5.593794 -4.709453
  N     5.641929  6.820656 -5.794047
  N     4.865521  6.575527 -2.000829
  N     7.845735  9.503130 -4.469653
  N     5.711920 10.295659 -5.730203
  N     4.917726  9.875437 -1.881805
  S     7.140903  6.114616 -6.151447
  S     4.146447  6.889868 -3.480513
  S     6.367249  5.909022 -2.101758
  S     7.319760  9.928002 -6.020621
  S     4.160974 10.288555 -3.325857
  S     6.470192  9.524722 -2.020004
