16  
    
  C     5.344851  5.739227 -4.481042
  C     6.583415  5.392466 -3.742535
  C     5.300227  9.510269 -4.332060
  C     6.588414  9.169062 -3.743712
  N     7.679469  5.237671 -4.502899
  N     5.594196  5.870523 -5.781593
  N     4.725944  5.777739 -1.951106
  N     7.587032  8.990646 -4.622926
  N     5.288312  9.420836 -5.671927
  N     4.815024  9.290224 -1.872085
  S     7.163850  5.541744 -6.045329
  S     4.018315  6.136303 -3.447900
  S     6.295993  5.222805 -2.050807
  S     6.899032  9.020584 -6.110718
  S     3.962510  9.723098 -3.212586
  S     6.399688  8.937980 -2.075932
