16  
    
  C     5.271628  6.286804 -4.328942
  C     6.319676  5.603241 -3.691123
  C     5.583589  9.549797 -4.229668
  C     6.785763  9.051459 -3.616475
  N     7.335998  5.302343 -4.508581
  N     5.500292  6.486459 -5.606732
  N     4.619043  6.282618 -1.881741
  N     7.813848  8.780980 -4.448904
  N     5.735480  9.760707 -5.554822
  N     5.162327  9.484371 -1.697168
  S     7.005370  5.900315 -5.995019
  S     3.870761  6.668100 -3.308497
  S     6.132734  5.568064 -1.940398
  S     7.269434  9.263466 -5.978110
  S     4.315744  9.832058 -3.049639
  S     6.677215  8.954319 -1.889595
