16  
    
  C     5.351375  5.913318 -4.297315
  C     6.585415  5.496601 -3.695033
  C     5.572992  9.647704 -4.232605
  C     6.718614  9.033276 -3.529949
  N     7.616830  5.220850 -4.525874
  N     5.447828  6.075392 -5.627353
  N     4.787185  5.797018 -1.762465
  N     7.819866  8.884389 -4.254901
  N     5.857570  9.859242 -5.531346
  N     4.864427  9.329992 -1.783331
  S     6.949244  5.653374 -6.016256
  S     4.051925  6.276906 -3.166343
  S     6.379009  5.213686 -1.936626
  S     7.426101  9.361221 -5.822141
  S     4.084043  9.902538 -3.177414
  S     6.383871  8.745144 -1.901453
