16  
    
  C     5.603033  5.875658 -4.506449
  C     6.885651  5.480910 -3.827149
  C     5.061875  9.573275 -4.427686
  C     6.256496  9.131409 -3.728158
  N     7.885334  5.287267 -4.705358
  N     5.663157  5.910590 -5.852553
  N     4.998403  5.718987 -1.943574
  N     7.323985  8.741677 -4.435303
  N     5.290163  9.595566 -5.739466
  N     4.592187  9.932991 -1.961193
  S     7.229973  5.576962 -6.195374
  S     4.212446  5.844369 -3.413769
  S     6.661704  5.316644 -2.101629
  S     6.799515  9.027286 -6.017077
  S     3.793533 10.107919 -3.367707
  S     6.102875  9.198631 -2.045142
