16  
    
  C     5.638727  6.032433 -4.455179
  C     6.814914  5.632160 -3.806860
  C     5.644667  9.713524 -4.386875
  C     6.805908  9.162182 -3.713733
  N     7.846287  5.405394 -4.588946
  N     5.829361  6.308488 -5.737588
  N     4.946227  5.892779 -2.043889
  N     7.825328  9.003789 -4.560377
  N     5.724293  9.940277 -5.695029
  N     4.792552  9.371700 -1.999654
  S     7.338494  5.833426 -6.149578
  S     4.226300  6.230800 -3.512633
  S     6.627606  5.481670 -2.082666
  S     7.328774  9.529023 -6.084595
  S     4.182452  9.897118 -3.417890
  S     6.491731  8.958840 -1.969493
