16  
    
  C     5.392446  6.032513 -4.198236
  C     6.658979  5.556451 -3.640227
  C     5.573035  9.638318 -4.375793
  C     6.811807  9.261183 -3.730869
  N     7.642943  5.439508 -4.516292
  N     5.454249  6.247860 -5.504621
  N     5.004326  5.732227 -1.707259
  N     7.839112  8.992565 -4.518215
  N     5.707097  9.741670 -5.705081
  N     4.993378  9.582179 -1.905457
  S     6.980830  5.879624 -5.970872
  S     4.124046  6.104687 -3.009578
  S     6.594429  5.311781 -1.925454
  S     7.288136  9.217144 -6.050584
  S     4.161156  9.822197 -3.355488
  S     6.599713  9.125706 -2.021487
