16  
    
  C     5.425014  6.345618 -4.423715
  C     6.600722  5.974002 -3.719307
  C     5.583302  9.799067 -4.381401
  C     6.821312  9.468854 -3.743308
  N     7.711688  5.852972 -4.473190
  N     5.588799  6.436627 -5.771258
  N     4.788272  6.291105 -1.892880
  N     7.809465  9.238226 -4.593449
  N     5.701093  9.835268 -5.711629
  N     5.071803  9.424278 -1.895253
  S     7.155889  6.122163 -6.124524
  S     4.073876  6.551438 -3.356448
  S     6.408284  5.792507 -2.016124
  S     7.266162  9.617793 -6.088851
  S     4.195591  9.774675 -3.284032
  S     6.656287  9.175113 -2.059783
