16  
    
  C     5.624307  5.714109 -4.361928
  C     6.871689  5.253815 -3.764120
  C     5.219975  9.809380 -4.638577
  C     6.371122  9.196548 -4.039650
  N     7.841361  5.006384 -4.631860
  N     5.734837  5.918146 -5.630917
  N     5.184500  5.487414 -1.841651
  N     7.440923  8.919333 -4.812478
  N     5.408872  9.928037 -5.956370
  N     4.631022  9.724497 -2.147889
  S     7.286856  5.441918 -6.124306
  S     4.350670  5.989411 -3.179730
  S     6.784148  5.033507 -2.018573
  S     6.880830  9.328834 -6.324231
  S     3.958672 10.370740 -3.517504
  S     6.201191  9.143089 -2.249564
