16  
    
  C     5.251364  5.494121 -4.138349
  C     6.346723  4.874269 -3.560684
  C     5.483672  9.471898 -4.374265
  C     6.668565  8.942563 -3.756030
  N     7.277365  4.513722 -4.432933
  N     5.284556  5.606494 -5.464591
  N     4.659945  5.231559 -1.651601
  N     7.700606  8.725965 -4.572486
  N     5.648997  9.630954 -5.654906
  N     4.937785  9.315079 -1.865600
  S     6.779805  5.014966 -5.878077
  S     3.932909  5.832825 -3.015005
  S     6.206197  4.686637 -1.919020
  S     7.162253  9.120887 -6.050823
  S     4.148408  9.644458 -3.273950
  S     6.552469  9.001818 -2.034117
