16  
    
  C     5.438503  5.685810 -4.285657
  C     6.700077  5.397824 -3.639581
  C     5.459179  9.281522 -4.296933
  C     6.683717  8.920825 -3.639482
  N     7.762851  5.210769 -4.433121
  N     5.531489  5.810038 -5.616604
  N     4.928581  5.590559 -1.720071
  N     7.710357  8.960540 -4.458879
  N     5.539665  9.417877 -5.650817
  N     5.022866  9.335690 -1.738757
  S     7.132453  5.541093 -5.969712
  S     4.152848  5.929064 -3.157980
  S     6.541478  5.183584 -1.901982
  S     7.132768  9.227721 -6.038393
  S     4.152551  9.601177 -3.173258
  S     6.580438  8.656771 -1.958616
