16  
    
  C     5.627877  5.423064 -4.416874
  C     6.862840  5.089735 -3.735129
  C     5.461486  9.370315 -4.491675
  C     6.641777  8.946557 -3.775319
  N     7.994136  4.961105 -4.455059
  N     5.823794  5.540304 -5.736896
  N     5.103259  5.478800 -1.879491
  N     7.700781  8.768210 -4.562457
  N     5.579631  9.334765 -5.808023
  N     4.822350  9.239378 -1.909829
  S     7.407640  5.215795 -5.990844
  S     4.323551  5.517642 -3.329879
  S     6.727489  5.063998 -2.023865
  S     7.141315  9.025256 -6.148422
  S     4.152496  9.833197 -3.333602
  S     6.431131  8.834833 -2.083769
