16  
    
  C     5.129771  5.935427 -4.285648
  C     6.324763  5.572787 -3.648412
  C     5.480397  9.416400 -4.025342
  C     6.718930  8.916499 -3.483490
  N     7.378865  5.330498 -4.432759
  N     5.170202  5.941013 -5.614744
  N     4.539452  5.874577 -1.773953
  N     7.684326  8.710148 -4.335350
  N     5.460304  9.470590 -5.338413
  N     5.225500  9.610153 -1.457166
  S     6.801273  5.697824 -5.978539
  S     3.780261  6.308350 -3.231364
  S     6.162778  5.531066 -1.907595
  S     7.006021  8.999450 -5.773641
  S     4.335434  9.979386 -2.833174
  S     6.573316  8.727848 -1.779510
