16  
    
  C     5.828553  5.778292 -4.011351
  C     6.901796  4.989623 -3.425465
  C     5.631727  9.633666 -4.184864
  C     6.838644  9.000422 -3.742206
  N     7.928794  4.861958 -4.266918
  N     6.069836  6.227134 -5.255078
  N     5.182473  5.117329 -1.566242
  N     7.847951  9.067197 -4.604480
  N     5.704921 10.111938 -5.408931
  N     5.176958  8.916188 -1.788938
  S     7.603519  5.627437 -5.643811
  S     4.385386  5.781834 -2.946458
  S     6.752040  4.589273 -1.765330
  S     7.260951  9.820966 -5.911147
  S     4.398934  9.672560 -3.041365
  S     6.730010  8.456198 -2.055456
