16  
    
  C     5.624304  5.837315 -4.462141
  C     6.847988  5.488568 -3.842669
  C     5.111730  9.686135 -4.415905
  C     6.266845  9.174285 -3.740579
  N     7.841574  5.237248 -4.702116
  N     5.676007  5.917299 -5.790356
  N     5.081021  5.733865 -1.936542
  N     7.308894  8.742097 -4.456806
  N     5.315286  9.629486 -5.710754
  N     4.611598  9.860440 -1.926393
  S     7.247675  5.568251 -6.212941
  S     4.222402  5.830466 -3.392286
  S     6.691221  5.323141 -2.119725
  S     6.774264  9.025522 -6.003387
  S     3.754831 10.080789 -3.358163
  S     6.136680  9.172968 -2.041242
