16  
    
  C     5.096354  5.919211 -4.338179
  C     6.328170  5.363813 -3.665715
  C     5.403869  9.462014 -4.034771
  C     6.622108  8.903962 -3.491785
  N     7.351205  5.215823 -4.491013
  N     5.208831  6.143553 -5.653752
  N     4.630717  5.828419 -1.760276
  N     7.536415  8.505507 -4.406709
  N     5.441663  9.563876 -5.397128
  N     5.042533  9.379412 -1.512451
  S     6.758825  5.567697 -6.020481
  S     3.850954  6.117201 -3.193362
  S     6.224272  5.431867 -1.954014
  S     6.926877  8.953947 -5.869110
  S     4.230453  9.849114 -2.896728
  S     6.587144  8.832111 -1.669066
