16  
    
  C     5.479801  5.990056 -4.447816
  C     6.695378  5.698356 -3.628290
  C     5.557087  9.632061 -4.322880
  C     6.717162  9.202848 -3.544433
  N     7.777644  5.569346 -4.368008
  N     5.711094  6.065245 -5.761877
  N     4.792136  6.117299 -1.920529
  N     7.787966  8.886507 -4.263053
  N     5.811998  9.638008 -5.624142
  N     4.904239  9.407608 -1.768845
  S     7.378854  5.731802 -5.941820
  S     4.083729  6.386249 -3.478982
  S     6.364212  5.595418 -1.926919
  S     7.416483  9.235369 -5.841665
  S     4.227315  9.783868 -3.306595
  S     6.467624  9.059135 -1.830917
