16  
    
  C     5.241247  6.373432 -4.356303
  C     6.415718  5.783170 -3.723507
  C     5.716124  9.526639 -4.285638
  C     6.894854  9.038906 -3.642602
  N     7.375839  5.477605 -4.574683
  N     5.357730  6.592494 -5.672046
  N     4.657212  5.952872 -1.875077
  N     7.940867  8.863523 -4.458207
  N     5.845034  9.767162 -5.630354
  N     5.350969  9.542962 -1.656224
  S     6.860251  6.049730 -6.077014
  S     3.921685  6.564032 -3.238488
  S     6.252121  5.582830 -2.040488
  S     7.411366  9.224691 -5.998169
  S     4.401278  9.784463 -3.083682
  S     6.900957  8.926974 -1.899162
