16  
    
  C     5.323889  5.527150 -4.338423
  C     6.491983  4.964929 -3.716929
  C     5.490392  9.203180 -4.400647
  C     6.585342  8.463979 -3.786131
  N     7.526797  4.778642 -4.532105
  N     5.505257  5.807462 -5.628349
  N     4.563856  5.161525 -1.908942
  N     7.587756  8.211661 -4.580271
  N     5.722161  9.600220 -5.661221
  N     4.942591  8.905877 -1.894707
  S     7.073455  5.225975 -6.070312
  S     4.018421  5.942618 -3.263354
  S     6.186596  4.678993 -1.949928
  S     7.267335  9.000063 -6.027885
  S     4.130540  9.346088 -3.268838
  S     6.323734  8.068693 -2.142077
