16  
    
  C     5.598913  5.615987 -4.195263
  C     6.930297  5.223573 -3.700046
  C     5.532765  9.431713 -4.499223
  C     6.615453  8.753344 -3.794457
  N     7.934707  5.155616 -4.589029
  N     5.624260  5.885955 -5.524594
  N     5.305685  5.230772 -1.633518
  N     7.654971  8.471389 -4.575558
  N     5.792837  9.804416 -5.742263
  N     4.792559  9.133316 -2.055840
  S     7.144924  5.494204 -6.026146
  S     4.367352  5.503766 -2.967165
  S     6.962713  5.016408 -1.972269
  S     7.334816  9.176073 -6.051876
  S     4.114908  9.574220 -3.467952
  S     6.304020  8.413577 -2.145450
