16  
    
  C     5.271587  6.329041 -4.459175
  C     6.510656  6.067211 -3.768184
  C     5.513015  9.639317 -4.323310
  C     6.776553  9.286218 -3.755526
  N     7.575970  5.981774 -4.543005
  N     5.397009  6.509596 -5.750207
  N     4.684255  6.036670 -1.981432
  N     7.769984  9.387077 -4.604419
  N     5.576501  9.956046 -5.598602
  N     5.099792  9.305395 -1.793848
  S     6.951408  6.250015 -6.140131
  S     3.929310  6.427530 -3.397382
  S     6.351248  5.883354 -2.124081
  S     7.094104  9.677312 -6.089046
  S     4.200030  9.690485 -3.153630
  S     6.634973  9.036045 -2.049568
