16  
    
  C     5.608015  6.178612 -4.370955
  C     6.720425  5.487652 -3.822903
  C     5.640414  9.611304 -4.269940
  C     6.820192  9.182534 -3.667414
  N     7.738742  5.279848 -4.623262
  N     5.754550  6.523526 -5.631592
  N     5.058397  5.775342 -1.869404
  N     7.773539  8.967900 -4.599073
  N     5.591586  9.777665 -5.635253
  N     5.114265  9.301505 -1.659569
  S     7.237861  5.821824 -6.129211
  S     4.276351  6.344302 -3.242971
  S     6.609429  5.164836 -2.064415
  S     7.160689  9.380163 -6.056978
  S     4.353215  9.654091 -3.122688
  S     6.710862  8.897704 -1.912405
