16  
    
  C     5.585276  5.584356 -4.406619
  C     6.832078  5.357961 -3.714218
  C     5.699502  9.543822 -4.165208
  C     6.826727  8.902320 -3.545417
  N     7.899376  5.119968 -4.483247
  N     5.771743  5.456307 -5.718822
  N     5.046847  5.726776 -1.869755
  N     7.836623  8.786834 -4.410913
  N     5.851256  9.876692 -5.444712
  N     5.085215  9.187395 -1.637855
  S     7.351775  5.060583 -6.016858
  S     4.199159  5.814523 -3.341184
  S     6.667008  5.269366 -1.954716
  S     7.335883  9.409435 -5.865640
  S     4.314150  9.558301 -3.064850
  S     6.688064  8.645443 -1.819421
