16  
    
  C     5.544846  5.420400 -4.146014
  C     6.922662  5.262554 -3.643832
  C     5.503203  9.332047 -4.590125
  C     6.664014  8.827512 -3.891047
  N     7.835506  5.244395 -4.620244
  N     5.398833  5.475601 -5.487906
  N     5.403747  5.232930 -1.527064
  N     7.770832  8.606438 -4.622977
  N     5.734261  9.521239 -5.878834
  N     4.780128  9.263736 -2.117751
  S     6.947350  5.441154 -6.035378
  S     4.392940  5.346767 -2.837834
  S     7.041411  5.124743 -1.875002
  S     7.298478  8.999785 -6.174046
  S     4.196370  9.795138 -3.555436
  S     6.286359  8.550535 -2.185207
