16  
    
  C     5.229053  6.195451 -4.337287
  C     6.338131  5.720141 -3.624076
  C     5.656381  9.658512 -4.112427
  C     6.790847  8.997240 -3.536080
  N     7.368915  5.399077 -4.374570
  N     5.410838  6.455518 -5.612502
  N     4.535661  6.106211 -1.842585
  N     7.733155  8.620600 -4.433517
  N     5.714724  9.808918 -5.451018
  N     5.199206  9.483317 -1.600434
  S     6.947843  5.810067 -5.928144
  S     3.871093  6.525324 -3.333073
  S     6.077727  5.607142 -1.916491
  S     7.190651  9.141724 -5.860954
  S     4.372103  9.858724 -3.030117
  S     6.819733  8.957145 -1.785819
