16  
    
  C     5.267631  6.316555 -4.382766
  C     6.350149  5.680723 -3.750375
  C     5.605304  9.529581 -4.312214
  C     6.807041  9.106238 -3.648986
  N     7.406681  5.278034 -4.492071
  N     5.439617  6.527192 -5.687672
  N     4.636101  6.227126 -1.855293
  N     7.849162  9.045365 -4.486462
  N     5.690344  9.674028 -5.650632
  N     5.010398  9.464790 -1.754304
  S     6.943697  5.899848 -5.997599
  S     4.007581  6.783320 -3.263691
  S     6.150737  5.540313 -2.011860
  S     7.263882  9.340079 -6.027786
  S     4.259366  9.835257 -3.203934
  S     6.597717  8.901984 -1.962963
