16  
    
  C     5.432272  5.524452 -4.220035
  C     6.605588  5.216760 -3.470038
  C     5.813223  8.848150 -3.946745
  C     7.089769  8.517172 -3.365475
  N     7.716736  4.974432 -4.218408
  N     5.615422  5.541855 -5.543622
  N     4.714751  5.685182 -1.735305
  N     8.028247  8.505029 -4.280326
  N     5.834133  9.074292 -5.249488
  N     5.356727  8.726686 -1.436940
  S     7.197044  5.041869 -5.795367
  S     4.086418  5.862290 -3.227416
  S     6.283348  5.126635 -1.768466
  S     7.402561  8.875223 -5.737536
  S     4.506807  9.147754 -2.829741
  S     6.906632  8.142283 -1.658275
