16  
    
  C     5.619415  5.481881 -4.048973
  C     6.842835  5.040016 -3.418886
  C     5.801870  9.423224 -3.908871
  C     7.023085  9.065043 -3.248098
  N     7.853468  4.985439 -4.268257
  N     5.680828  5.733705 -5.373912
  N     5.191144  5.513967 -1.495980
  N     8.044632  8.836141 -4.044003
  N     5.938593  9.422989 -5.261435
  N     5.375699  9.158768 -1.362226
  S     7.177847  5.325873 -5.770968
  S     4.393691  5.817275 -2.891229
  S     6.768362  4.974687 -1.673176
  S     7.501474  9.045116 -5.558637
  S     4.507873  9.437480 -2.793938
  S     7.016657  8.825145 -1.531001
