16  
    
  C     5.712120  5.918996 -4.138340
  C     6.909928  5.246918 -3.675386
  C     5.733784  9.276843 -4.059624
  C     6.947154  8.870761 -3.414063
  N     7.881638  5.087771 -4.614965
  N     5.800655  6.222154 -5.434509
  N     5.215542  5.206626 -1.701467
  N     7.993254  8.782481 -4.233356
  N     5.854152  9.440895 -5.374289
  N     5.362962  8.839001 -1.500704
  S     7.200925  5.605093 -6.041039
  S     4.416366  5.986905 -2.950421
  S     6.849020  4.804432 -1.947556
  S     7.411821  9.189351 -5.700303
  S     4.461737  9.231845 -2.857903
  S     6.966837  8.507895 -1.779251
