16  
    
  C     5.192478  6.293854 -4.302620
  C     6.207387  5.529499 -3.592831
  C     5.690747  9.633926 -4.190768
  C     6.837881  9.075189 -3.571412
  N     7.155897  5.074369 -4.377937
  N     5.475709  6.439931 -5.567648
  N     4.466881  6.224325 -1.872500
  N     7.856461  8.939605 -4.474245
  N     5.766637  9.939237 -5.519441
  N     5.049818  9.404785 -1.679600
  S     6.936083  5.622497 -5.877124
  S     3.898839  6.731216 -3.359569
  S     5.901289  5.472381 -1.896620
  S     7.276149  9.411096 -5.927722
  S     4.403925  9.857194 -3.129596
  S     6.660567  8.843737 -1.832493
