16  
    
  C     5.492928  6.072952 -4.415484
  C     6.637661  5.444129 -3.857255
  C     5.345892  9.803742 -4.529318
  C     6.573508  9.348999 -3.918334
  N     7.601289  5.224769 -4.745633
  N     5.555534  6.210879 -5.743362
  N     4.910872  5.775784 -1.966396
  N     7.643406  9.177387 -4.655992
  N     5.547068 10.099246 -5.781647
  N     4.918997  9.661410 -1.983771
  S     7.118033  5.677886 -6.270949
  S     4.155225  6.365198 -3.302760
  S     6.531545  5.377743 -2.101496
  S     7.175756  9.701680 -6.123614
  S     4.073097  9.908482 -3.360571
  S     6.470944  9.038777 -2.175218
