16  
    
  C     5.106463  6.311467 -4.508717
  C     6.378215  5.955950 -3.911041
  C     5.376440  9.620718 -4.226292
  C     6.645259  9.272600 -3.643364
  N     7.442408  5.958369 -4.730770
  N     5.184214  6.534241 -5.858315
  N     4.593391  5.989198 -1.996285
  N     7.640713  9.313196 -4.483421
  N     5.409675  9.986888 -5.492803
  N     5.060186  9.244623 -1.702225
  S     6.784773  6.359206 -6.219285
  S     3.761304  6.368934 -3.424969
  S     6.233325  5.799724 -2.210419
  S     7.013865  9.668408 -5.973510
  S     4.146205  9.517589 -2.976850
  S     6.679808  8.963883 -1.954485
