16  
    
  C     5.618744  6.146799 -4.383418
  C     6.775139  5.554901 -3.837437
  C     5.554400  9.565728 -4.230914
  C     6.768951  9.089076 -3.679796
  N     7.737894  5.264409 -4.687021
  N     5.681380  6.381848 -5.690000
  N     5.057857  5.681549 -1.877263
  N     7.767065  8.932388 -4.547951
  N     5.637012  9.904959 -5.542562
  N     5.111698  9.368644 -1.799570
  S     7.158542  5.872428 -6.135416
  S     4.285933  6.332112 -3.214459
  S     6.655467  5.287151 -2.072196
  S     7.144500  9.441174 -6.051723
  S     4.193666  9.662423 -3.113398
  S     6.731570  8.939558 -1.947712
