16  
    
  C     5.465881  5.635101 -4.361070
  C     6.612145  5.061752 -3.693362
  C     5.528895  9.701446 -4.601969
  C     6.676013  9.123312 -3.946464
  N     7.715004  4.888935 -4.434233
  N     5.694794  5.897241 -5.648416
  N     4.804188  5.471765 -1.847254
  N     7.719553  9.160353 -4.746017
  N     5.615168 10.091891 -5.884328
  N     4.816763  9.321086 -2.176640
  S     7.230857  5.431389 -5.951959
  S     4.159014  6.054411 -3.319538
  S     6.338558  4.756433 -1.978989
  S     7.251412  9.800249 -6.229661
  S     4.204732 10.002841 -3.557859
  S     6.356250  8.762770 -2.264093
