16  
    
  C     5.627544  5.704834 -4.437666
  C     6.972771  5.394230 -3.841018
  C     5.202818  9.616471 -4.354945
  C     6.439674  9.121445 -3.745207
  N     7.968870  5.234607 -4.745285
  N     5.647420  5.742272 -5.776911
  N     5.266707  5.697097 -1.886506
  N     7.391429  8.841377 -4.624123
  N     5.255469  9.771113 -5.658185
  N     4.738346  9.527235 -1.877379
  S     7.196013  5.489403 -6.215634
  S     4.360373  5.876689 -3.268181
  S     6.816683  5.197399 -2.074893
  S     6.791178  9.306474 -6.126431
  S     3.948446 10.161547 -3.214711
  S     6.383467  9.135818 -2.059645
