16  
    
  C     5.391845  6.061974 -4.410999
  C     6.602415  5.628543 -3.766916
  C     5.631548  9.697428 -4.399055
  C     6.754032  9.116147 -3.700053
  N     7.637177  5.473977 -4.554184
  N     5.516619  6.127482 -5.729612
  N     4.790849  5.934854 -1.853795
  N     7.829620  8.805267 -4.447235
  N     5.846203  9.857159 -5.714393
  N     5.015083  9.388749 -1.842865
  S     7.133869  5.786696 -6.041554
  S     4.092242  6.416998 -3.315052
  S     6.328338  5.388901 -2.025182
  S     7.408350  9.350252 -5.957104
  S     4.318321  9.881583 -3.293489
  S     6.571279  8.880282 -1.944622
