16  
    
  C     5.611777  5.758720 -4.281189
  C     6.755242  5.098954 -3.614585
  C     5.421282  9.147787 -4.185174
  C     6.633728  8.708846 -3.543945
  N     7.706604  4.759876 -4.450320
  N     5.776437  5.889404 -5.596503
  N     5.043527  5.609407 -1.775284
  N     7.707664  8.606614 -4.355218
  N     5.552809  9.351175 -5.489408
  N     4.813621  8.967584 -1.680815
  S     7.290656  5.282746 -5.964031
  S     4.281629  6.143253 -3.173974
  S     6.515256  4.888714 -1.928744
  S     7.128404  8.944401 -5.857290
  S     4.103935  9.517185 -3.118989
  S     6.395050  8.565677 -1.791915
