16  
    
  C     5.539849  5.767258 -4.348730
  C     6.787483  5.322433 -3.826938
  C     5.330939  9.951606 -4.656311
  C     6.468777  9.276381 -4.036950
  N     7.779122  5.140805 -4.681228
  N     5.601149  5.969196 -5.686087
  N     5.190995  5.545396 -1.868008
  N     7.420899  8.863109 -4.865040
  N     5.423321  9.958410 -5.986397
  N     4.875480  9.788601 -2.054152
  S     7.132296  5.577563 -6.215044
  S     4.372133  6.069714 -3.170170
  S     6.717543  4.958106 -2.155001
  S     6.903436  9.309465 -6.358332
  S     4.145354 10.373709 -3.497679
  S     6.380000  9.086019 -2.324794
