16  
    
  C     5.650761  6.506810 -4.535242
  C     6.818518  5.950114 -3.878958
  C     5.508473 10.010543 -4.617854
  C     6.776172  9.537741 -3.997288
  N     7.798028  5.724322 -4.741514
  N     5.753252  6.697079 -5.804045
  N     5.046845  6.255159 -2.054883
  N     7.760011  9.307368 -4.841441
  N     5.561659 10.088804 -5.934745
  N     5.018198 10.055879 -2.081342
  S     7.258748  6.198587 -6.262320
  S     4.372638  6.795280 -3.448348
  S     6.582529  5.665181 -2.180847
  S     7.098234  9.676911 -6.365089
  S     4.199897 10.354116 -3.588321
  S     6.535526  9.469023 -2.272210
