16  
    
  C     5.492908  5.679726 -4.708800
  C     6.795691  5.598026 -4.079966
  C     5.412334  9.678738 -4.292795
  C     6.645567  9.295273 -3.613783
  N     7.886913  5.727534 -4.849337
  N     5.593869  5.953236 -6.031579
  N     5.043660  5.333785 -2.185516
  N     7.721808  9.329767 -4.358504
  N     5.503156  9.997646 -5.565528
  N     4.860411  9.196134 -1.796067
  S     7.232254  5.808273 -6.380772
  S     4.269583  5.643126 -3.571980
  S     6.696466  5.425055 -2.356624
  S     7.174452  9.848274 -5.888386
  S     4.125665  9.831993 -3.141111
  S     6.444071  8.770493 -1.959043
