16  
    
  C     5.689730  5.746635 -4.411042
  C     6.966080  5.270294 -3.953464
  C     5.645180  9.099853 -4.081874
  C     6.957166  8.650982 -3.649694
  N     7.924087  5.337154 -4.874583
  N     5.753529  6.251474 -5.654786
  N     5.343737  5.188232 -1.925278
  N     7.939067  8.611112 -4.523071
  N     5.725344  9.495939 -5.351880
  N     5.500083  8.820390 -1.569746
  S     7.354327  6.075461 -6.184354
  S     4.429912  5.853032 -3.124463
  S     6.901860  4.797143 -2.308995
  S     7.237216  9.267105 -5.880648
  S     4.519771  9.382296 -2.791731
  S     7.023961  8.352012 -1.943046
