16  
    
  C     5.555885  5.921912 -4.436218
  C     6.817916  5.650610 -3.812992
  C     5.749220  9.465742 -4.358515
  C     7.021744  9.131737 -3.723712
  N     7.872291  5.574412 -4.659779
  N     5.652144  6.091482 -5.725440
  N     4.990822  5.462968 -1.971306
  N     8.126606  9.038835 -4.499249
  N     5.874278  9.567614 -5.697446
  N     5.342699  9.376420 -1.790617
  S     7.245006  5.827564 -6.120084
  S     4.227744  6.038664 -3.344924
  S     6.618858  5.253687 -2.118254
  S     7.496755  9.322022 -6.060420
  S     4.447554  9.526693 -3.225876
  S     6.906923  8.959817 -1.966101
