16  
    
  C     5.488523  5.271630 -4.201711
  C     6.794466  5.077927 -3.567577
  C     5.388312  9.247623 -4.433447
  C     6.579374  8.683270 -3.840556
  N     7.774702  4.900245 -4.423263
  N     5.522259  5.260191 -5.529533
  N     5.111748  5.272809 -1.632833
  N     7.586892  8.414735 -4.658789
  N     5.516388  9.436845 -5.747275
  N     4.873109  9.096834 -1.953431
  S     7.153900  5.151519 -5.926426
  S     4.197756  5.081104 -2.990770
  S     6.751727  5.090723 -1.867956
  S     6.985354  8.838559 -6.217033
  S     4.098647  9.547494 -3.370562
  S     6.460270  8.681284 -2.087248
