16  
    
  C     5.264275  6.284077 -4.524981
  C     6.375398  5.764413 -3.763365
  C     5.414469  9.980123 -4.133671
  C     6.662903  9.640647 -3.542477
  N     7.504380  5.578869 -4.444838
  N     5.520990  6.541831 -5.804164
  N     4.502149  6.089672 -2.044551
  N     7.648132  9.677575 -4.432119
  N     5.461678 10.302257 -5.455091
  N     5.064444  9.417395 -1.619935
  S     7.088460  6.057140 -6.053680
  S     3.813667  6.535976 -3.488718
  S     6.065472  5.477396 -2.123061
  S     7.038447 10.085203 -5.870332
  S     4.129483  9.711238 -3.014420
  S     6.654549  9.317448 -1.899239
