16  
    
  C     5.260174  6.240699 -4.515129
  C     6.421935  5.654481 -3.879042
  C     5.440236  9.603445 -4.120690
  C     6.764067  9.360900 -3.471415
  N     7.440727  5.615286 -4.788495
  N     5.364169  6.570774 -5.784767
  N     4.595848  5.978397 -2.074726
  N     7.753054  9.533069 -4.304592
  N     5.412339  9.987287 -5.396337
  N     4.996638  9.056008 -1.608650
  S     6.914734  6.153018 -6.189722
  S     3.855269  6.419226 -3.506323
  S     6.192702  5.512766 -2.182830
  S     7.055422  9.927069 -5.776242
  S     4.192715  9.561520 -2.919464
  S     6.695481  8.905589 -1.837623
