16  
    
  C     5.475939  5.899580 -4.392652
  C     6.733583  5.428224 -3.892264
  C     5.501655  9.961645 -4.665459
  C     6.651703  9.218741 -4.104633
  N     7.651385  5.162116 -4.863040
  N     5.476689  6.157493 -5.679268
  N     5.146369  5.537096 -1.902019
  N     7.528831  8.798083 -4.981488
  N     5.534085 10.013574 -5.999281
  N     5.109016  9.837120 -2.057454
  S     6.996129  5.690169 -6.210273
  S     4.275756  6.132405 -3.182666
  S     6.695723  5.128333 -2.182063
  S     6.996852  9.359129 -6.444296
  S     4.390221 10.310529 -3.433378
  S     6.628399  9.021917 -2.331267
