16  
    
  C     5.404051  6.072197 -4.404865
  C     6.590370  5.607777 -3.740614
  C     5.663678  9.680105 -4.431718
  C     6.774722  9.116268 -3.720887
  N     7.638206  5.488014 -4.524855
  N     5.526655  6.108703 -5.725912
  N     4.805974  5.938745 -1.831128
  N     7.822505  8.821574 -4.464063
  N     5.864868  9.879931 -5.733845
  N     5.014551  9.408200 -1.889511
  S     7.126192  5.782363 -6.067502
  S     4.098771  6.405394 -3.298258
  S     6.339341  5.383715 -2.044757
  S     7.405345  9.329905 -5.962969
  S     4.327982  9.906146 -3.284246
  S     6.583979  8.874356 -1.974641
