16  
    
  C     5.539616  5.738763 -4.417652
  C     6.646946  5.172879 -3.748752
  C     5.711755  9.425697 -4.280539
  C     6.880154  8.986822 -3.555830
  N     7.736557  5.028648 -4.511590
  N     5.728069  5.941419 -5.717054
  N     4.792090  5.457522 -1.996293
  N     7.895080  8.749011 -4.364581
  N     5.830051  9.569273 -5.593150
  N     5.105144  9.221084 -1.697063
  S     7.287058  5.398461 -6.076562
  S     4.253273  6.238933 -3.350163
  S     6.385876  4.970251 -2.000228
  S     7.399634  9.120141 -5.976657
  S     4.374651  9.618482 -3.174247
  S     6.706150  8.727201 -1.831213
