16  
    
  C     5.498715  6.053991 -4.196821
  C     6.699668  5.401303 -3.643655
  C     5.350172  9.539968 -4.340339
  C     6.643654  9.186227 -3.786844
  N     7.678829  5.408774 -4.520182
  N     5.612961  6.419147 -5.455799
  N     4.941575  5.603421 -1.749256
  N     7.651319  9.037110 -4.684899
  N     5.436458  9.678374 -5.693011
  N     4.907558  9.152545 -1.831669
  S     7.164377  5.967934 -5.958332
  S     4.179206  6.094632 -3.119275
  S     6.512946  5.095717 -1.994405
  S     7.010409  9.458550 -6.107235
  S     4.067971  9.655174 -3.232130
  S     6.562724  8.874296 -2.064255
