16  
    
  C     5.590827  6.025375 -4.278826
  C     6.722951  5.439880 -3.667665
  C     5.920548  9.110194 -4.060203
  C     7.162963  8.764049 -3.445299
  N     7.752552  5.184189 -4.469081
  N     5.752503  6.271081 -5.583675
  N     4.906518  5.528306 -1.861186
  N     8.187912  8.843552 -4.310325
  N     5.974959  9.313818 -5.362157
  N     5.453646  9.060062 -1.528526
  S     7.222529  5.549027 -6.006728
  S     4.264183  6.268476 -3.190655
  S     6.509307  5.171945 -1.921823
  S     7.601448  9.187249 -5.787609
  S     4.562743  9.258188 -2.931374
  S     6.987613  8.501936 -1.757853
