16  
    
  C     5.703980  5.735343 -4.236355
  C     6.969629  5.256996 -3.716336
  C     5.800930  9.660018 -4.402900
  C     7.013985  9.147566 -3.795359
  N     7.955599  5.249420 -4.606525
  N     5.727743  5.948639 -5.546853
  N     5.280738  5.172690 -1.787075
  N     8.033009  9.097413 -4.643391
  N     5.935386 10.093391 -5.670180
  N     5.266195  9.292226 -1.988509
  S     7.296671  5.822371 -6.002277
  S     4.444104  5.641301 -3.096984
  S     6.883462  4.813718 -2.050660
  S     7.461789  9.699819 -6.144282
  S     4.414457  9.809586 -3.312392
  S     6.823691  8.748931 -2.148905
