16  
    
  C     5.533867  6.146982 -4.427888
  C     6.734160  5.655928 -3.832081
  C     5.389831  9.971637 -4.700294
  C     6.634192  9.707189 -3.993981
  N     7.743972  5.579328 -4.721912
  N     5.579004  6.343596 -5.754550
  N     4.924609  5.767403 -1.979811
  N     7.631885  9.587101 -4.853377
  N     5.405794 10.051568 -6.048690
  N     4.698332  9.524747 -2.200702
  S     7.141010  6.015889 -6.238118
  S     4.125643  6.173979 -3.374671
  S     6.547494  5.269768 -2.148643
  S     7.029306  9.860460 -6.405530
  S     4.009989  9.989649 -3.655677
  S     6.431881  9.419986 -2.268082
