16  
    
  C     5.098568  5.428254 -4.175058
  C     6.323675  4.894356 -3.560890
  C     5.443176  9.312323 -4.335918
  C     6.668410  8.915627 -3.672191
  N     7.329694  4.510113 -4.335748
  N     5.232488  5.501002 -5.477261
  N     4.614606  5.133176 -1.660330
  N     7.655198  8.688788 -4.540374
  N     5.496291  9.602174 -5.642713
  N     4.916083  9.403056 -1.800386
  S     6.796487  5.027991 -5.858880
  S     3.875610  5.692088 -3.021246
  S     6.186904  4.696674 -1.817952
  S     7.110984  9.172998 -6.080215
  S     4.119058  9.618264 -3.276482
  S     6.530889  9.047239 -1.910482
