16  
    
  C     5.401848  5.970136 -4.485718
  C     6.650807  5.641388 -3.853671
  C     5.315090  9.868806 -4.672609
  C     6.589199  9.598932 -4.008768
  N     7.738741  5.606278 -4.661827
  N     5.514335  6.234084 -5.800702
  N     4.960418  5.709019 -1.940729
  N     7.627889  9.680087 -4.836153
  N     5.418364 10.084164 -5.984317
  N     4.768404  9.517218 -2.248532
  S     7.085637  5.948586 -6.190805
  S     4.099890  6.024692 -3.331416
  S     6.501028  5.170856 -2.204715
  S     7.033358  9.904434 -6.366816
  S     3.954520 10.017607 -3.628125
  S     6.327525  9.339565 -2.301802
