16  
    
  C     5.214588  6.158277 -4.431666
  C     6.488737  5.738076 -3.741013
  C     5.483033  9.723417 -4.471439
  C     6.633660  9.206147 -3.733971
  N     7.510119  5.531307 -4.569684
  N     5.390613  6.410724 -5.726185
  N     4.769159  6.012446 -1.863921
  N     7.689362  9.005334 -4.520860
  N     5.692996  9.893774 -5.769375
  N     4.861065  9.633369 -1.968340
  S     6.903436  5.883612 -6.086281
  S     3.964881  6.481311 -3.245375
  S     6.417968  5.640490 -1.988272
  S     7.283066  9.511390 -6.053467
  S     4.091810  9.775885 -3.468747
  S     6.452949  9.077770 -2.007005
