16  
    
  C     5.265940  6.321999 -4.384778
  C     6.455918  5.794730 -3.759699
  C     5.668940  9.538428 -4.259540
  C     6.880613  9.047949 -3.669087
  N     7.433355  5.444391 -4.606879
  N     5.381838  6.582057 -5.702139
  N     4.707984  5.991342 -1.866724
  N     7.958686  8.899855 -4.461088
  N     5.851389  9.735930 -5.587306
  N     5.287904  9.516067 -1.711517
  S     6.857085  6.055555 -6.101563
  S     3.896092  6.559619 -3.218372
  S     6.277595  5.580482 -2.019538
  S     7.400295  9.244878 -6.025666
  S     4.380993  9.774801 -3.089103
  S     6.868699  8.928746 -1.905775
