16  
    
  C     5.519501  6.172955 -4.352115
  C     6.672734  5.708018 -3.687817
  C     5.432847  9.668119 -4.313511
  C     6.695368  9.298626 -3.630315
  N     7.695355  5.441973 -4.470261
  N     5.657552  6.283956 -5.653092
  N     4.862758  5.884039 -1.916989
  N     7.666719  9.251614 -4.499530
  N     5.489587  9.895448 -5.624181
  N     4.939570  9.481985 -1.798242
  S     7.231501  5.732807 -6.023425
  S     4.202866  6.398363 -3.368311
  S     6.457086  5.633119 -1.957283
  S     7.107649  9.670235 -5.988306
  S     4.063231  9.561211 -3.235741
  S     6.511847  9.009983 -1.889097
