16  
    
  C     5.394614  5.911659 -4.440297
  C     6.600159  5.370654 -3.745607
  C     5.372696  9.329673 -4.201756
  C     6.611229  8.898335 -3.600061
  N     7.628677  5.211034 -4.564151
  N     5.594588  6.075044 -5.761545
  N     4.789502  5.692075 -1.997069
  N     7.642637  8.844543 -4.458773
  N     5.470001  9.577938 -5.529308
  N     5.011083  9.133256 -1.606426
  S     7.198018  5.650046 -6.034770
  S     4.063081  6.226972 -3.426126
  S     6.334454  5.058360 -2.060283
  S     7.034122  9.121643 -5.937000
  S     4.164623  9.584458 -2.933827
  S     6.657673  8.776771 -1.910184
