16  
    
  C     5.209217  6.366467 -4.690271
  C     6.456661  5.993470 -4.062322
  C     5.815564  9.782692 -4.358115
  C     7.031720  9.330159 -3.774010
  N     7.462419  5.729123 -4.952404
  N     5.290829  6.532595 -6.031747
  N     4.763060  6.433596 -2.140724
  N     8.002812  9.038395 -4.656948
  N     5.772026  9.848116 -5.684663
  N     5.295962  9.462251 -1.847927
  S     6.831181  6.065360 -6.369252
  S     3.958544  6.644542 -3.614321
  S     6.334748  5.988085 -2.341915
  S     7.366810  9.534055 -6.127712
  S     4.473633  9.869197 -3.239927
  S     6.859058  9.146607 -2.054156
