16  
    
  C     5.398752  6.014711 -4.176377
  C     6.601728  5.331211 -3.633954
  C     5.658999  9.700905 -4.565034
  C     6.708068  9.060540 -3.773497
  N     7.604361  5.176576 -4.502914
  N     5.546991  6.273886 -5.482601
  N     4.985815  5.765615 -1.660930
  N     7.792181  8.860005 -4.505151
  N     5.969736 10.129243 -5.789000
  N     4.787678  9.259225 -2.103134
  S     7.032379  5.745954 -5.978758
  S     4.201364  6.324198 -2.996534
  S     6.547577  5.197426 -1.886566
  S     7.615484  9.587204 -5.960682
  S     4.216917  9.910305 -3.539485
  S     6.386755  8.827144 -2.129566
