16  
    
  C     5.767139  5.713730 -4.268026
  C     6.958438  5.192161 -3.689254
  C     5.186758  9.849632 -4.642885
  C     6.327950  9.305389 -3.960199
  N     7.961422  4.961467 -4.562377
  N     5.828094  5.828401 -5.630284
  N     5.152008  5.568754 -1.765959
  N     7.325238  8.893470 -4.738968
  N     5.341275  9.928027 -5.943164
  N     4.478001  9.735913 -2.230810
  S     7.363251  5.320835 -5.996461
  S     4.412214  5.830645 -3.241175
  S     6.771253  5.172107 -1.903494
  S     6.844737  9.363145 -6.256476
  S     3.897121 10.233440 -3.630356
  S     6.077917  9.161048 -2.177073
