16  
    
  C     5.539153  5.073466 -4.210943
  C     6.851888  5.084011 -3.649645
  C     5.366739  9.181002 -4.533992
  C     6.563045  8.751966 -3.857632
  N     7.803416  5.119676 -4.597181
  N     5.448724  5.231597 -5.531370
  N     5.169745  5.238324 -1.649666
  N     7.590393  8.422988 -4.654691
  N     5.573959  9.328472 -5.837984
  N     4.800868  9.088675 -2.003422
  S     7.060862  5.108312 -6.030602
  S     4.234133  5.211915 -3.026254
  S     6.845812  5.058781 -1.880687
  S     7.158381  8.915868 -6.151868
  S     4.083479  9.551184 -3.418361
  S     6.412637  8.744651 -2.117741
