16  
    
  C     5.820934  5.749992 -4.353684
  C     6.944461  5.109766 -3.679352
  C     5.664655  9.516012 -4.260430
  C     6.879182  8.984435 -3.679121
  N     7.980093  4.925094 -4.461328
  N     6.116276  6.016869 -5.600483
  N     5.092816  5.293349 -1.953990
  N     7.912973  8.999397 -4.507007
  N     5.799801  9.867987 -5.539247
  N     5.067944  8.922933 -1.830614
  S     7.684258  5.591237 -5.953748
  S     4.397896  5.795964 -3.393777
  S     6.626223  4.758264 -2.051331
  S     7.341546  9.570266 -5.984470
  S     4.252531  9.435134 -3.248639
  S     6.585304  8.261857 -2.101882
