16  
    
  C     5.376573  6.457415 -4.498991
  C     6.511076  5.869083 -3.771248
  C     5.481606 10.040027 -4.295814
  C     6.745285  9.769168 -3.611403
  N     7.548416  5.646673 -4.576127
  N     5.586534  6.626512 -5.781117
  N     4.645702  6.254181 -1.995887
  N     7.801445  9.848137 -4.431635
  N     5.531217 10.290866 -5.634970
  N     4.969287  9.845331 -1.773304
  S     7.164149  6.033791 -6.065789
  S     3.970782  6.833277 -3.450006
  S     6.212184  5.727482 -2.080927
  S     7.152941 10.146513 -5.968067
  S     4.141487 10.101268 -3.221946
  S     6.561286  9.411281 -1.915218
