16  
    
  C     5.546166  6.277695 -4.507832
  C     6.734747  5.704931 -3.891013
  C     5.369434  9.930780 -4.733383
  C     6.624892  9.564719 -4.093343
  N     7.739551  5.526871 -4.750483
  N     5.710218  6.609203 -5.753671
  N     4.989678  5.897201 -2.027930
  N     7.684849  9.462601 -4.840884
  N     5.512869 10.128055 -6.041613
  N     4.873027  9.695379 -2.145752
  S     7.263165  6.107490 -6.191730
  S     4.239856  6.470824 -3.372481
  S     6.611534  5.534494 -2.178621
  S     7.101424  9.749494 -6.376209
  S     4.024651 10.088821 -3.559924
  S     6.557708  9.551326 -2.357979
