16  
    
  C     5.388093  6.059960 -4.593435
  C     6.649403  5.605782 -4.052115
  C     5.739062  9.422532 -4.132217
  C     6.995037  9.070205 -3.588487
  N     7.721693  5.619021 -4.824255
  N     5.491866  6.381144 -5.836906
  N     5.067806  5.715973 -2.063137
  N     7.977110  8.926952 -4.433836
  N     5.815642  9.619269 -5.451240
  N     5.253716  8.945535 -1.660054
  S     7.046415  6.189647 -6.331519
  S     4.135972  6.002405 -3.424664
  S     6.661261  5.458458 -2.357400
  S     7.386123  9.333936 -5.901634
  S     4.470766  9.514699 -3.015287
  S     6.911007  8.726565 -1.862488
