16  
    
  C     5.236553  6.368196 -4.717623
  C     6.470336  6.011377 -4.072559
  C     5.810553  9.753099 -4.305331
  C     7.078844  9.300109 -3.782504
  N     7.481702  5.750075 -4.868480
  N     5.310019  6.548359 -6.018863
  N     4.728088  6.410496 -2.156459
  N     8.014867  9.075963 -4.702598
  N     5.836610  9.837551 -5.625588
  N     5.241231  9.473742 -1.886859
  S     6.816947  6.065683 -6.433295
  S     3.934663  6.656599 -3.574478
  S     6.315808  6.001897 -2.309620
  S     7.313295  9.522491 -6.150444
  S     4.512806  9.840367 -3.254007
  S     6.883835  9.123845 -2.064851
