16  
    
  C     5.638736  5.555066 -4.011238
  C     6.895305  5.114131 -3.483574
  C     5.843777  9.240876 -3.871454
  C     7.107266  8.900093 -3.277361
  N     7.846628  4.945847 -4.381116
  N     5.648889  5.743612 -5.328117
  N     5.197658  5.435645 -1.488515
  N     8.130503  8.760635 -4.121061
  N     5.898394  9.486901 -5.193191
  N     5.313286  9.157156 -1.401805
  S     7.253335  5.432645 -5.882363
  S     4.345486  5.943300 -2.857661
  S     6.765296  4.924431 -1.720807
  S     7.490657  9.165392 -5.631207
  S     4.521134  9.355844 -2.797522
  S     6.928841  8.788458 -1.537912
