16  
    
  C     5.815623  5.741825 -4.352126
  C     6.961441  5.107503 -3.663680
  C     5.662053  9.521631 -4.258924
  C     6.875845  8.974758 -3.700127
  N     7.973564  4.925068 -4.459860
  N     6.117602  6.032164 -5.595439
  N     5.081907  5.293211 -1.972788
  N     7.915149  8.996274 -4.547144
  N     5.790143  9.863808 -5.528633
  N     5.078364  8.946165 -1.827319
  S     7.674654  5.591124 -5.966108
  S     4.397804  5.794556 -3.388031
  S     6.631712  4.778799 -2.057639
  S     7.350246  9.592688 -5.974083
  S     4.274020  9.425199 -3.253946
  S     6.605383  8.272759 -2.088591
