16  
    
  C     5.750088  5.879739 -4.393894
  C     7.012778  5.388398 -3.866870
  C     5.693426  9.306621 -4.038389
  C     6.936341  8.702819 -3.614460
  N     7.920318  5.429377 -4.819298
  N     5.712065  6.228960 -5.653292
  N     5.258919  5.158371 -2.010778
  N     7.902055  8.619418 -4.548498
  N     5.691200  9.682543 -5.315915
  N     5.490088  8.836858 -1.444429
  S     7.278384  5.940622 -6.258390
  S     4.463852  5.791535 -3.301042
  S     6.872327  4.820338 -2.220653
  S     7.277307  9.301248 -5.926729
  S     4.576223  9.411634 -2.740531
  S     7.019121  8.381469 -1.871056
