16  
    
  C     5.573316  5.753000 -4.377020
  C     6.814786  5.275371 -3.752417
  C     5.466638  9.429982 -4.660112
  C     6.721776  9.262159 -3.921057
  N     7.840766  5.107152 -4.608815
  N     5.616251  5.817204 -5.713788
  N     5.139863  5.721534 -1.849616
  N     7.773481  9.310367 -4.713913
  N     5.600339  9.567225 -5.951205
  N     4.852251  9.327090 -2.190934
  S     7.186591  5.511781 -6.119544
  S     4.321260  6.066141 -3.221483
  S     6.679479  5.195614 -2.041967
  S     7.243861  9.536098 -6.253478
  S     4.082845  9.655191 -3.619774
  S     6.483113  8.967152 -2.219396
