16  
    
  C     5.522552  5.875360 -4.463160
  C     6.713752  5.543932 -3.848173
  C     5.421100  9.394333 -4.347952
  C     6.701443  9.026096 -3.803480
  N     7.772680  5.410887 -4.639078
  N     5.608059  5.962178 -5.785772
  N     5.080790  5.701687 -1.878475
  N     7.652460  8.952845 -4.724037
  N     5.479393  9.738322 -5.651806
  N     5.084051  9.430268 -1.794565
  S     7.204068  5.623712 -6.206943
  S     4.219732  5.930895 -3.321774
  S     6.720144  5.474750 -2.116975
  S     7.063164  9.411676 -6.148781
  S     4.208042  9.821169 -3.144463
  S     6.692920  9.137508 -2.020673
