16  
    
  C     5.400954  5.857515 -4.387149
  C     6.596000  5.479488 -3.719951
  C     5.266782  9.484188 -4.412839
  C     6.555484  9.263369 -3.792742
  N     7.683169  5.378369 -4.485597
  N     5.534968  5.936783 -5.700327
  N     4.741653  5.735622 -1.934325
  N     7.549543  9.029159 -4.613207
  N     5.317410  9.356036 -5.747211
  N     4.837664  9.242765 -1.814053
  S     7.147932  5.541293 -6.064817
  S     4.016628  6.110755 -3.372602
  S     6.330701  5.210421 -2.055041
  S     6.916138  9.038778 -6.171319
  S     3.987798  9.743778 -3.194803
  S     6.483902  8.992025 -2.046938
