16  
    
  C     5.644848  5.767991 -4.303999
  C     6.903763  5.217692 -3.826497
  C     5.797540  9.795287 -4.458583
  C     7.010841  9.277443 -3.831643
  N     7.847025  5.011997 -4.744732
  N     5.705192  6.119578 -5.594831
  N     5.309465  5.305296 -1.756629
  N     8.027827  9.367292 -4.630852
  N     5.899054 10.117481 -5.748375
  N     5.057125  8.940175 -2.152755
  S     7.243745  5.773774 -6.089942
  S     4.431376  5.751867 -3.111537
  S     6.835329  4.781605 -2.157691
  S     7.522655  9.833778 -6.095221
  S     4.352356  9.848689 -3.396536
  S     6.737647  8.790496 -2.205529
