16  
    
  C     5.251494  6.327739 -4.513997
  C     6.331716  5.742487 -3.824334
  C     5.449611  9.878812 -4.067905
  C     6.754497  9.605373 -3.550176
  N     7.427045  5.533551 -4.592535
  N     5.489180  6.577710 -5.804786
  N     4.526031  6.119087 -2.028005
  N     7.762100  9.566615 -4.438272
  N     5.408210 10.156312 -5.389347
  N     4.965648  9.278520 -1.617200
  S     7.078080  6.083247 -6.087112
  S     3.821526  6.402941 -3.491482
  S     6.057699  5.471096 -2.134482
  S     7.023217 10.074400 -5.892944
  S     4.125440  9.652989 -2.953487
  S     6.666998  9.191222 -1.837410
