16  
    
  C     5.633955  5.769105 -4.341379
  C     6.850331  5.226577 -3.801963
  C     5.252727  9.835718 -4.681451
  C     6.396774  9.257217 -3.965911
  N     7.836372  5.059642 -4.695224
  N     5.670135  5.918644 -5.714661
  N     5.197598  5.487296 -1.813989
  N     7.362781  8.898383 -4.809841
  N     5.378959  9.930124 -6.011245
  N     4.700244  9.753973 -2.159845
  S     7.238169  5.482161 -6.100598
  S     4.332710  6.027792 -3.179478
  S     6.769862  5.000857 -2.083142
  S     6.920369  9.322516 -6.342898
  S     4.024090 10.374764 -3.474931
  S     6.262362  9.118438 -2.278557
