16  
    
  C     5.181171  6.127751 -4.326112
  C     6.337911  5.560181 -3.680287
  C     5.524766  9.760713 -4.267263
  C     6.669482  9.202230 -3.632724
  N     7.394793  5.340529 -4.458222
  N     5.334681  6.373311 -5.628432
  N     4.579903  5.962597 -1.808294
  N     7.603931  8.947133 -4.562363
  N     5.543407  9.949453 -5.622161
  N     4.989258  9.651427 -1.720305
  S     6.819385  5.860304 -5.963158
  S     3.903051  6.562496 -3.249432
  S     6.170940  5.315470 -1.925862
  S     7.065554  9.460451 -6.084012
  S     4.218675 10.010314 -3.096039
  S     6.605543  8.989242 -1.916956
