16  
    
  C     5.511525  5.871275 -4.460952
  C     6.665846  5.298973 -3.761302
  C     5.525512  9.479727 -4.102367
  C     6.748277  8.940996 -3.596858
  N     7.724569  5.008045 -4.553639
  N     5.720627  6.186989 -5.748256
  N     4.748401  5.723406 -1.976864
  N     7.633144  8.731048 -4.578232
  N     5.473274  9.663923 -5.411247
  N     4.988103  9.197533 -1.649089
  S     7.231917  5.580655 -6.069977
  S     4.141750  6.143731 -3.449528
  S     6.335467  5.118037 -2.058540
  S     6.967512  9.337235 -6.013579
  S     4.239148  9.659814 -2.988819
  S     6.698003  8.787276 -1.820680
