16  
    
  C     5.715343  5.798243 -4.284418
  C     6.919583  5.201110 -3.820451
  C     5.722998  9.658353 -4.464800
  C     6.959957  9.245688 -3.869527
  N     7.930979  5.145907 -4.684672
  N     5.715037  6.151293 -5.571496
  N     5.321602  5.263913 -1.793049
  N     8.094240  9.276288 -4.599959
  N     5.951606 10.013553 -5.725121
  N     5.125998  9.073315 -2.070947
  S     7.262147  5.769245 -6.124765
  S     4.359630  5.690615 -3.059450
  S     6.871470  4.703164 -2.150070
  S     7.536720  9.901079 -6.108495
  S     4.454812  9.906233 -3.318402
  S     6.729657  8.773704 -2.202172
