16  
    
  C     5.503980  6.089020 -4.364517
  C     6.666294  5.489267 -3.667147
  C     5.723932  9.546215 -4.178570
  C     6.928570  8.960695 -3.585577
  N     7.748429  5.221097 -4.396303
  N     5.741329  6.218474 -5.659867
  N     4.696020  5.626087 -1.922284
  N     7.926248  8.790272 -4.485216
  N     5.828641  9.808390 -5.486229
  N     5.170896  9.586063 -1.691819
  S     7.278252  5.750140 -5.908859
  S     4.136501  6.362562 -3.320676
  S     6.285273  5.150345 -1.992863
  S     7.318450  9.295831 -5.958716
  S     4.369519  9.919934 -3.135109
  S     6.730266  8.826908 -1.891673
