16  
    
  C     5.741064  5.510978 -4.359671
  C     6.983468  5.228437 -3.694556
  C     5.389685  9.348478 -4.502235
  C     6.579388  8.914954 -3.790384
  N     7.975880  5.020444 -4.576695
  N     5.829138  5.562546 -5.689128
  N     5.171016  5.341280 -1.873620
  N     7.609174  8.659809 -4.573052
  N     5.533033  9.439667 -5.802909
  N     4.949504  9.485022 -1.967123
  S     7.441570  5.321221 -6.096121
  S     4.357378  5.516707 -3.291255
  S     6.831883  4.964588 -1.917708
  S     7.140677  8.883533 -6.106408
  S     4.123425  9.764619 -3.379881
  S     6.434195  8.743068 -2.086601
