16  
    
  C     5.552170  5.998953 -4.426720
  C     6.733574  5.682504 -3.671116
  C     5.612031  9.558640 -4.381194
  C     6.773177  9.177431 -3.596272
  N     7.844017  5.505434 -4.353039
  N     5.765093  6.010401 -5.732232
  N     4.799156  6.019070 -2.008929
  N     7.854173  8.965980 -4.319117
  N     5.811575  9.662872 -5.692239
  N     4.897006  9.487378 -1.858744
  S     7.334736  5.746746 -5.945931
  S     4.161108  6.292599 -3.467852
  S     6.439957  5.635315 -2.001645
  S     7.427901  9.243713 -5.894000
  S     4.135036  9.681703 -3.263925
  S     6.577359  9.076316 -1.946388
