16  
    
  C     5.538697  5.844865 -4.375583
  C     6.798698  5.309425 -3.903283
  C     5.426443  9.882327 -4.583403
  C     6.615581  9.221765 -4.064151
  N     7.762495  5.214560 -4.819836
  N     5.528585  6.039513 -5.726434
  N     5.180082  5.561996 -1.831152
  N     7.554320  8.867882 -4.955650
  N     5.517781 10.070788 -5.880841
  N     5.007817  9.836871 -2.132106
  S     7.060843  5.636925 -6.249156
  S     4.301206  6.116089 -3.179723
  S     6.706389  4.971421 -2.128111
  S     6.878842  9.294089 -6.454546
  S     4.204629 10.370764 -3.475097
  S     6.463377  9.070875 -2.315106
