16  
    
  C     5.697744  5.646139 -4.231088
  C     6.895987  5.235707 -3.662428
  C     5.542915  9.403404 -4.400389
  C     6.630821  8.667200 -3.819822
  N     7.862302  5.109355 -4.535290
  N     5.740083  5.902892 -5.544464
  N     5.286060  5.187150 -1.729072
  N     7.725762  8.515767 -4.580868
  N     5.813843  9.822592 -5.615686
  N     4.714261  8.857541 -2.005571
  S     7.322673  5.544457 -6.029983
  S     4.372300  5.618473 -3.065841
  S     6.873404  4.882699 -1.959440
  S     7.283533  9.272515 -6.047759
  S     4.154771  9.598136 -3.442777
  S     6.297828  8.412164 -2.088956
