16  
    
  C     5.596073  5.873100 -4.518584
  C     6.868490  5.489358 -3.841803
  C     5.064207  9.516878 -4.432829
  C     6.257473  9.100897 -3.704921
  N     7.892698  5.318295 -4.690400
  N     5.658405  5.911134 -5.853344
  N     4.966593  5.706291 -1.965860
  N     7.310673  8.752381 -4.441920
  N     5.260861  9.578530 -5.765602
  N     4.594387  9.958051 -1.966781
  S     7.227875  5.580252 -6.197199
  S     4.215111  5.853583 -3.423890
  S     6.646867  5.314159 -2.091110
  S     6.818816  9.027732 -6.026583
  S     3.814420 10.123625 -3.380412
  S     6.083277  9.215288 -2.037181
