16  
    
  C     5.243111  5.985471 -4.420746
  C     6.379153  5.536038 -3.750639
  C     5.452864  9.609219 -4.135770
  C     6.671337  9.146655 -3.474356
  N     7.455564  5.233560 -4.464125
  N     5.448609  6.039920 -5.726850
  N     4.588978  6.095514 -2.021762
  N     7.684047  9.069580 -4.324232
  N     5.583791  9.800146 -5.430294
  N     4.766141  9.388541 -1.708501
  S     7.021614  5.482112 -6.022394
  S     3.958691  6.656235 -3.462128
  S     6.149931  5.531104 -1.997257
  S     7.134735  9.583156 -5.811694
  S     3.971862  9.775834 -3.198195
  S     6.315483  8.790134 -1.813690
