16  
    
  C     5.648416  5.911389 -4.168720
  C     6.723547  5.085121 -3.541406
  C     5.779503  9.582981 -4.478240
  C     6.935298  8.951194 -3.869136
  N     7.713253  4.870742 -4.373291
  N     5.846573  6.235253 -5.439186
  N     5.037967  5.538192 -1.627451
  N     7.882931  8.649198 -4.732839
  N     5.792005  9.748387 -5.812322
  N     5.183849  9.327229 -1.999494
  S     7.262842  5.482264 -5.886421
  S     4.346481  6.321263 -3.024077
  S     6.563938  4.777753 -1.837719
  S     7.285833  9.107821 -6.273506
  S     4.460278  9.813604 -3.422948
  S     6.784012  8.803309 -2.111847
