16  
    
  C     5.548707  6.224703 -4.503769
  C     6.768362  5.705088 -3.882827
  C     5.371051  9.946857 -4.719154
  C     6.623252  9.578528 -4.038258
  N     7.722117  5.526401 -4.766491
  N     5.666729  6.601042 -5.784422
  N     4.987508  5.861028 -2.016897
  N     7.700197  9.490225 -4.868275
  N     5.522870 10.120323 -6.054017
  N     4.837443  9.665986 -2.204448
  S     7.241677  6.087477 -6.167884
  S     4.240960  6.417494 -3.377638
  S     6.587599  5.497832 -2.168620
  S     7.080503  9.760519 -6.360149
  S     4.013501 10.057210 -3.545294
  S     6.532964  9.543161 -2.383174
