16  
    
  C     5.583689  5.861784 -4.533229
  C     6.796645  5.488633 -3.838285
  C     5.601456  9.699258 -4.244091
  C     6.816457  9.141276 -3.701837
  N     7.852847  5.316510 -4.688063
  N     5.710079  6.016547 -5.858250
  N     4.927000  5.633028 -1.969983
  N     7.818782  9.189984 -4.600867
  N     5.632134 10.051556 -5.526069
  N     5.035905  9.192315 -1.805837
  S     7.325251  5.685479 -6.179539
  S     4.254847  6.213877 -3.442027
  S     6.484671  5.102441 -2.104477
  S     7.136275  9.703090 -6.025547
  S     4.298728  9.932454 -3.192426
  S     6.575027  8.801426 -2.010482
