16  
    
  C     5.639149  5.769078 -4.093996
  C     6.840007  5.209446 -3.577358
  C     5.850848  9.158313 -3.917130
  C     7.094835  8.742535 -3.346265
  N     7.844861  4.970949 -4.394965
  N     5.690033  5.897052 -5.427484
  N     5.207015  5.307374 -1.589013
  N     8.095440  8.756139 -4.228727
  N     5.916562  9.485095 -5.225644
  N     5.292451  9.051062 -1.377141
  S     7.201378  5.489282 -5.847893
  S     4.434630  5.981425 -2.877826
  S     6.795433  4.877112 -1.867294
  S     7.474908  9.243781 -5.711112
  S     4.466938  9.293206 -2.830885
  S     6.915504  8.705110 -1.571201
