16  
    
  C     5.261544  6.245400 -4.336971
  C     6.305891  5.556369 -3.618904
  C     5.537393  9.760432 -4.189343
  C     6.722390  9.100624 -3.571836
  N     7.253319  4.975710 -4.366541
  N     5.551405  6.374072 -5.615200
  N     4.454729  6.173463 -1.946814
  N     7.746065  8.836160 -4.385462
  N     5.736210  9.999130 -5.474041
  N     4.966506  9.444847 -1.757409
  S     6.885256  5.440667 -5.940999
  S     3.898355  6.760756 -3.396597
  S     6.000154  5.522363 -1.892363
  S     7.304330  9.468462 -5.858391
  S     4.109867  9.728443 -3.089770
  S     6.550233  8.844236 -1.889494
