16  
    
  C     5.654784  5.877875 -4.477097
  C     6.924732  5.455111 -3.868974
  C     5.592440  9.486365 -4.258272
  C     6.910503  9.251360 -3.667650
  N     7.968529  5.273983 -4.743488
  N     5.704210  6.004365 -5.800149
  N     5.089271  5.431718 -1.994101
  N     7.925104  9.206163 -4.481848
  N     5.631727  9.648804 -5.557954
  N     5.181833  9.141658 -1.716426
  S     7.244338  5.615282 -6.208212
  S     4.317942  6.042847 -3.336036
  S     6.751752  5.237440 -2.154613
  S     7.279019  9.538782 -6.008983
  S     4.258756  9.329630 -3.102419
  S     6.739511  8.710234 -2.031051
