16  
    
  C     5.578326  5.904443 -4.453825
  C     6.845043  5.510846 -3.875045
  C     5.724876  9.378932 -4.290481
  C     6.977299  9.058971 -3.619508
  N     7.903468  5.443684 -4.706810
  N     5.614305  6.088819 -5.771256
  N     5.127929  5.525749 -1.858454
  N     7.977494  9.041617 -4.487267
  N     5.755328  9.671809 -5.588643
  N     5.253786  9.178594 -1.742675
  S     7.210562  5.909253 -6.157054
  S     4.336889  6.123434 -3.209637
  S     6.722456  5.136005 -2.143150
  S     7.361851  9.401571 -6.023612
  S     4.416858  9.447142 -3.181000
  S     6.862334  8.658796 -1.889777
