16  
    
  C     5.632907  5.868109 -4.470045
  C     6.899243  5.445028 -3.889694
  C     5.639592  9.500591 -4.234838
  C     6.929041  9.219345 -3.651307
  N     7.953151  5.343817 -4.733306
  N     5.687846  6.032419 -5.803351
  N     5.114949  5.421429 -1.991638
  N     7.968812  9.213243 -4.470579
  N     5.689268  9.632878 -5.558615
  N     5.182030  9.175129 -1.746819
  S     7.223695  5.644483 -6.204180
  S     4.314422  6.055645 -3.333902
  S     6.757050  5.209900 -2.134132
  S     7.267107  9.510551 -5.997061
  S     4.278530  9.332470 -3.099104
  S     6.738362  8.692292 -2.047238
