16  
    
  C     5.297034  6.252441 -4.525736
  C     6.617679  5.934564 -4.054782
  C     5.607292  9.518112 -4.026519
  C     6.893913  9.002567 -3.474244
  N     7.558499  5.908253 -5.032269
  N     5.251867  6.434695 -5.877780
  N     4.865432  5.767908 -2.095071
  N     7.914857  8.890443 -4.360167
  N     5.678125  9.857175 -5.314089
  N     5.119315  8.983280 -1.598587
  S     6.808276  6.192482 -6.382211
  S     4.049269  6.324912 -3.412533
  S     6.501203  5.568783 -2.328532
  S     7.248077  9.582523 -5.746704
  S     4.310509  9.276680 -2.989687
  S     6.756595  8.558890 -1.798932
