16  
    
  C     5.893559  5.608177 -4.082781
  C     7.009795  5.039419 -3.387302
  C     5.636409  9.626638 -4.236587
  C     6.885377  9.076572 -3.744406
  N     8.089096  4.887339 -4.151762
  N     6.062371  5.849548 -5.377158
  N     5.077868  5.156308 -1.708766
  N     7.930639  9.141763 -4.554076
  N     5.743038 10.034990 -5.499737
  N     5.066620  8.895529 -1.868138
  S     7.678107  5.464160 -5.659682
  S     4.497646  5.828368 -3.071887
  S     6.642250  4.620203 -1.758880
  S     7.313476  9.790470 -6.008670
  S     4.351809  9.741938 -3.108683
  S     6.701217  8.437480 -2.100984
