16  
    
  C     5.341309  6.401960 -4.629131
  C     6.556773  5.927472 -4.011443
  C     5.763321  9.795722 -4.345178
  C     7.000911  9.440547 -3.730960
  N     7.573984  5.740995 -4.785559
  N     5.413367  6.397145 -5.936851
  N     4.857845  6.343935 -2.086282
  N     8.013177  9.137440 -4.553022
  N     5.799535  9.786803 -5.678219
  N     5.091965  9.624522 -1.884834
  S     6.956055  5.944230 -6.386249
  S     4.134820  6.756448 -3.503775
  S     6.434096  5.877277 -2.279059
  S     7.391389  9.510872 -6.067218
  S     4.407597  9.965481 -3.318845
  S     6.730464  9.244836 -2.029127
