16  
    
  C     5.509217  5.226935 -4.154182
  C     6.806224  5.072089 -3.546066
  C     5.424659  9.317360 -4.404468
  C     6.632313  8.800979 -3.802123
  N     7.840134  4.919513 -4.368020
  N     5.610516  5.384653 -5.452756
  N     5.021387  5.223291 -1.641772
  N     7.534719  8.410108 -4.693947
  N     5.440304  9.395508 -5.754414
  N     4.899775  9.092004 -1.897383
  S     7.152050  5.124845 -5.914021
  S     4.156026  5.151346 -3.067851
  S     6.721174  5.057765 -1.773643
  S     6.935347  8.804872 -6.150855
  S     4.121347  9.589667 -3.288783
  S     6.471265  8.587377 -2.109301
