16  
    
  C     5.107527  6.322009 -4.524681
  C     6.362754  5.926638 -3.920118
  C     5.376923  9.585428 -4.185569
  C     6.644791  9.265219 -3.621587
  N     7.414499  5.985681 -4.775774
  N     5.148164  6.535695 -5.850812
  N     4.593682  6.006985 -2.004468
  N     7.686594  9.315509 -4.465694
  N     5.399278  9.998195 -5.491039
  N     5.025268  9.226748 -1.667569
  S     6.779923  6.340435 -6.187396
  S     3.764439  6.376175 -3.427725
  S     6.217360  5.764219 -2.236541
  S     7.013720  9.651811 -5.952351
  S     4.120664  9.503583 -2.945389
  S     6.669975  8.975194 -1.970120
