16  
    
  C     5.593145  5.951999 -4.477990
  C     6.643433  5.284193 -3.793308
  C     5.493708  9.617303 -4.189258
  C     6.705152  9.072613 -3.651564
  N     7.694052  4.975745 -4.520772
  N     5.786751  6.123042 -5.767071
  N     4.826152  5.669627 -2.037862
  N     7.683341  8.944588 -4.511842
  N     5.560400  9.990316 -5.460737
  N     5.127208  9.245268 -1.680704
  S     7.296067  5.549217 -6.121543
  S     4.163294  6.127516 -3.453282
  S     6.429048  5.123011 -2.056473
  S     7.038182  9.391288 -5.987603
  S     4.251656  9.735599 -2.945971
  S     6.689440  8.766119 -1.966813
