16  
    
  C     5.396281  5.935466 -4.351406
  C     6.650524  5.601880 -3.812242
  C     5.629133  9.380403 -4.457386
  C     6.845001  9.051808 -3.762075
  N     7.630130  5.454359 -4.674505
  N     5.442695  6.164902 -5.648064
  N     4.972129  5.901571 -1.807379
  N     7.855140  8.932577 -4.622077
  N     5.626361  9.471961 -5.774855
  N     4.880944  9.079188 -1.998546
  S     6.954567  5.883226 -6.170527
  S     4.170063  6.274953 -3.206521
  S     6.543717  5.400678 -2.091890
  S     7.222244  9.259763 -6.167601
  S     4.138675  9.227716 -3.483357
  S     6.573578  8.788012 -2.063135
