16  
    
  C     5.359497  6.408462 -4.623634
  C     6.560545  5.926578 -4.006695
  C     5.771446  9.797584 -4.352602
  C     7.010610  9.448500 -3.715044
  N     7.585634  5.735297 -4.771903
  N     5.420258  6.392892 -5.933929
  N     4.866431  6.336813 -2.096379
  N     7.995721  9.143195 -4.556034
  N     5.808773  9.778154 -5.677360
  N     5.072757  9.639684 -1.887562
  S     6.954432  5.941239 -6.379902
  S     4.141510  6.758179 -3.504279
  S     6.438941  5.873521 -2.269569
  S     7.387803  9.512886 -6.072917
  S     4.406704  9.965814 -3.326064
  S     6.729974  9.244150 -2.019652
