16  
    
  C     5.600967  5.791045 -4.288031
  C     6.668558  5.052922 -3.680171
  C     5.449036  9.217263 -4.177002
  C     6.624785  8.671282 -3.529541
  N     7.714878  4.760963 -4.458831
  N     5.809778  5.958952 -5.597496
  N     5.061987  5.562601 -1.761700
  N     7.629692  8.547159 -4.379951
  N     5.562382  9.349870 -5.503266
  N     4.795293  8.966374 -1.684555
  S     7.309725  5.250871 -5.926301
  S     4.321086  6.118342 -3.181386
  S     6.539901  4.927484 -1.919693
  S     7.096160  8.907971 -5.881417
  S     4.093870  9.520937 -3.133114
  S     6.408563  8.555642 -1.786716
