16  
    
  C     5.714253  5.730088 -4.231004
  C     6.965505  5.255958 -3.715363
  C     5.796693  9.665802 -4.399158
  C     7.020273  9.152968 -3.804614
  N     7.950450  5.250039 -4.606815
  N     5.733864  5.940662 -5.542094
  N     5.282788  5.173221 -1.789026
  N     8.032600  9.090218 -4.646053
  N     5.934894 10.094753 -5.664285
  N     5.262135  9.287847 -1.987101
  S     7.299813  5.823956 -6.002406
  S     4.437247  5.643183 -3.096233
  S     6.884314  4.820596 -2.046865
  S     7.460502  9.690758 -6.143669
  S     4.410793  9.803744 -3.311284
  S     6.824045  8.750189 -2.148708
