16  
    
  C     5.555925  5.621435 -4.538889
  C     6.844316  5.394051 -3.860115
  C     5.370383  9.662831 -4.227960
  C     6.603190  9.175172 -3.647677
  N     7.838864  5.603932 -4.736068
  N     5.605120  5.957556 -5.845361
  N     5.101955  5.429899 -2.014272
  N     7.617035  9.082651 -4.462527
  N     5.482246  9.948644 -5.534975
  N     4.981812  9.249564 -1.682877
  S     7.204084  5.859673 -6.215070
  S     4.239501  5.466896 -3.389927
  S     6.766006  5.126346 -2.146668
  S     7.125374  9.569466 -5.925545
  S     4.092607  9.649679 -3.079547
  S     6.614012  9.023888 -1.908282
