16  
    
  C     5.239151  6.146828 -4.387796
  C     6.455339  5.594458 -3.742331
  C     5.412391  9.849018 -4.350761
  C     6.663947  9.381827 -3.780169
  N     7.481028  5.322796 -4.551946
  N     5.431114  6.320282 -5.712226
  N     4.734350  5.946409 -1.804989
  N     7.693783  9.173271 -4.630916
  N     5.495855  9.902965 -5.688639
  N     4.960386  9.360219 -1.867466
  S     6.911247  5.772340 -6.086010
  S     3.916685  6.474198 -3.245747
  S     6.259141  5.248923 -2.050055
  S     7.039136  9.524777 -6.133265
  S     4.220029 10.018198 -3.186443
  S     6.598597  9.031691 -2.062189
