16  
    
  C     5.317514  5.871909 -4.407885
  C     6.608719  5.467838 -3.870662
  C     5.401716  9.519133 -4.545296
  C     6.554000  8.999660 -3.846964
  N     7.565115  5.267372 -4.752474
  N     5.394924  6.038548 -5.711298
  N     4.970757  5.724616 -1.893740
  N     7.532040  8.671005 -4.681273
  N     5.506614  9.681555 -5.885941
  N     4.786672  9.622549 -2.024514
  S     6.891683  5.508709 -6.243862
  S     4.039448  6.065084 -3.283288
  S     6.550310  5.256806 -2.138548
  S     7.048444  9.132964 -6.249735
  S     4.067349  9.990355 -3.442429
  S     6.356808  9.191290 -2.159198
