16  
    
  C     5.532968  6.236830 -4.627948
  C     6.511960  5.513163 -3.864231
  C     5.781309  9.509502 -4.395201
  C     6.972556  9.115362 -3.725812
  N     7.625602  5.262080 -4.496920
  N     5.930459  6.559043 -5.847851
  N     4.607356  5.883253 -2.164633
  N     8.013033  8.982498 -4.581815
  N     5.951555  9.709414 -5.703860
  N     5.151286  9.253370 -1.933570
  S     7.461914  5.942198 -5.948563
  S     4.171043  6.494488 -3.625003
  S     6.023873  5.029713 -2.270355
  S     7.521889  9.342529 -6.058407
  S     4.397284  9.556510 -3.339569
  S     6.746385  8.752203 -2.006975
