16  
    
  C     5.142575  6.271770 -4.488547
  C     6.411825  6.030068 -3.847033
  C     5.458804  9.703995 -4.229849
  C     6.720298  9.326596 -3.677166
  N     7.426439  5.942797 -4.710322
  N     5.276363  6.534094 -5.810242
  N     4.615529  5.949399 -2.039545
  N     7.683392  9.249954 -4.612802
  N     5.442415  9.891766 -5.570909
  N     5.078964  9.277940 -1.683340
  S     6.866008  6.363988 -6.265691
  S     3.797669  6.368221 -3.397124
  S     6.271157  5.878972 -2.106727
  S     6.999234  9.741455 -6.030097
  S     4.148415  9.585045 -3.100709
  S     6.705843  8.943571 -1.932415
