16  
    
  C     5.624109  5.634220 -4.416355
  C     6.772463  5.129078 -3.762089
  C     5.452639  9.953771 -4.505693
  C     6.607217  9.386695 -3.897798
  N     7.839388  4.945441 -4.554308
  N     5.755564  5.921246 -5.719069
  N     5.005397  5.521793 -1.937066
  N     7.551482  9.060026 -4.760254
  N     5.509123 10.139767 -5.832872
  N     4.938228  9.399585 -1.962203
  S     7.285449  5.408175 -6.042511
  S     4.242001  5.831759 -3.353972
  S     6.575613  4.985431 -1.968786
  S     6.943991  9.522089 -6.253681
  S     4.202477 10.051877 -3.307487
  S     6.525827  9.030393 -2.204737
