16  
    
  C     5.102348  6.119795 -4.302422
  C     6.358799  5.775219 -3.575046
  C     5.648633  9.578535 -4.075558
  C     6.820201  8.999245 -3.464849
  N     7.428319  5.525397 -4.361108
  N     5.291620  6.111298 -5.624005
  N     4.471824  5.825334 -1.828504
  N     7.738358  8.715290 -4.393953
  N     5.626093  9.654232 -5.421944
  N     5.194852  9.515725 -1.442576
  S     6.894900  5.698421 -5.942987
  S     3.776435  6.477728 -3.253841
  S     6.102417  5.594721 -1.861836
  S     7.126085  9.008015 -5.872083
  S     4.379111  9.959810 -2.862884
  S     6.704191  8.831497 -1.710602
