16  
    
  C     5.537192  5.179225 -4.295908
  C     6.854641  5.158715 -3.726865
  C     5.541146  9.304624 -4.517007
  C     6.717610  8.955742 -3.741408
  N     7.818751  5.088702 -4.632053
  N     5.467683  5.167294 -5.642564
  N     5.294644  5.218853 -1.652081
  N     7.799347  8.752030 -4.492784
  N     5.725173  9.390814 -5.819621
  N     4.751564  9.146862 -2.074094
  S     7.109556  5.038015 -6.108732
  S     4.328864  5.383004 -3.052814
  S     6.886474  4.978605 -1.985979
  S     7.305206  8.957274 -6.130631
  S     4.135785  9.623557 -3.556407
  S     6.320601  8.650973 -2.039808
