16  
    
  C     5.520437  5.884755 -4.357685
  C     6.764626  5.374423 -3.861276
  C     5.559738  9.903393 -4.652404
  C     6.643694  9.219550 -4.048397
  N     7.667202  5.174281 -4.773677
  N     5.506356  6.105074 -5.683118
  N     5.133382  5.561691 -1.888083
  N     7.512121  8.831635 -4.992242
  N     5.527784 10.049895 -5.993342
  N     5.083635  9.845259 -2.046918
  S     6.995473  5.693109 -6.272885
  S     4.288705  6.123781 -3.180161
  S     6.706742  5.069853 -2.191957
  S     6.938483  9.344902 -6.468217
  S     4.332877 10.328920 -3.459066
  S     6.578434  9.040508 -2.314173
