16  
    
  C     5.721981  5.829832 -4.316372
  C     6.871840  5.198807 -3.760084
  C     5.552392  9.381411 -4.342791
  C     6.674656  8.742364 -3.673298
  N     7.836626  4.930359 -4.609277
  N     5.844018  6.055610 -5.618585
  N     5.202412  5.622836 -1.832083
  N     7.713651  8.449314 -4.441717
  N     5.800542  9.723910 -5.577891
  N     4.867914  9.238417 -1.898219
  S     7.311559  5.419088 -6.115129
  S     4.402882  6.088655 -3.222919
  S     6.736832  5.111234 -2.037524
  S     7.282515  9.088255 -5.979567
  S     4.242181  9.839164 -3.325023
  S     6.451944  8.685625 -1.961213
