16  
    
  C     5.784432  5.818900 -3.887306
  C     6.923051  5.034077 -3.476572
  C     5.595105  9.613436 -4.100497
  C     6.813194  9.003567 -3.646604
  N     7.842251  4.875379 -4.427123
  N     5.954437  6.408888 -5.060446
  N     5.150188  4.982327 -1.518352
  N     7.796696  8.943091 -4.545279
  N     5.749519 10.129910 -5.340533
  N     5.177703  8.897114 -1.643989
  S     7.363239  5.884092 -5.670516
  S     4.434436  5.781231 -2.845955
  S     6.728591  4.577184 -1.780582
  S     7.274044  9.685182 -5.875801
  S     4.296708  9.631141 -2.890247
  S     6.767270  8.504934 -1.964965
