16  
    
  C     5.717614  5.649525 -4.222277
  C     6.976347  5.237648 -3.682789
  C     5.770643  9.758432 -4.373099
  C     7.001751  9.197257 -3.855336
  N     7.945160  5.257953 -4.584036
  N     5.771105  5.927003 -5.514753
  N     5.290789  5.193892 -1.769220
  N     8.036183  9.022542 -4.713540
  N     5.918856 10.086650 -5.626396
  N     5.198759  9.209347 -1.935390
  S     7.332698  5.818942 -6.015046
  S     4.366582  5.665533 -3.092517
  S     6.896856  4.892485 -1.999072
  S     7.449574  9.592984 -6.127058
  S     4.397024  9.733638 -3.304340
  S     6.816534  8.771601 -2.147324
