16  
    
  C     5.547994  5.605592 -4.314143
  C     6.679243  5.091152 -3.613946
  C     5.513622  9.246934 -4.274001
  C     6.723033  8.771783 -3.643837
  N     7.794336  4.957980 -4.326408
  N     5.742589  5.798215 -5.611013
  N     4.987695  5.645947 -1.760738
  N     7.795578  8.644902 -4.460623
  N     5.655123  9.421938 -5.578930
  N     4.932223  9.099204 -1.770405
  S     7.274974  5.335047 -5.875828
  S     4.249735  6.051141 -3.208714
  S     6.524765  4.998577 -1.966718
  S     7.233390  9.157006 -5.961802
  S     4.195192  9.577992 -3.189450
  S     6.542258  8.562673 -1.922209
