16  
    
  C     5.620744  5.660055 -4.372852
  C     6.802273  5.227903 -3.768926
  C     5.480709  9.875124 -4.386852
  C     6.688387  9.307795 -3.845723
  N     7.836220  5.035321 -4.569662
  N     5.729767  5.784977 -5.676363
  N     5.029590  5.405895 -1.885755
  N     7.562310  9.066262 -4.830449
  N     5.382173 10.007804 -5.698101
  N     4.953743  9.611414 -1.924909
  S     7.324273  5.419695 -6.147303
  S     4.305607  5.878312 -3.312190
  S     6.687191  5.086851 -2.041281
  S     6.867078  9.474646 -6.268666
  S     4.120404 10.107222 -3.284923
  S     6.519057  9.021839 -2.134692
