16  
    
  C     5.644479  5.871590 -4.398919
  C     6.761089  5.332984 -3.741345
  C     5.669677  9.578999 -4.243912
  C     6.810889  8.995334 -3.595775
  N     7.738663  5.019012 -4.572765
  N     5.747403  5.931084 -5.707172
  N     5.095037  5.623261 -1.895819
  N     7.808214  8.639913 -4.408036
  N     5.798714  9.656776 -5.570401
  N     4.984210  9.401288 -1.750295
  S     7.284304  5.401907 -6.123748
  S     4.350882  6.173730 -3.308717
  S     6.599500  4.994777 -2.060103
  S     7.353684  9.036333 -5.959796
  S     4.336511  9.859349 -3.223300
  S     6.502137  8.659272 -1.884452
