16  
    
  C     5.706346  5.831699 -4.350418
  C     6.874292  5.166044 -3.881097
  C     5.760309  9.234335 -4.056864
  C     7.028715  8.790952 -3.550663
  N     7.879946  5.209355 -4.778970
  N     5.766837  6.346502 -5.592334
  N     5.362625  5.248345 -1.848364
  N     8.000831  8.798148 -4.488692
  N     5.744037  9.431384 -5.361953
  N     5.366566  8.808849 -1.523030
  S     7.260211  5.972637 -6.088081
  S     4.488515  5.890426 -3.119929
  S     6.927052  4.781588 -2.202603
  S     7.227702  9.182885 -5.930373
  S     4.536418  9.274224 -2.885413
  S     6.943481  8.288547 -1.818786
