16  
    
  C     5.398313  6.043602 -4.212781
  C     6.536930  5.474649 -3.671392
  C     5.508222  9.612159 -4.283087
  C     6.656377  9.084944 -3.574580
  N     7.521541  5.265169 -4.526656
  N     5.418596  6.155137 -5.531213
  N     4.888057  5.679391 -1.759790
  N     7.719285  8.925034 -4.346607
  N     5.746938  9.925681 -5.576721
  N     4.807515  9.393892 -1.795837
  S     7.000614  5.661470 -6.034324
  S     4.101693  6.280549 -3.123594
  S     6.454917  5.184029 -1.932365
  S     7.309157  9.403594 -5.831099
  S     4.163184  9.752432 -3.278490
  S     6.392910  8.733417 -1.896491
