16  
    
  C     5.517438  5.500943 -4.300973
  C     6.782712  5.431400 -3.590100
  C     5.296178 10.070518 -4.591788
  C     6.349712  9.265221 -3.954552
  N     7.821880  5.287869 -4.353964
  N     5.603008  5.549450 -5.629129
  N     4.966242  5.496693 -1.772751
  N     7.318259  8.999852 -4.801952
  N     5.476450 10.347657 -5.868849
  N     4.557589  9.683697 -2.160205
  S     7.182576  5.345345 -5.996926
  S     4.189918  5.602790 -3.182962
  S     6.613755  5.375963 -1.876003
  S     6.922719  9.546822 -6.311167
  S     4.022238 10.502924 -3.445407
  S     6.169767  9.150639 -2.305300
