16  
    
  C     5.775979  5.587713 -4.294826
  C     6.959817  5.061167 -3.669271
  C     5.577465  9.527272 -4.334211
  C     6.686404  8.903789 -3.681066
  N     8.034279  5.059428 -4.421887
  N     6.032301  5.948602 -5.524742
  N     5.149620  5.260205 -1.895731
  N     7.745282  8.790064 -4.454947
  N     5.741568  9.800186 -5.624207
  N     4.790019  8.577668 -2.032352
  S     7.591597  5.585242 -5.952572
  S     4.419403  5.807211 -3.296371
  S     6.632040  4.657441 -2.024973
  S     7.308581  9.387330 -5.946601
  S     4.192463  9.598813 -3.265600
  S     6.423703  8.295457 -2.111014
