16  
    
  C     5.727562  5.843602 -4.375976
  C     7.000889  5.437414 -3.888500
  C     5.776681  9.376921 -4.020308
  C     7.014795  8.828363 -3.541297
  N     7.965605  5.440299 -4.831943
  N     5.771912  6.237373 -5.659190
  N     5.264391  5.183563 -2.038821
  N     7.876342  8.642216 -4.515120
  N     5.752721  9.737699 -5.307991
  N     5.477370  8.851335 -1.487626
  S     7.262467  5.848801 -6.235636
  S     4.383224  5.794614 -3.310457
  S     6.878204  4.849786 -2.185971
  S     7.219179  9.304924 -5.896892
  S     4.583987  9.425176 -2.752714
  S     7.013341  8.365732 -1.840809
