16  
    
  C     5.141225  5.905882 -4.305296
  C     6.315938  5.424892 -3.685750
  C     5.443985  9.490281 -4.080311
  C     6.633299  8.874451 -3.506695
  N     7.308218  5.193798 -4.523693
  N     5.247487  6.137748 -5.598604
  N     4.636903  5.794401 -1.762028
  N     7.509198  8.484680 -4.395732
  N     5.428339  9.600925 -5.386804
  N     5.015258  9.304534 -1.509022
  S     6.770593  5.535723 -6.025594
  S     3.865477  6.090731 -3.195502
  S     6.249268  5.393978 -1.971676
  S     6.909025  8.940596 -5.831330
  S     4.201512  9.808871 -2.918784
  S     6.587758  8.875262 -1.733738
