16  
    
  C     5.677247  5.578382 -4.288625
  C     6.926930  5.227746 -3.703295
  C     5.799046  9.799329 -4.397584
  C     6.952284  9.180233 -3.787171
  N     8.012089  5.278991 -4.491039
  N     5.737401  6.025663 -5.551148
  N     5.207141  5.285626 -1.705820
  N     7.898087  8.949698 -4.631291
  N     5.899982 10.050135 -5.685764
  N     5.147328  9.047453 -1.912698
  S     7.345200  5.744543 -5.994134
  S     4.365735  5.672598 -3.083581
  S     6.886675  4.993562 -1.927297
  S     7.393354  9.494477 -6.150884
  S     4.414512  9.640251 -3.287931
  S     6.775209  8.809448 -2.116944
