16  
    
  C     5.392585  6.076478 -4.138288
  C     6.664035  5.618317 -3.582182
  C     5.685126  9.599767 -4.468843
  C     6.809315  9.081617 -3.699052
  N     7.621445  5.401558 -4.464724
  N     5.465212  6.190226 -5.444404
  N     5.017208  5.666999 -1.666648
  N     7.903639  8.983767 -4.440800
  N     5.906948  9.840895 -5.751573
  N     4.856129  9.309643 -2.061527
  S     7.015933  5.779301 -5.973561
  S     4.217329  6.318292 -2.969368
  S     6.578345  5.234601 -1.917749
  S     7.530665  9.452913 -5.976162
  S     4.232684  9.951694 -3.461466
  S     6.452008  8.938629 -2.059531
