16  
    
  C     5.499618  5.266064 -4.107201
  C     6.893411  5.244156 -3.594891
  C     5.500175  9.370145 -4.666297
  C     6.673125  8.891836 -3.926846
  N     7.852558  5.342476 -4.527093
  N     5.401306  5.247365 -5.437415
  N     5.365099  5.096104 -1.520337
  N     7.725655  8.584038 -4.649500
  N     5.660552  9.342580 -5.986634
  N     4.727152  9.166493 -2.252337
  S     6.977832  5.302670 -5.932962
  S     4.316882  5.295807 -2.790632
  S     6.992468  5.031494 -1.874261
  S     7.223013  8.924336 -6.270896
  S     4.249660  9.939205 -3.635764
  S     6.410001  8.745084 -2.176495
