16  
    
  C     5.523218  5.987009 -4.482380
  C     6.587098  5.437381 -3.675299
  C     5.787501  9.356818 -4.302928
  C     7.050098  8.998093 -3.647613
  N     7.696117  5.157178 -4.353577
  N     5.794440  6.149935 -5.782912
  N     4.656690  5.596634 -2.075726
  N     8.106977  8.968630 -4.441077
  N     5.858243  9.631171 -5.595223
  N     5.161594  9.011807 -1.835390
  S     7.410552  5.664480 -5.927272
  S     4.135664  6.103077 -3.551712
  S     6.236535  5.259440 -2.006966
  S     7.460377  9.444962 -6.007883
  S     4.434847  9.433335 -3.270404
  S     6.845800  8.827043 -1.865286
