16  
    
  C     5.636735  5.672715 -4.371224
  C     6.807797  5.237629 -3.782106
  C     5.469129  9.841586 -4.385301
  C     6.683363  9.303832 -3.843004
  N     7.840367  5.055148 -4.578428
  N     5.724063  5.761849 -5.678408
  N     5.033536  5.404420 -1.880803
  N     7.571074  9.061787 -4.831923
  N     5.396595  9.988725 -5.695295
  N     4.960426  9.635653 -1.913547
  S     7.326482  5.419477 -6.151420
  S     4.308766  5.883787 -3.299865
  S     6.699854  5.095883 -2.053824
  S     6.853554  9.470933 -6.269804
  S     4.105249 10.115047 -3.271731
  S     6.512615  9.022607 -2.129346
