16  
    
  C     5.223559  6.161587 -4.307827
  C     6.376380  5.574288 -3.698121
  C     5.423773  9.755615 -4.308011
  C     6.666957  9.270674 -3.752558
  N     7.358761  5.364928 -4.547410
  N     5.304979  6.302555 -5.622730
  N     4.672533  5.977213 -1.817451
  N     7.708117  9.105736 -4.599934
  N     5.529956  9.979109 -5.642820
  N     5.051378  9.415483 -1.765660
  S     6.928495  5.819222 -6.053953
  S     3.943084  6.486499 -3.174704
  S     6.126260  5.296236 -2.030100
  S     7.068026  9.443384 -6.067081
  S     4.165090 10.045927 -3.095866
  S     6.607275  9.046911 -2.079691
