16  
    
  C     5.536429  5.838994 -4.571434
  C     6.737570  5.555431 -3.856516
  C     5.265804  9.757408 -4.497073
  C     6.470234  9.382378 -3.781071
  N     7.834569  5.539358 -4.621776
  N     5.617401  5.992206 -5.918628
  N     4.867004  5.800711 -2.018194
  N     7.461333  8.855393 -4.506771
  N     5.404281  9.631946 -5.808474
  N     4.746075  9.639815 -1.887050
  S     7.245814  5.721804 -6.173776
  S     4.125794  5.946335 -3.497038
  S     6.533170  5.435634 -2.094066
  S     6.916164  8.877864 -6.099461
  S     3.943385  9.974981 -3.330377
  S     6.346349  9.296362 -1.983844
