16  
    
  C     5.663034  5.775031 -4.258756
  C     6.911290  5.208868 -3.803820
  C     5.787012  9.617554 -4.508424
  C     6.997456  9.191349 -3.839231
  N     7.902506  5.264971 -4.685153
  N     5.778913  6.154094 -5.526774
  N     5.325188  5.239714 -1.804707
  N     8.045275  9.247113 -4.614005
  N     5.904290 10.010031 -5.776723
  N     5.150793  9.166013 -1.986252
  S     7.278911  5.753199 -6.133158
  S     4.373811  5.663831 -3.059959
  S     6.881367  4.676366 -2.126800
  S     7.539775  9.901489 -6.091687
  S     4.500503  9.908875 -3.303822
  S     6.734441  8.763744 -2.196194
