16  
    
  C     5.418362  5.954417 -4.575357
  C     6.561634  5.520919 -3.832756
  C     5.325768  9.499988 -4.416830
  C     6.398029  8.860636 -3.703801
  N     7.548757  5.056683 -4.588609
  N     5.533215  5.993054 -5.909364
  N     4.647033  5.689530 -2.021500
  N     7.439558  8.568310 -4.486972
  N     5.549459  9.669341 -5.735604
  N     4.768065  9.478091 -1.965283
  S     7.065183  5.386711 -6.149327
  S     3.993949  6.157289 -3.509139
  S     6.266228  5.208669 -2.085242
  S     7.042995  9.062604 -6.012072
  S     4.000221  9.881315 -3.400840
  S     6.310629  8.877601 -1.972293
