16  
    
  C     5.677274  5.789405 -4.106642
  C     6.771129  5.183399 -3.404908
  C     5.519421  9.401424 -3.991149
  C     6.656970  8.799142 -3.331335
  N     7.793084  4.860041 -4.178764
  N     5.912586  6.074179 -5.386065
  N     4.908475  5.375255 -1.601947
  N     7.706179  8.609528 -4.135230
  N     5.702746  9.748530 -5.266345
  N     4.872682  9.206048 -1.494474
  S     7.528007  5.535667 -5.650825
  S     4.214601  5.912056 -3.073979
  S     6.587677  5.080283 -1.653967
  S     7.219605  9.203407 -5.680293
  S     4.188522  9.618659 -2.971422
  S     6.403694  8.580716 -1.617305
