16  
    
  C     5.490077  5.326479 -4.225269
  C     6.751264  5.056098 -3.595101
  C     5.679138  9.277095 -4.164735
  C     6.854364  8.684417 -3.557857
  N     7.788952  4.987515 -4.433067
  N     5.550279  5.360576 -5.549473
  N     4.982434  5.302383 -1.704708
  N     7.892782  8.498723 -4.376998
  N     5.803447  9.525188 -5.457128
  N     5.259705  9.245047 -1.562087
  S     7.204180  5.269073 -5.967439
  S     4.112806  5.459014 -3.130078
  S     6.608526  4.951496 -1.873158
  S     7.397806  8.989806 -5.885029
  S     4.367216  9.480478 -2.983252
  S     6.736092  8.553354 -1.846217
