16  
    
  C     5.543435  6.165063 -4.367158
  C     6.749230  5.505110 -3.766703
  C     5.595029  9.637063 -4.283862
  C     6.819297  9.137026 -3.688297
  N     7.688255  5.293744 -4.657146
  N     5.742691  6.517373 -5.627439
  N     5.046904  5.759797 -1.877383
  N     7.751895  8.959505 -4.591147
  N     5.599847  9.806104 -5.619389
  N     5.117509  9.311022 -1.667395
  S     7.242817  5.822632 -6.161191
  S     4.282644  6.338299 -3.237724
  S     6.648628  5.188262 -2.063946
  S     7.155497  9.401922 -6.066113
  S     4.320228  9.646508 -3.134061
  S     6.713932  8.909112 -1.889862
