16  
    
  C     5.522443  5.297148 -4.108358
  C     6.847342  5.250651 -3.598341
  C     5.519603  9.361317 -4.675332
  C     6.679048  8.919592 -3.921696
  N     7.841457  5.305709 -4.486206
  N     5.420990  5.221337 -5.427780
  N     5.352461  5.063837 -1.509428
  N     7.690346  8.575294 -4.691642
  N     5.650445  9.375265 -6.003479
  N     4.788136  9.183383 -2.241262
  S     6.991228  5.289725 -5.936080
  S     4.310997  5.286238 -2.815552
  S     6.985832  5.009766 -1.843512
  S     7.228203  8.900548 -6.263247
  S     4.220406  9.929596 -3.642304
  S     6.418540  8.772823 -2.207848
