16  
    
  C     5.237287  6.337965 -4.342833
  C     6.437299  5.762266 -3.707672
  C     5.567813  9.632037 -4.431840
  C     6.787704  9.264516 -3.698578
  N     7.433350  5.452365 -4.542509
  N     5.387165  6.501310 -5.663566
  N     4.673918  6.050251 -1.906344
  N     7.801626  9.187418 -4.518312
  N     5.643303  9.675612 -5.747736
  N     4.943792  9.514485 -1.930173
  S     6.900316  5.831410 -6.089201
  S     4.024127  6.832607 -3.250491
  S     6.238823  5.509677 -1.980006
  S     7.281672  9.408955 -6.031005
  S     4.180831  9.779978 -3.356360
  S     6.499253  8.899303 -2.028535
