16  
    
  C     5.350218  5.987979 -4.369534
  C     6.644166  5.551114 -3.779541
  C     5.531655  9.273146 -4.394328
  C     6.818630  8.941241 -3.772200
  N     7.643481  5.400555 -4.661193
  N     5.367491  6.215072 -5.689133
  N     4.982466  5.848605 -1.854333
  N     7.873829  8.904040 -4.609737
  N     5.679090  9.498689 -5.695050
  N     4.910862  9.096420 -1.960217
  S     6.922287  5.896297 -6.128150
  S     4.106812  6.288620 -3.231164
  S     6.564571  5.367822 -2.079873
  S     7.200959  9.219615 -6.175906
  S     4.102100  9.199811 -3.490412
  S     6.549330  8.788794 -2.016274
