16  
    
  C     5.741757  5.339244 -4.267690
  C     6.962647  4.871434 -3.590435
  C     5.655348  9.487236 -4.461289
  C     6.757086  8.885661 -3.786955
  N     7.947369  4.739200 -4.468039
  N     5.852975  5.546604 -5.595895
  N     5.197497  5.335739 -1.755979
  N     7.857830  8.724056 -4.535197
  N     5.913410  9.748437 -5.737315
  N     4.853712  9.105461 -2.017424
  S     7.410190  5.066381 -5.991972
  S     4.362999  5.519938 -3.208658
  S     6.794124  4.934499 -1.823295
  S     7.487955  9.327356 -6.008920
  S     4.260315  9.673287 -3.480989
  S     6.449494  8.727037 -2.037399
