16  
    
  C     5.582759  5.976642 -4.264643
  C     6.703899  5.303666 -3.630504
  C     5.932445  9.153202 -3.985846
  C     7.206799  8.773719 -3.405907
  N     7.696701  5.020844 -4.448136
  N     5.775918  6.199854 -5.545363
  N     4.901479  5.670789 -1.800107
  N     8.253020  8.718610 -4.288814
  N     5.995178  9.392386 -5.293727
  N     5.448570  8.993458 -1.546212
  S     7.191874  5.496333 -5.955182
  S     4.206892  6.195300 -3.206220
  S     6.490363  5.202776 -1.964468
  S     7.516659  9.191333 -5.759896
  S     4.574494  9.112367 -2.914337
  S     7.050519  8.438517 -1.682613
