16  
    
  C     5.492703  6.401336 -4.513573
  C     6.680543  5.973267 -3.889936
  C     5.676845  9.765878 -4.459825
  C     6.923540  9.400291 -3.727165
  N     7.663358  5.585119 -4.741582
  N     5.559186  6.440804 -5.835796
  N     4.885938  6.245148 -2.065232
  N     7.985724  9.325776 -4.506066
  N     5.805747  9.912876 -5.767657
  N     5.122573  9.772484 -1.940022
  S     7.076662  5.874252 -6.273851
  S     4.155479  6.777821 -3.505108
  S     6.525077  5.838575 -2.157157
  S     7.415686  9.436177 -6.084468
  S     4.314134  9.958385 -3.368338
  S     6.697072  9.276487 -1.939265
