16  
    
  C     5.691549  5.764882 -4.420273
  C     6.978272  5.283860 -3.960412
  C     5.644372  9.096801 -4.083572
  C     6.952028  8.639190 -3.653224
  N     7.931694  5.338949 -4.877377
  N     5.758273  6.241435 -5.668232
  N     5.335513  5.180742 -1.920875
  N     7.934911  8.608304 -4.526527
  N     5.741287  9.504740 -5.354706
  N     5.501042  8.821770 -1.565257
  S     7.345314  6.076407 -6.185369
  S     4.439673  5.845013 -3.131885
  S     6.891752  4.799747 -2.307493
  S     7.238873  9.272040 -5.883747
  S     4.516047  9.387587 -2.776276
  S     7.026090  8.358623 -1.947589
