16  
    
  C     5.568324  5.967790 -4.319044
  C     6.814957  5.490750 -3.785070
  C     5.806369  9.375738 -4.229531
  C     7.056542  8.873965 -3.683127
  N     7.833684  5.507555 -4.654908
  N     5.675693  6.345010 -5.587967
  N     5.195418  5.716415 -1.845350
  N     8.007935  8.739301 -4.557796
  N     5.830349  9.645841 -5.515184
  N     5.339111  9.101720 -1.691118
  S     7.246162  6.054217 -6.102625
  S     4.331809  6.172023 -3.160933
  S     6.752263  5.139680 -2.099973
  S     7.459442  9.307808 -5.997110
  S     4.485293  9.580384 -3.075724
  S     6.910465  8.803738 -1.997632
