16  
    
  C     5.145488  5.281633 -4.138695
  C     6.331557  4.793081 -3.445061
  C     5.394960  9.306778 -4.290087
  C     6.630662  8.913239 -3.670824
  N     7.325478  4.666993 -4.314412
  N     5.267454  5.494283 -5.457777
  N     4.536789  5.084543 -1.606657
  N     7.645076  8.739382 -4.514707
  N     5.507695  9.467950 -5.633623
  N     4.860490  9.432418 -1.784591
  S     6.825337  5.015439 -5.862242
  S     3.772883  5.594155 -3.030950
  S     6.213777  4.693234 -1.708069
  S     7.030750  9.191681 -6.034874
  S     4.098493  9.618672 -3.233899
  S     6.504535  9.036897 -1.858717
