16  
    
  C     5.736729  5.893894 -4.206246
  C     6.981086  5.281937 -3.787259
  C     5.791369  9.217289 -4.037795
  C     7.105745  8.891960 -3.495455
  N     7.849872  5.070105 -4.784411
  N     5.734869  6.293700 -5.463598
  N     5.296030  5.247309 -1.790853
  N     8.056898  8.848315 -4.419705
  N     5.754029  9.477200 -5.340902
  N     5.351308  8.783056 -1.524868
  S     7.247165  5.870601 -6.110219
  S     4.527971  5.899249 -3.073665
  S     6.833479  4.800950 -2.112850
  S     7.316878  9.134933 -5.930048
  S     4.454960  9.238511 -2.832026
  S     6.892348  8.344875 -1.816668
