16  
    
  C     5.399151  5.724783 -4.535871
  C     6.530724  5.274653 -3.776703
  C     5.296071  9.451858 -4.358913
  C     6.522296  9.113783 -3.723278
  N     7.618892  5.104032 -4.497660
  N     5.536003  5.810907 -5.864052
  N     4.707345  5.780450 -2.047910
  N     7.558380  8.871127 -4.545134
  N     5.374770  9.507501 -5.674928
  N     4.786439  9.384697 -1.870780
  S     7.206165  5.551731 -6.062826
  S     4.030444  6.152063 -3.489954
  S     6.269427  5.256197 -2.002700
  S     6.837855  9.061490 -6.074034
  S     4.003962  9.692870 -3.306661
  S     6.376469  8.889788 -2.003419
