16  
    
  C     5.451890  5.726924 -4.421648
  C     6.748055  5.257646 -3.807843
  C     5.470983  9.696151 -4.610471
  C     6.672114  9.384771 -3.907484
  N     7.765489  5.120603 -4.641465
  N     5.540387  5.909990 -5.725609
  N     5.092220  5.679345 -1.870889
  N     7.704561  9.151368 -4.717368
  N     5.580267  9.694703 -5.967404
  N     4.781081  9.344212 -2.085305
  S     7.111300  5.509217 -6.166541
  S     4.201827  6.073359 -3.250758
  S     6.704170  5.297716 -2.038158
  S     7.121021  9.254240 -6.297016
  S     4.058042  9.686263 -3.530838
  S     6.433782  9.087152 -2.245126
