16  
    
  C     5.587012  5.954976 -4.430991
  C     6.832771  5.610701 -3.818118
  C     5.822046  9.406086 -4.345972
  C     7.038310  9.133643 -3.681118
  N     7.878875  5.590168 -4.617487
  N     5.623253  6.134220 -5.778976
  N     4.961940  5.508004 -1.995579
  N     8.059223  9.110354 -4.519982
  N     5.876827  9.588540 -5.657013
  N     5.309128  9.363187 -1.757202
  S     7.201433  5.894753 -6.217987
  S     4.235560  6.000547 -3.359300
  S     6.614280  5.268425 -2.140169
  S     7.471668  9.290547 -6.048103
  S     4.506239  9.530434 -3.166550
  S     6.901464  8.903436 -1.958780
