16  
    
  C     5.722819  5.661238 -4.284451
  C     6.957902  5.183017 -3.677677
  C     5.580701  9.393426 -4.350255
  C     6.697483  8.709297 -3.737794
  N     7.996121  5.044670 -4.496004
  N     5.851905  5.888764 -5.576857
  N     5.158208  5.202068 -1.791604
  N     7.703863  8.606074 -4.596378
  N     5.738731  9.824496 -5.605956
  N     4.709220  8.684451 -2.122867
  S     7.428612  5.589298 -5.972901
  S     4.393017  5.719579 -3.168089
  S     6.783825  4.752659 -1.970244
  S     7.292131  9.333965 -5.999960
  S     4.142266  9.636360 -3.362276
  S     6.355700  8.366162 -2.035168
