16  
    
  C     5.643746  5.586598 -4.268713
  C     6.978463  5.227986 -3.685832
  C     5.818144  9.799804 -4.357678
  C     6.975643  9.177546 -3.793434
  N     8.016259  5.265431 -4.530214
  N     5.748622  5.993541 -5.533950
  N     5.241665  5.242559 -1.723482
  N     7.948582  8.983336 -4.683208
  N     5.906145 10.074725 -5.692512
  N     5.159751  9.108628 -1.895538
  S     7.346112  5.780152 -6.011373
  S     4.351260  5.674941 -3.087835
  S     6.902767  4.951980 -1.949814
  S     7.420793  9.529055 -6.137734
  S     4.403991  9.673621 -3.294336
  S     6.792422  8.799642 -2.146229
