16  
    
  C     5.631232  6.116756 -4.330362
  C     6.825594  5.535755 -3.754737
  C     5.770929  9.403157 -4.275062
  C     6.986880  8.880930 -3.682832
  N     7.858260  5.485108 -4.612321
  N     5.717994  6.539483 -5.592140
  N     5.212354  5.735858 -1.755027
  N     7.986445  8.673774 -4.506874
  N     5.941135  9.722389 -5.563891
  N     5.384561  9.165736 -1.721076
  S     7.235999  6.067002 -6.026409
  S     4.353074  6.197720 -3.150611
  S     6.768372  5.182395 -2.009019
  S     7.413045  9.219263 -5.997156
  S     4.556738  9.652435 -3.060680
  S     7.041969  8.816758 -1.931463
