16  
    
  C     5.628483  6.457510 -4.513941
  C     6.821642  5.935460 -3.921240
  C     5.490692 10.009610 -4.628993
  C     6.726362  9.544231 -4.019183
  N     7.789208  5.672077 -4.789706
  N     5.741224  6.708728 -5.810197
  N     5.035774  6.205537 -2.054501
  N     7.773178  9.290293 -4.882356
  N     5.556397 10.059663 -5.973568
  N     4.974799 10.019691 -2.122855
  S     7.282224  6.183537 -6.228942
  S     4.347065  6.756252 -3.431675
  S     6.595360  5.653954 -2.171332
  S     7.084800  9.708382 -6.371027
  S     4.201435 10.306313 -3.571518
  S     6.542492  9.490571 -2.262443
