16  
    
  C     5.658628  5.729663 -4.391486
  C     6.909277  5.214488 -3.951402
  C     5.694917  9.135197 -4.078671
  C     6.974812  8.678124 -3.590053
  N     7.917807  5.313935 -4.825809
  N     5.743347  6.283100 -5.592626
  N     5.374281  5.212473 -1.930310
  N     7.943387  8.645922 -4.511055
  N     5.643284  9.470755 -5.349608
  N     5.468486  8.820836 -1.565937
  S     7.364211  6.064032 -6.181174
  S     4.409698  5.880077 -3.114089
  S     6.941502  4.784789 -2.295740
  S     7.238379  9.244814 -5.882025
  S     4.538580  9.355034 -2.851976
  S     7.015408  8.324289 -1.921044
