16  
    
  C     5.327043  5.542962 -4.310864
  C     6.489937  4.923704 -3.713538
  C     5.536868  9.143804 -4.383983
  C     6.625868  8.362226 -3.847322
  N     7.487692  4.678720 -4.536903
  N     5.439088  5.729055 -5.616067
  N     4.696203  5.169386 -1.898756
  N     7.703772  8.283887 -4.601984
  N     5.753330  9.619921 -5.599030
  N     4.965132  8.839366 -1.937887
  S     7.046870  5.308363 -5.983749
  S     4.005644  5.851660 -3.254550
  S     6.262496  4.555776 -2.087173
  S     7.275932  9.065891 -6.040561
  S     4.225474  9.478903 -3.321475
  S     6.222155  7.842231 -2.233585
