16  
    
  C     5.528414  6.040304 -4.452291
  C     6.820709  5.643570 -3.913913
  C     5.474312 10.007106 -4.487457
  C     6.617961  9.373465 -3.793284
  N     7.715908  5.443007 -4.874440
  N     5.535939  6.219344 -5.787047
  N     5.175878  5.910833 -1.894392
  N     7.633879  9.128034 -4.592565
  N     5.610343 10.120981 -5.777132
  N     4.746137  9.385307 -2.037323
  S     6.991167  5.756129 -6.393228
  S     4.301125  6.363564 -3.223488
  S     6.735565  5.283952 -2.179735
  S     7.159364  9.604132 -6.123383
  S     4.105232 10.197717 -3.409577
  S     6.366438  9.014093 -2.072385
