16  
    
  C     5.290864  6.248043 -4.529198
  C     6.609095  5.945265 -4.047753
  C     5.606116  9.521642 -4.026467
  C     6.892345  8.998388 -3.476526
  N     7.564347  5.910693 -5.018792
  N     5.242087  6.439312 -5.873514
  N     4.862479  5.770019 -2.097398
  N     7.899147  8.919608 -4.351617
  N     5.675988  9.865348 -5.316321
  N     5.105722  8.993236 -1.602771
  S     6.802828  6.187603 -6.378682
  S     4.044465  6.338652 -3.411444
  S     6.494083  5.569556 -2.332889
  S     7.238202  9.588936 -5.743086
  S     4.317233  9.270217 -2.984551
  S     6.748203  8.554671 -1.800395
