16  
    
  C     5.678878  5.874733 -4.187492
  C     6.849143  5.302602 -3.593446
  C     5.613703  9.521384 -4.416471
  C     6.899572  9.132654 -3.852805
  N     7.863626  5.059481 -4.437909
  N     5.738325  6.044042 -5.513203
  N     5.015189  5.355388 -1.740005
  N     7.939206  8.978972 -4.618991
  N     5.655108  9.485552 -5.736774
  N     5.162369  9.241660 -1.883052
  S     7.309624  5.676350 -5.919840
  S     4.284744  6.020978 -3.102457
  S     6.627001  4.942453 -1.926490
  S     7.278821  9.127838 -6.180360
  S     4.377134  9.884851 -3.189191
  S     6.789362  8.933000 -2.159278
