16  
    
  C     5.631847  5.707221 -4.291463
  C     6.724112  5.048038 -3.591167
  C     5.416911  9.296681 -4.196461
  C     6.606159  8.742886 -3.563321
  N     7.709641  4.667256 -4.385919
  N     5.892243  6.023766 -5.562387
  N     4.991572  5.506608 -1.766793
  N     7.551611  8.317180 -4.372798
  N     5.524745  9.432253 -5.513888
  N     4.822760  9.019983 -1.726658
  S     7.316598  5.255211 -5.947769
  S     4.353060  6.061656 -3.173257
  S     6.595996  4.965505 -1.915967
  S     7.037912  8.833557 -5.922735
  S     4.101836  9.515469 -3.133414
  S     6.412674  8.526670 -1.823743
