16  
    
  C     5.278362  6.298572 -4.343259
  C     6.476149  5.750320 -3.730722
  C     5.504289  9.668770 -4.477512
  C     6.673011  9.262977 -3.767753
  N     7.444502  5.508210 -4.582256
  N     5.344456  6.390310 -5.646265
  N     4.745781  6.013603 -1.862695
  N     7.768693  9.077884 -4.542779
  N     5.708398  9.887187 -5.801702
  N     4.888320  9.661471 -1.997326
  S     6.899485  5.864704 -6.097238
  S     4.022949  6.580537 -3.246190
  S     6.314115  5.610741 -2.024164
  S     7.331869  9.469759 -6.076048
  S     4.065238  9.745892 -3.383646
  S     6.423405  9.026652 -2.031174
