16  
    
  C     5.576106  5.894430 -4.454135
  C     6.841579  5.512455 -3.878561
  C     5.723904  9.379208 -4.282610
  C     6.968259  9.073080 -3.608297
  N     7.887697  5.447137 -4.702469
  N     5.614111  6.085367 -5.770620
  N     5.120372  5.516389 -1.873945
  N     7.974094  9.066837 -4.491398
  N     5.735910  9.679386 -5.586155
  N     5.257080  9.183887 -1.738756
  S     7.213401  5.891586 -6.167167
  S     4.342299  6.118089 -3.218700
  S     6.728463  5.135600 -2.139158
  S     7.360311  9.402522 -6.020441
  S     4.410100  9.438852 -3.189005
  S     6.855345  8.652082 -1.894727
