16  
    
  C     5.271472  5.202851 -3.977810
  C     6.468949  4.909177 -3.237226
  C     5.354315  9.477327 -4.165949
  C     6.587946  9.077886 -3.504027
  N     7.580680  4.875218 -3.980306
  N     5.429742  5.432869 -5.303699
  N     4.676771  5.193446 -1.463272
  N     7.597531  8.835944 -4.295013
  N     5.393989  9.500566 -5.496404
  N     4.688027  9.118623 -1.720756
  S     7.074295  5.113799 -5.590957
  S     3.822525  5.231452 -2.891962
  S     6.320480  4.746687 -1.493078
  S     7.035224  9.049527 -5.879833
  S     4.008019  9.644319 -3.124089
  S     6.313947  8.799459 -1.783995
