16  
    
  C     5.253644  5.755462 -4.540884
  C     6.504910  5.359156 -3.881055
  C     5.394753  9.608735 -4.453881
  C     6.545585  9.099547 -3.776127
  N     7.520427  5.137317 -4.703005
  N     5.339652  5.943098 -5.855210
  N     4.788403  5.730639 -1.923288
  N     7.600571  8.794099 -4.549976
  N     5.532644  9.539863 -5.792348
  N     4.728519  9.607771 -1.990937
  S     6.965565  5.610383 -6.218351
  S     4.018111  6.178994 -3.371753
  S     6.395155  5.214945 -2.102331
  S     6.989640  8.950342 -6.141690
  S     4.110941 10.087383 -3.411957
  S     6.219418  8.898470 -2.078615
