16  
    
  C     5.559385  5.478056 -4.266285
  C     6.785660  5.391005 -3.564849
  C     5.273444  9.981864 -4.574097
  C     6.335833  9.251242 -4.008283
  N     7.851175  5.293336 -4.377845
  N     5.634190  5.462300 -5.575825
  N     4.992827  5.487092 -1.755835
  N     7.370466  8.961960 -4.815269
  N     5.453596 10.280355 -5.872974
  N     4.598197  9.721450 -2.170376
  S     7.225798  5.327632 -5.975485
  S     4.212470  5.635475 -3.224079
  S     6.641069  5.375353 -1.839271
  S     6.889501  9.529622 -6.306219
  S     3.999008 10.494183 -3.474836
  S     6.116041  9.150130 -2.268318
