16  
    
  C     5.631041  5.753318 -4.389830
  C     6.897409  5.186082 -3.962084
  C     5.730298  9.160463 -4.070614
  C     6.993041  8.685871 -3.564240
  N     7.918721  5.295132 -4.791068
  N     5.747360  6.296023 -5.573190
  N     5.384362  5.221466 -1.921192
  N     7.936210  8.675599 -4.500023
  N     5.619008  9.461474 -5.359675
  N     5.440921  8.822774 -1.554518
  S     7.351840  6.052820 -6.172484
  S     4.413295  5.888234 -3.117152
  S     6.955186  4.779623 -2.279375
  S     7.238284  9.232952 -5.889083
  S     4.547159  9.338326 -2.874571
  S     7.008232  8.311453 -1.905404
