16  
    
  C     5.580976  5.465465 -4.219336
  C     6.773057  5.087966 -3.542199
  C     5.370458  9.221980 -4.268546
  C     6.545066  8.623466 -3.710014
  N     7.844043  5.026673 -4.305667
  N     5.699491  5.546994 -5.551647
  N     5.018004  5.377175 -1.708486
  N     7.492309  8.342235 -4.613368
  N     5.426342  9.339977 -5.598980
  N     4.895706  9.087556 -1.772081
  S     7.344249  5.144313 -5.818195
  S     4.251098  5.816099 -3.093342
  S     6.565824  4.811067 -1.842428
  S     6.937219  8.882292 -6.043624
  S     4.193426  9.698463 -3.134491
  S     6.444630  8.461478 -1.947918
