16  
    
  C     5.659638  5.776442 -3.949518
  C     6.866614  5.178916 -3.380555
  C     5.531723  9.420604 -3.967521
  C     6.682581  8.859440 -3.330010
  N     7.934499  5.164564 -4.212426
  N     5.803018  6.165321 -5.195917
  N     4.981364  5.321552 -1.562928
  N     7.742466  8.735359 -4.108363
  N     5.657985  9.694957 -5.259541
  N     5.007935  9.183361 -1.473075
  S     7.383506  5.803109 -5.618467
  S     4.306225  5.896472 -2.990111
  S     6.602357  4.766574 -1.703674
  S     7.246661  9.306166 -5.626237
  S     4.245603  9.709121 -2.851172
  S     6.536949  8.553312 -1.678631
