16  
    
  C     5.200639  5.292413 -3.992323
  C     6.410212  4.938385 -3.295884
  C     5.328423  9.466785 -4.228646
  C     6.538318  9.126600 -3.540277
  N     7.454905  4.764150 -4.098533
  N     5.375060  5.330689 -5.293894
  N     4.621335  5.169060 -1.468522
  N     7.578470  8.957894 -4.374401
  N     5.442737  9.432660 -5.575564
  N     4.758463  9.193939 -1.694043
  S     6.984174  5.127171 -5.600555
  S     3.822460  5.265427 -2.975098
  S     6.248129  4.713000 -1.553147
  S     7.032968  9.026427 -5.896740
  S     3.983962  9.650530 -3.112099
  S     6.376967  8.829428 -1.815459
