16  
    
  C     5.446389  5.917274 -4.406553
  C     6.679966  5.539648 -3.859279
  C     5.439353  9.662298 -4.600975
  C     6.567049  9.141693 -3.860013
  N     7.643639  5.142207 -4.711365
  N     5.429117  5.999516 -5.745193
  N     5.016900  5.705655 -1.828175
  N     7.535600  8.817110 -4.684020
  N     5.550549  9.782130 -5.907753
  N     4.805383  9.427345 -2.101479
  S     6.968099  5.481026 -6.217986
  S     4.172036  5.999395 -3.263633
  S     6.606767  5.287407 -2.096607
  S     7.038052  9.197115 -6.253422
  S     4.009393  9.808688 -3.546621
  S     6.510898  9.234872 -2.171300
