16  
    
  C     5.492088  6.060790 -4.230472
  C     6.673013  5.428709 -3.656314
  C     5.351997  9.538653 -4.395761
  C     6.609011  9.061782 -3.773002
  N     7.615105  5.173811 -4.571436
  N     5.588470  6.409385 -5.517340
  N     4.931600  5.563661 -1.753812
  N     7.665861  9.005722 -4.549556
  N     5.557973  9.863640 -5.638254
  N     4.905862  9.192928 -1.834172
  S     7.066265  5.902364 -5.984639
  S     4.151276  6.191038 -3.062924
  S     6.569471  5.152314 -1.889936
  S     7.141143  9.440737 -6.045131
  S     4.062464  9.618675 -3.227717
  S     6.492231  8.855390 -2.025652
