16  
    
  C     5.386250  6.072846 -4.436033
  C     6.570655  5.602391 -3.692309
  C     5.667135  9.583005 -4.230800
  C     6.801258  9.073727 -3.556558
  N     7.599358  5.409221 -4.443968
  N     5.558114  6.242466 -5.732150
  N     4.718898  5.905570 -2.006856
  N     7.808204  8.868646 -4.408285
  N     5.782611  9.825897 -5.520801
  N     4.884299  9.403994 -1.790937
  S     7.094817  5.835246 -6.074914
  S     4.038043  6.456860 -3.405942
  S     6.330063  5.425640 -1.991606
  S     7.358017  9.411878 -5.928943
  S     4.202541  9.768047 -3.243668
  S     6.534621  8.906070 -1.857895
