16  
    
  C     5.721462  5.469877 -4.408101
  C     6.946029  5.212809 -3.674920
  C     5.363761  9.332536 -4.473786
  C     6.586283  8.962150 -3.822646
  N     7.945137  4.967719 -4.492815
  N     5.791790  5.547026 -5.747766
  N     5.183560  5.392736 -1.886300
  N     7.649112  8.705840 -4.564647
  N     5.505327  9.418280 -5.800698
  N     4.912761  9.401259 -1.926605
  S     7.437700  5.291430 -6.075511
  S     4.323213  5.512015 -3.319812
  S     6.798003  4.990934 -1.936318
  S     7.164616  8.926189 -6.118481
  S     4.153476  9.786745 -3.372995
  S     6.425148  8.779699 -2.105226
