16  
    
  C     5.516809  5.840685 -4.344047
  C     6.710593  5.276552 -3.820055
  C     5.686359  9.192981 -4.439563
  C     6.874625  8.768674 -3.703914
  N     7.664493  4.993826 -4.722483
  N     5.449664  5.857815 -5.662172
  N     5.078752  5.535632 -1.772202
  N     7.965367  8.624207 -4.438018
  N     5.868983  9.288886 -5.747048
  N     5.116293  9.130024 -1.909480
  S     7.041262  5.429494 -6.187796
  S     4.326163  6.172678 -3.128119
  S     6.565297  4.955703 -2.092667
  S     7.481401  8.855314 -6.038399
  S     4.332416  9.431316 -3.302362
  S     6.722950  8.725087 -2.010810
