16  
    
  C     5.148042  6.255611 -4.349049
  C     6.218109  5.492378 -3.627174
  C     5.699462  9.601659 -4.185316
  C     6.929338  9.124022 -3.608694
  N     7.310842  5.212342 -4.342440
  N     5.442033  6.427713 -5.636915
  N     4.446538  6.256411 -1.814340
  N     7.960269  8.936608 -4.439500
  N     5.836134  9.746438 -5.503571
  N     5.276387  9.412539 -1.686406
  S     6.943154  5.817607 -5.887401
  S     3.798075  6.782403 -3.288247
  S     5.876685  5.385768 -1.896663
  S     7.366905  9.356873 -5.986493
  S     4.440211  9.995592 -3.028874
  S     6.789434  8.820302 -1.881876
