16  
    
  C     5.479380  5.823019 -4.570761
  C     6.747464  5.553486 -3.832591
  C     5.152774  9.523255 -4.410147
  C     6.395844  9.179970 -3.730200
  N     7.826047  5.480333 -4.597615
  N     5.656698  5.822827 -5.881781
  N     4.868783  5.636229 -2.033181
  N     7.422125  8.796140 -4.492059
  N     5.271824  9.416761 -5.726800
  N     4.655228  9.918980 -2.023882
  S     7.297581  5.729441 -6.169239
  S     4.102267  5.971221 -3.484826
  S     6.533987  5.383239 -2.178183
  S     6.863159  8.950644 -6.031710
  S     3.885589 10.158551 -3.497685
  S     6.142056  9.293920 -2.042759
