16  
    
  C     5.433321  6.054860 -4.347867
  C     6.550300  5.401716 -3.651321
  C     5.706438  9.715885 -4.178386
  C     6.812663  9.041395 -3.516858
  N     7.614504  5.151047 -4.422022
  N     5.643702  6.248505 -5.643470
  N     4.631013  5.733807 -1.890062
  N     7.847105  8.644592 -4.308978
  N     5.970724  9.909077 -5.481306
  N     5.005315  9.460243 -1.651329
  S     7.136138  5.648705 -5.946285
  S     4.017731  6.198734 -3.332681
  S     6.236300  5.302829 -1.951180
  S     7.443365  9.258180 -5.869896
  S     4.348478 10.006577 -3.139070
  S     6.547916  8.822577 -1.850286
