16  
    
  C     5.779330  5.866760 -3.853487
  C     6.890562  5.060116 -3.501781
  C     5.613169  9.628449 -4.085430
  C     6.812584  8.966852 -3.599772
  N     7.830882  4.908615 -4.462248
  N     5.879287  6.398148 -5.063292
  N     5.129327  4.961951 -1.544817
  N     7.783782  8.962021 -4.491005
  N     5.725975 10.125816 -5.324398
  N     5.162513  8.899770 -1.659588
  S     7.357155  5.904113 -5.658660
  S     4.425120  5.796461 -2.837554
  S     6.751036  4.550570 -1.766019
  S     7.255451  9.644137 -5.865770
  S     4.309097  9.633652 -2.886322
  S     6.768377  8.506780 -1.934237
