16  
    
  C     5.537155  5.674410 -4.403536
  C     6.724806  5.331356 -3.776592
  C     5.433396  9.597086 -4.617749
  C     6.699950  9.335475 -3.960557
  N     7.689589  5.074279 -4.646541
  N     5.582730  5.817492 -5.726352
  N     5.087057  5.699585 -1.814394
  N     7.780675  9.295056 -4.726782
  N     5.563251  9.634997 -5.951452
  N     4.817240  9.336007 -2.114833
  S     7.181839  5.537512 -6.137215
  S     4.303622  6.072710 -3.255668
  S     6.702463  5.258825 -2.029221
  S     7.186336  9.354495 -6.311966
  S     4.057208  9.676463 -3.586884
  S     6.451552  9.010431 -2.193056
