16  
    
  C     5.517187  5.867222 -4.360065
  C     6.701384  5.311834 -3.774976
  C     5.713201  9.273397 -4.422391
  C     6.893240  8.868961 -3.714917
  N     7.656564  5.003504 -4.652980
  N     5.578418  6.006728 -5.675143
  N     5.034739  5.431432 -1.835526
  N     7.900332  8.588810 -4.555162
  N     5.822100  9.381434 -5.739374
  N     5.086315  9.064185 -1.888844
  S     7.024605  5.353435 -6.165936
  S     4.275489  6.171073 -3.116397
  S     6.646102  4.911893 -2.068396
  S     7.373580  8.896647 -6.057109
  S     4.363473  9.391054 -3.372503
  S     6.711126  8.709750 -2.013206
