16  
    
  C     5.773546  5.796469 -3.964509
  C     6.895553  4.963786 -3.495172
  C     5.650399  9.650884 -4.157306
  C     6.828321  8.978719 -3.709724
  N     7.946282  4.869472 -4.295706
  N     6.056785  6.328869 -5.151890
  N     5.166106  5.118428 -1.576243
  N     7.840139  8.991216 -4.579948
  N     5.694793 10.107420 -5.404443
  N     5.169773  8.929093 -1.749953
  S     7.552149  5.675630 -5.665781
  S     4.397277  5.760440 -2.894213
  S     6.746289  4.597004 -1.771222
  S     7.270518  9.821569 -5.911572
  S     4.380825  9.641889 -2.985626
  S     6.735799  8.481362 -2.066269
