16  
    
  C     5.640676  5.653208 -4.459636
  C     6.875513  5.306054 -3.799997
  C     5.747066  9.550750 -3.987952
  C     6.969972  9.021269 -3.459823
  N     7.904571  5.170295 -4.614801
  N     5.733269  5.844910 -5.777130
  N     5.154879  5.446747 -1.911864
  N     7.942636  8.838370 -4.343569
  N     5.831749  9.875657 -5.276258
  N     5.320642  8.795002 -1.531531
  S     7.303067  5.585173 -6.149763
  S     4.309482  5.865714 -3.288819
  S     6.807512  5.185513 -2.028174
  S     7.350108  9.370500 -5.806375
  S     4.551201  9.601476 -2.718375
  S     6.909050  8.438632 -1.802414
