16  
    
  C     5.627848  5.533884 -4.013064
  C     6.890043  5.109400 -3.483559
  C     5.843040  9.252776 -3.874648
  C     7.104204  8.924824 -3.267122
  N     7.855285  4.947324 -4.368287
  N     5.649103  5.744602 -5.320612
  N     5.198642  5.446082 -1.485568
  N     8.115781  8.764352 -4.109363
  N     5.886921  9.486939 -5.199695
  N     5.324461  9.160819 -1.405612
  S     7.249857  5.422755 -5.880377
  S     4.348092  5.933822 -2.860324
  S     6.763575  4.929320 -1.707903
  S     7.496420  9.153010 -5.619124
  S     4.523486  9.363048 -2.797468
  S     6.937179  8.792739 -1.536575
