16  
    
  C     5.644490  5.425814 -4.280204
  C     6.890536  5.330463 -3.559899
  C     5.147281  9.913865 -4.613718
  C     6.287131  9.262319 -3.960844
  N     7.981715  5.205733 -4.286424
  N     5.803390  5.446210 -5.558612
  N     5.105493  5.616235 -1.748400
  N     7.314904  8.941921 -4.744882
  N     5.339175 10.003228 -5.942288
  N     4.563741  9.838043 -2.158371
  S     7.404985  5.263273 -5.939491
  S     4.333531  5.706464 -3.195512
  S     6.700834  5.318249 -1.842215
  S     6.862374  9.430320 -6.268591
  S     3.874565 10.308626 -3.608464
  S     6.045501  9.122121 -2.218415
