16  
    
  C     5.452592  5.821973 -4.107162
  C     6.504360  4.944635 -3.582462
  C     5.683632  9.417058 -4.477148
  C     6.894959  8.911617 -3.844820
  N     7.389955  4.446456 -4.470830
  N     5.595632  6.021309 -5.435294
  N     5.013313  5.607739 -1.596986
  N     7.934285  8.728393 -4.659891
  N     5.761069  9.620840 -5.751723
  N     4.992388  9.192247 -2.052178
  S     6.965622  5.203456 -5.899550
  S     4.321170  6.370237 -2.933967
  S     6.311736  4.630440 -1.919572
  S     7.332907  9.159450 -6.191238
  S     4.416524  9.934410 -3.440150
  S     6.546676  8.644280 -2.161861
