16  
    
  C     5.737546  5.452680 -4.229000
  C     6.984597  5.007169 -3.534100
  C     5.399583  9.367671 -4.664195
  C     6.591295  8.934554 -3.946180
  N     8.065803  4.919637 -4.319300
  N     5.897774  5.672382 -5.544869
  N     5.100401  5.232424 -1.743525
  N     7.643012  8.758366 -4.728335
  N     5.539740  9.350154 -6.020196
  N     4.811578  9.120363 -2.078971
  S     7.480299  5.295351 -5.841394
  S     4.362302  5.684090 -3.170230
  S     6.697590  4.713504 -1.822338
  S     7.149124  9.045066 -6.280004
  S     4.114419  9.722666 -3.522558
  S     6.411466  8.652612 -2.224784
