16  
    
  C     5.243118  6.342564 -4.449919
  C     6.491146  6.037315 -3.794658
  C     5.513960  9.631535 -4.287550
  C     6.777963  9.298751 -3.757756
  N     7.582674  5.991559 -4.569670
  N     5.368499  6.518514 -5.782298
  N     4.668055  6.009440 -1.975655
  N     7.783622  9.363370 -4.616506
  N     5.563815  9.939363 -5.553937
  N     5.100355  9.299562 -1.786961
  S     6.932075  6.263520 -6.143424
  S     3.923815  6.416045 -3.404252
  S     6.337243  5.895300 -2.120050
  S     7.073516  9.695524 -6.094208
  S     4.197803  9.678425 -3.146809
  S     6.625938  9.025368 -2.043869
