16  
    
  C     5.293501  6.041148 -4.450349
  C     6.541847  5.558046 -3.765577
  C     5.372140  9.675407 -4.227902
  C     6.650417  9.307326 -3.596235
  N     7.643473  5.457252 -4.508835
  N     5.565618  6.230972 -5.757142
  N     4.686053  5.776254 -1.970816
  N     7.640104  9.088010 -4.413695
  N     5.450058  9.788901 -5.515280
  N     4.767656  9.343596 -1.752193
  S     7.121947  5.812219 -6.059709
  S     3.922600  6.096446 -3.446444
  S     6.310975  5.429054 -2.054572
  S     7.043585  9.468155 -5.926792
  S     3.934330  9.755656 -3.161533
  S     6.448251  9.064934 -1.854544
