16  
    
  C     5.655030  5.411145 -4.163893
  C     6.888454  4.955932 -3.521381
  C     5.479188  9.402104 -4.678506
  C     6.620659  8.831324 -3.985983
  N     7.887054  4.686293 -4.349719
  N     5.769391  5.683261 -5.481775
  N     5.122781  5.061290 -1.637560
  N     7.643937  8.514044 -4.799200
  N     5.589101  9.516626 -6.001159
  N     4.821801  9.272900 -2.191356
  S     7.361389  5.276119 -5.800608
  S     4.276331  5.331854 -3.082986
  S     6.756229  4.834739 -1.743380
  S     7.080853  8.997200 -6.367733
  S     4.139817  9.687801 -3.654387
  S     6.499256  8.879705 -2.271230
