16  
    
  C     5.480516  5.756792 -4.390865
  C     6.708914  5.272309 -3.844406
  C     5.471730  9.712439 -4.607737
  C     6.671633  9.385235 -3.906283
  N     7.759774  5.156574 -4.665128
  N     5.552569  5.938820 -5.695371
  N     5.074255  5.683394 -1.905018
  N     7.654298  9.057901 -4.727234
  N     5.542769  9.729881 -5.958227
  N     4.810173  9.350858 -2.101576
  S     7.072114  5.492732 -6.174615
  S     4.172883  6.060252 -3.240147
  S     6.689817  5.308698 -2.062952
  S     7.109834  9.227450 -6.262017
  S     4.045625  9.701744 -3.524407
  S     6.436442  9.125129 -2.247125
