16  
    
  C     5.251441  6.366186 -4.378761
  C     6.351971  5.632646 -3.699615
  C     5.535055  9.557058 -4.366494
  C     6.784122  9.218223 -3.688323
  N     7.377463  5.399054 -4.516858
  N     5.459686  6.523578 -5.707055
  N     4.639124  6.168776 -1.875156
  N     7.831840  9.095844 -4.459921
  N     5.684780  9.643982 -5.659955
  N     5.017717  9.449920 -1.852195
  S     6.916769  5.866023 -6.015352
  S     4.045010  6.815198 -3.258122
  S     6.179865  5.526412 -2.011540
  S     7.252774  9.373632 -6.042865
  S     4.243711  9.827775 -3.290835
  S     6.583031  8.874948 -1.942560
