16  
    
  C     5.272651  6.175140 -4.396512
  C     6.461473  5.757119 -3.737707
  C     5.460599  9.729613 -4.490168
  C     6.656765  9.224819 -3.788848
  N     7.493166  5.521180 -4.558287
  N     5.351977  6.430930 -5.725611
  N     4.749677  6.018259 -1.870807
  N     7.708669  9.031257 -4.542178
  N     5.702123  9.885848 -5.770245
  N     4.878912  9.652694 -1.988099
  S     6.898198  5.872814 -6.090325
  S     3.984753  6.517180 -3.241159
  S     6.387458  5.627248 -1.998212
  S     7.309976  9.497038 -6.055684
  S     4.075413  9.760522 -3.444684
  S     6.445674  9.056954 -1.994844
