16  
    
  C     5.632307  5.723756 -4.200583
  C     6.805563  5.253043 -3.468785
  C     5.552033  9.423180 -4.152270
  C     6.691016  8.828313 -3.507747
  N     7.885157  5.070262 -4.230026
  N     5.822864  5.674917 -5.534364
  N     4.896200  5.647315 -1.695550
  N     7.713247  8.684364 -4.325068
  N     5.666373  9.604641 -5.469108
  N     4.810197  8.949915 -1.726276
  S     7.388100  5.296576 -5.851805
  S     4.260074  6.061116 -3.197946
  S     6.456660  4.987420 -1.729895
  S     7.200488  9.099377 -5.816314
  S     4.175219  9.586199 -3.096751
  S     6.422924  8.569361 -1.768775
