16  
    
  C     5.210980  6.131875 -4.368956
  C     6.438146  5.631124 -3.754020
  C     5.461710  9.818691 -4.359582
  C     6.673899  9.318449 -3.777650
  N     7.471901  5.311039 -4.557667
  N     5.367142  6.324537 -5.689881
  N     4.691889  5.971766 -1.787018
  N     7.663834  9.174862 -4.599010
  N     5.504444  9.925687 -5.654104
  N     4.942910  9.382263 -1.860863
  S     6.926325  5.789764 -6.074305
  S     3.916927  6.479932 -3.204206
  S     6.208633  5.256340 -2.045809
  S     7.049048  9.488315 -6.095557
  S     4.210424 10.023562 -3.127250
  S     6.616528  9.045680 -2.104660
