16  
    
  C     5.190280  6.144073 -4.329219
  C     6.321795  5.555564 -3.695573
  C     5.499271  9.752823 -4.279262
  C     6.667904  9.221459 -3.664143
  N     7.394320  5.348045 -4.461209
  N     5.341846  6.351793 -5.628341
  N     4.598827  5.963116 -1.804141
  N     7.623934  8.964912 -4.559602
  N     5.546950  9.957214 -5.623913
  N     5.004844  9.612653 -1.718611
  S     6.822796  5.860100 -5.975038
  S     3.912957  6.550173 -3.240024
  S     6.160391  5.311813 -1.936319
  S     7.066932  9.457160 -6.088993
  S     4.202904 10.019414 -3.092962
  S     6.611203  8.996304 -1.935305
