16  
    
  C     5.445279  5.646465 -4.207134
  C     6.662048  5.261842 -3.479237
  C     5.871384  8.987834 -3.970481
  C     7.087667  8.524360 -3.379726
  N     7.674146  4.943909 -4.257956
  N     5.631964  5.530199 -5.509857
  N     4.845224  5.801868 -1.793180
  N     8.091101  8.515600 -4.259934
  N     5.925885  9.242359 -5.290979
  N     5.338543  8.368198 -1.505348
  S     7.192217  5.138377 -5.828390
  S     4.078392  6.024519 -3.265255
  S     6.346532  5.074971 -1.780538
  S     7.481558  9.003613 -5.712127
  S     4.589854  9.104955 -2.786554
  S     7.016823  8.296169 -1.649735
