16  
    
  C     5.425682  6.016027 -4.144223
  C     6.678519  5.637308 -3.585008
  C     5.619036  9.689123 -4.381233
  C     6.836983  9.254613 -3.698910
  N     7.630072  5.504601 -4.489210
  N     5.452100  6.264574 -5.444790
  N     5.014949  5.730282 -1.647462
  N     7.895776  9.034032 -4.509202
  N     5.742116  9.718677 -5.678752
  N     4.955110  9.471607 -1.945932
  S     6.989267  5.832640 -6.005624
  S     4.130975  6.154797 -3.011318
  S     6.595569  5.277286 -1.937910
  S     7.332449  9.251803 -6.072986
  S     4.219933  9.884285 -3.401590
  S     6.550737  9.085453 -1.945457
