16  
    
  C     5.501766  5.187672 -4.284421
  C     6.861010  5.197632 -3.740741
  C     5.538250  9.262581 -4.515365
  C     6.700219  8.925146 -3.738290
  N     7.822607  5.083099 -4.661043
  N     5.452255  5.122330 -5.605891
  N     5.275609  5.214695 -1.653802
  N     7.764541  8.748762 -4.523960
  N     5.716011  9.389894 -5.830127
  N     4.752326  9.146053 -2.064929
  S     7.091603  5.058156 -6.095812
  S     4.348784  5.366956 -3.057871
  S     6.874677  4.978809 -1.976687
  S     7.286184  8.937909 -6.124847
  S     4.112594  9.620642 -3.554748
  S     6.336098  8.653115 -2.049438
