16  
    
  C     5.669688  6.534078 -4.517258
  C     6.814715  5.955747 -3.859554
  C     5.540309 10.000798 -4.611322
  C     6.779074  9.545776 -3.978347
  N     7.812797  5.758570 -4.709710
  N     5.760270  6.692063 -5.827102
  N     5.052931  6.286021 -2.049965
  N     7.738585  9.323563 -4.818377
  N     5.569542 10.112386 -5.910863
  N     5.029871 10.081816 -2.074486
  S     7.243228  6.207154 -6.283033
  S     4.378224  6.825130 -3.457529
  S     6.577655  5.671721 -2.187936
  S     7.115032  9.652686 -6.361020
  S     4.198582 10.384632 -3.586959
  S     6.538284  9.452718 -2.276130
