16  
    
  C     5.636143  5.836293 -4.342882
  C     6.827260  5.481986 -3.663815
  C     5.809352  9.468389 -4.453120
  C     6.983523  9.068394 -3.744073
  N     7.827525  5.331664 -4.556511
  N     5.704415  6.066594 -5.626599
  N     5.011470  5.740654 -1.777810
  N     8.057311  9.005728 -4.499056
  N     5.914273  9.736105 -5.795334
  N     5.098866  9.304857 -1.946951
  S     7.285204  5.723694 -6.015609
  S     4.255644  6.118918 -3.245045
  S     6.575132  5.315154 -1.931581
  S     7.511511  9.290285 -6.108113
  S     4.401808  9.511570 -3.424282
  S     6.727525  9.092349 -2.019735
