16  
    
  C     5.536686  5.187024 -4.195898
  C     6.913772  5.110010 -3.661509
  C     5.425379  9.236650 -4.534371
  C     6.579959  8.760677 -3.821115
  N     7.862235  5.143906 -4.597612
  N     5.489853  5.092479 -5.499865
  N     5.239417  5.209595 -1.689964
  N     7.683168  8.545424 -4.526883
  N     5.598566  9.312543 -5.859380
  N     4.791415  9.111636 -2.052479
  S     6.997778  5.108435 -6.098000
  S     4.252331  5.285083 -3.057001
  S     6.860408  5.021943 -1.931057
  S     7.201218  8.925101 -6.116023
  S     4.077992  9.573916 -3.477667
  S     6.393028  8.719675 -2.140745
