16  
    
  C     5.544034  5.727602 -4.402738
  C     6.726485  5.191371 -3.721126
  C     5.690812  9.521901 -4.232286
  C     6.864877  8.997126 -3.580280
  N     7.759339  5.058548 -4.526815
  N     5.749690  5.896745 -5.694070
  N     4.839511  5.445323 -1.967003
  N     7.887018  8.788662 -4.392739
  N     5.805619  9.627770 -5.555450
  N     5.102111  9.294930 -1.755839
  S     7.272417  5.397341 -6.108242
  S     4.278026  6.276467 -3.338716
  S     6.416709  4.976017 -2.049189
  S     7.395916  9.054448 -5.915689
  S     4.350084  9.703843 -3.183917
  S     6.676740  8.706539 -1.875414
