16  
    
  C     5.228038  6.196167 -4.328426
  C     6.338717  5.729524 -3.626067
  C     5.665166  9.654939 -4.111534
  C     6.797664  8.994390 -3.532874
  N     7.365294  5.402965 -4.376450
  N     5.409046  6.442232 -5.606369
  N     4.530574  6.097879 -1.844832
  N     7.733890  8.619490 -4.426960
  N     5.714912  9.809403 -5.446158
  N     5.202363  9.481978 -1.596431
  S     6.947940  5.807060 -5.926188
  S     3.870618  6.521521 -3.331376
  S     6.076262  5.607968 -1.917496
  S     7.186004  9.137401 -5.860806
  S     4.373524  9.860362 -3.024496
  S     6.814897  8.957926 -1.786746
