16  
    
  C     5.588412  5.303708 -4.239357
  C     6.855921  5.219506 -3.558303
  C     5.681046  9.344335 -4.187013
  C     6.983490  9.220528 -3.551876
  N     7.907736  5.276516 -4.361176
  N     5.685748  5.416871 -5.549979
  N     5.049013  5.795319 -1.762358
  N     8.056752  9.236950 -4.356578
  N     5.710590  9.523147 -5.516799
  N     5.096069  8.875987 -1.747192
  S     7.316575  5.335574 -5.942030
  S     4.164539  5.795752 -3.215816
  S     6.721176  5.443006 -1.809920
  S     7.328595  9.399201 -5.934788
  S     4.333425  9.109510 -3.148610
  S     6.772518  8.827846 -1.857137
