16  
    
  C     5.280920  6.353262 -4.371539
  C     6.345222  5.665406 -3.714167
  C     5.537807  9.583271 -4.376119
  C     6.749989  9.281532 -3.681940
  N     7.351380  5.475851 -4.526254
  N     5.436380  6.521419 -5.658057
  N     4.676382  6.102761 -1.890698
  N     7.825734  9.133201 -4.484955
  N     5.650284  9.642471 -5.712327
  N     5.009062  9.458667 -1.932180
  S     6.915326  5.836399 -6.049171
  S     4.045935  6.839278 -3.263746
  S     6.201603  5.515492 -1.994195
  S     7.260743  9.393098 -6.038552
  S     4.222849  9.812450 -3.335658
  S     6.557831  8.869100 -1.951362
