16  
    
  C     5.417467  6.047654 -4.211468
  C     6.602225  5.436786 -3.677815
  C     5.499796  9.608561 -4.282103
  C     6.735152  9.056432 -3.652540
  N     7.599178  5.193162 -4.529391
  N     5.529627  6.349991 -5.500849
  N     4.909565  5.544816 -1.704763
  N     7.740838  8.879073 -4.480608
  N     5.657430  9.848341 -5.529364
  N     4.803812  9.326211 -1.836057
  S     7.023262  5.760297 -6.004005
  S     4.153747  6.251518 -3.046501
  S     6.507567  5.206458 -1.967704
  S     7.195542  9.486497 -6.007307
  S     4.054067  9.650787 -3.283118
  S     6.423451  8.798970 -1.936910
