16  
    
  C     5.336207  6.001967 -4.374125
  C     6.533693  5.510142 -3.750910
  C     5.464235  9.165752 -4.248425
  C     6.719803  8.851001 -3.595233
  N     7.536748  5.251156 -4.573420
  N     5.473339  6.262686 -5.670896
  N     4.746047  5.525510 -1.990708
  N     7.750770  8.884314 -4.451198
  N     5.489578  9.363448 -5.558480
  N     4.974130  9.285318 -1.705382
  S     6.971447  5.816173 -6.096737
  S     3.994392  6.220604 -3.358967
  S     6.405269  5.231945 -2.040607
  S     7.037627  9.016554 -6.014193
  S     4.118856  9.296267 -3.194987
  S     6.498072  8.744845 -1.846167
