16  
    
  C     5.745524  5.383437 -4.200894
  C     6.932738  4.933317 -3.532140
  C     5.364893  9.320280 -4.694396
  C     6.561050  8.883217 -4.004137
  N     8.021457  4.856352 -4.315098
  N     5.903040  5.705329 -5.479098
  N     5.098931  5.181651 -1.689833
  N     7.665271  8.723489 -4.714665
  N     5.545432  9.374128 -6.004577
  N     4.785475  9.120499 -2.152231
  S     7.482483  5.287649 -5.835020
  S     4.336715  5.583933 -3.152929
  S     6.674750  4.744529 -1.829977
  S     7.152872  9.033943 -6.334167
  S     4.116090  9.739979 -3.500381
  S     6.439253  8.729911 -2.254890
