16  
    
  C     5.372235  6.053628 -4.590383
  C     6.642174  5.691584 -4.070297
  C     5.710387  9.410557 -4.180890
  C     6.942197  8.931784 -3.550186
  N     7.621849  5.713953 -4.987596
  N     5.421168  6.462984 -5.905327
  N     5.027721  5.729789 -2.059349
  N     7.989308  8.903975 -4.357743
  N     5.779473  9.776239 -5.475977
  N     5.256789  8.860137 -1.607729
  S     7.017504  6.194866 -6.336708
  S     4.091484  6.062374 -3.395733
  S     6.644212  5.509881 -2.377488
  S     7.369769  9.360190 -5.873144
  S     4.441462  9.454021 -2.949878
  S     6.840913  8.718159 -1.840360
