16  
    
  C     5.635176  5.933791 -4.131450
  C     6.710729  5.085255 -3.547649
  C     5.795309  9.583141 -4.495955
  C     6.935689  8.909593 -3.881065
  N     7.719062  4.814578 -4.382982
  N     5.832266  6.218360 -5.414658
  N     5.049357  5.562863 -1.629573
  N     7.889316  8.612777 -4.721922
  N     5.831494  9.764197 -5.814012
  N     5.194944  9.352228 -1.991546
  S     7.254121  5.476895 -5.893886
  S     4.353017  6.342332 -3.021472
  S     6.544340  4.763075 -1.832808
  S     7.285783  9.119023 -6.278111
  S     4.445331  9.804404 -3.426337
  S     6.768347  8.792890 -2.136813
