16  
    
  C     5.705309  5.419202 -4.184559
  C     6.866139  4.928750 -3.516012
  C     5.427484  9.327448 -4.660640
  C     6.631772  8.823004 -4.044501
  N     7.904180  4.675859 -4.338898
  N     5.818809  5.687079 -5.500687
  N     5.102259  5.092846 -1.669298
  N     7.656725  8.578366 -4.826039
  N     5.575290  9.490960 -5.966797
  N     4.839161  9.190704 -2.166129
  S     7.410180  5.295661 -5.802788
  S     4.297834  5.380173 -3.091512
  S     6.726925  4.812954 -1.759380
  S     7.096833  9.005269 -6.332715
  S     4.125748  9.719616 -3.627495
  S     6.469041  8.863460 -2.285259
