16  
    
  C     5.571937  5.883157 -4.520090
  C     6.805623  5.492379 -3.824966
  C     5.608535  9.682984 -4.305355
  C     6.802144  9.122633 -3.718808
  N     7.817371  5.351460 -4.673785
  N     5.729037  6.030872 -5.830568
  N     4.934485  5.663501 -1.999055
  N     7.812420  9.220006 -4.567325
  N     5.621018 10.113663 -5.558383
  N     5.005558  9.197184 -1.801988
  S     7.318388  5.703951 -6.167796
  S     4.288636  6.193524 -3.448982
  S     6.495127  5.124087 -2.146801
  S     7.167083  9.699427 -6.029531
  S     4.294582  9.939179 -3.221745
  S     6.579813  8.813139 -2.013551
