16  
    
  C     5.300033  6.022972 -4.373747
  C     6.526749  5.511253 -3.786511
  C     5.426223  9.178254 -4.463358
  C     6.657785  8.831462 -3.744742
  N     7.492655  5.350119 -4.665347
  N     5.454190  6.325734 -5.679689
  N     4.857199  5.654192 -1.857097
  N     7.746468  8.778932 -4.513933
  N     5.593584  9.436457 -5.763976
  N     4.932387  9.205021 -1.871258
  S     6.960725  5.874137 -6.166613
  S     4.062860  6.230947 -3.203212
  S     6.485077  5.370734 -2.078837
  S     7.234107  9.156735 -6.027980
  S     4.135239  9.157500 -3.309748
  S     6.532441  8.803155 -2.034998
