16  
    
  C     5.695054  5.877803 -4.385762
  C     6.913496  5.410440 -3.857278
  C     5.860897  9.592718 -3.868883
  C     7.089050  8.928724 -3.490351
  N     7.927740  5.293637 -4.696336
  N     5.731659  6.064331 -5.716434
  N     5.179684  5.273323 -1.910502
  N     7.982863  8.788794 -4.436252
  N     5.768869  9.851843 -5.165390
  N     5.414991  8.827150 -1.496793
  S     7.331155  5.707114 -6.214432
  S     4.377598  5.783258 -3.257440
  S     6.812682  5.037643 -2.204620
  S     7.217439  9.276558 -5.840382
  S     4.528147  9.513136 -2.794032
  S     6.996508  8.376096 -1.845080
