16  
    
  C     5.524950  5.984859 -4.482936
  C     6.588862  5.439298 -3.682237
  C     5.789717  9.351904 -4.301207
  C     7.050598  8.994680 -3.643029
  N     7.698672  5.164952 -4.351417
  N     5.798252  6.147549 -5.779099
  N     4.661054  5.594285 -2.073544
  N     8.108668  8.975713 -4.443264
  N     5.853721  9.624125 -5.595543
  N     5.155809  9.009167 -1.832707
  S     7.407959  5.652272 -5.925784
  S     4.132647  6.093019 -3.547655
  S     6.241805  5.264114 -2.001486
  S     7.460159  9.448446 -6.006290
  S     4.435633  9.433031 -3.266749
  S     6.845312  8.825925 -1.864667
