16  
    
  C     5.354751  5.731480 -4.384284
  C     6.624458  5.380867 -3.813401
  C     5.244951  9.971658 -4.645217
  C     6.487298  9.466355 -4.035594
  N     7.672501  5.385215 -4.639231
  N     5.448153  5.969342 -5.680784
  N     4.869540  5.608991 -1.871801
  N     7.536025  9.374641 -4.829754
  N     5.409815 10.293720 -5.888910
  N     4.689301  9.722276 -2.184371
  S     6.994796  5.813282 -6.184559
  S     4.049840  5.748753 -3.285432
  S     6.516688  5.217177 -2.075035
  S     7.043317  9.929598 -6.317082
  S     3.976456 10.166882 -3.535067
  S     6.277518  9.138174 -2.275290
