16  
    
  C     5.679025  5.883120 -4.531020
  C     6.895308  5.414133 -3.862968
  C     5.511099  9.454294 -4.320842
  C     6.769033  9.089275 -3.688370
  N     7.893541  5.118010 -4.687057
  N     5.812806  5.964418 -5.855789
  N     5.147953  5.566855 -1.998390
  N     7.799442  9.238337 -4.518210
  N     5.596055  9.767942 -5.607481
  N     5.113951  9.012624 -1.777447
  S     7.368726  5.486205 -6.224898
  S     4.375099  6.037601 -3.410539
  S     6.765383  5.307690 -2.107147
  S     7.150880  9.635238 -6.006151
  S     4.242422  9.344384 -3.131155
  S     6.788414  8.826988 -1.938643
