16  
    
  C     5.471453  5.778474 -4.364370
  C     6.655368  5.360116 -3.654923
  C     5.744834  9.097618 -4.155287
  C     7.049450  8.886693 -3.575124
  N     7.785675  5.222812 -4.377180
  N     5.659301  5.935302 -5.657814
  N     4.737770  5.470356 -1.987546
  N     8.056332  8.898238 -4.441225
  N     5.773777  9.353294 -5.453483
  N     5.205070  8.720046 -1.676009
  S     7.244269  5.701409 -5.899513
  S     4.053451  6.088132 -3.384103
  S     6.357026  5.169148 -1.943564
  S     7.333742  9.104077 -5.920009
  S     4.383191  8.938238 -3.089590
  S     6.850837  8.466754 -1.856424
