16  
    
  C     5.651463  5.360314 -4.059273
  C     6.854140  4.995744 -3.488844
  C     5.488972  9.471523 -4.689365
  C     6.651104  8.940899 -4.028111
  N     7.846288  4.877229 -4.336589
  N     5.710509  5.609681 -5.366815
  N     5.117335  5.021220 -1.616157
  N     7.570321  8.478870 -4.879216
  N     5.632458  9.590532 -6.006069
  N     4.908212  9.401782 -2.193852
  S     7.243327  5.222803 -5.879982
  S     4.283846  5.261721 -3.014409
  S     6.802474  4.884775 -1.782407
  S     7.153433  8.914470 -6.374880
  S     4.138489  9.656562 -3.661161
  S     6.465976  8.894824 -2.238584
