16  
    
  C     5.302609  6.159633 -4.449555
  C     6.332524  5.531462 -3.712554
  C     5.423186  9.619097 -4.232262
  C     6.587614  9.085304 -3.561633
  N     7.393888  5.055505 -4.385030
  N     5.453883  6.102097 -5.793168
  N     4.482458  6.136240 -1.964579
  N     7.679089  8.969520 -4.281119
  N     5.618480  9.970682 -5.470701
  N     4.818919  9.438839 -1.705476
  S     6.929093  5.434746 -5.984993
  S     3.998325  6.735667 -3.420097
  S     6.067644  5.557775 -1.935119
  S     7.215396  9.549078 -5.814140
  S     4.115378  9.703128 -3.141280
  S     6.351432  8.805302 -1.835320
