16  
    
  C     5.601386  6.131414 -4.376561
  C     6.753131  5.551100 -3.783419
  C     5.535659  9.617487 -4.265700
  C     6.780862  9.097490 -3.683183
  N     7.688580  5.278576 -4.683404
  N     5.710278  6.455282 -5.666414
  N     5.047392  5.717440 -1.880976
  N     7.774422  8.939303 -4.569276
  N     5.629678  9.860366 -5.557868
  N     5.114019  9.342170 -1.756195
  S     7.202793  5.848868 -6.156671
  S     4.281406  6.334569 -3.220363
  S     6.666021  5.241053 -2.066698
  S     7.148061  9.427569 -6.072229
  S     4.246363  9.651352 -3.124353
  S     6.731043  8.926342 -1.903987
