16  
    
  C     5.459162  5.991103 -4.549434
  C     6.732015  5.611499 -3.985448
  C     5.788295  9.467845 -4.156166
  C     7.061118  9.112757 -3.544149
  N     7.739961  5.585830 -4.848061
  N     5.503828  6.351917 -5.862792
  N     5.031037  5.695060 -2.068665
  N     8.039198  8.961500 -4.468787
  N     5.820914  9.520073 -5.476406
  N     5.268246  9.053808 -1.722633
  S     7.100436  6.154554 -6.309997
  S     4.151328  5.979414 -3.424160
  S     6.666982  5.401853 -2.278815
  S     7.379688  9.322618 -5.942405
  S     4.450375  9.544513 -3.052148
  S     6.954734  8.730211 -1.875919
