16  
    
  C     5.455931  6.004357 -4.409175
  C     6.627453  5.378017 -3.847331
  C     5.532589  9.809984 -4.627327
  C     6.721649  9.154049 -4.063252
  N     7.614317  5.195259 -4.723741
  N     5.506941  6.212877 -5.698271
  N     5.040809  5.533761 -1.868395
  N     7.643422  8.842501 -4.930360
  N     5.663407 10.009331 -5.931316
  N     5.252424  9.724944 -2.069063
  S     6.981970  5.713617 -6.276671
  S     4.203656  6.166632 -3.176173
  S     6.718252  5.266484 -2.150345
  S     7.125872  9.329518 -6.406557
  S     4.373827 10.344369 -3.370912
  S     6.692285  8.978409 -2.394804
