16  
    
  C     5.541508  6.191168 -4.350596
  C     6.744461  5.589230 -3.876895
  C     5.465220  9.751902 -4.252086
  C     6.616205  9.124112 -3.626516
  N     7.665904  5.376611 -4.818666
  N     5.553233  6.513307 -5.638038
  N     5.074770  5.573910 -1.933620
  N     7.595771  8.920812 -4.459011
  N     5.626385 10.061134 -5.537158
  N     4.990394  9.824143 -1.689801
  S     7.072007  6.010031 -6.203889
  S     4.280230  6.394781 -3.249875
  S     6.688514  5.245802 -2.205634
  S     7.128657  9.447082 -5.923474
  S     4.151397 10.091517 -3.100619
  S     6.464598  9.064644 -1.976874
