16  
    
  C     5.499146  5.682058 -4.292359
  C     6.713376  5.389397 -3.640783
  C     5.440514  9.294275 -4.310746
  C     6.667050  8.944865 -3.681963
  N     7.796088  5.242472 -4.409903
  N     5.533091  5.863725 -5.624597
  N     4.940522  5.584750 -1.731776
  N     7.731001  8.965974 -4.483866
  N     5.551761  9.423364 -5.671600
  N     5.029694  9.300301 -1.739949
  S     7.148430  5.522998 -5.966041
  S     4.187263  5.899683 -3.146897
  S     6.555566  5.183048 -1.890941
  S     7.167123  9.250422 -6.043738
  S     4.184082  9.598494 -3.177986
  S     6.584806  8.662240 -1.957771
