16  
    
  C     5.745473  5.778387 -4.357160
  C     6.935351  5.210380 -3.711362
  C     5.491253  9.439311 -4.450768
  C     6.571373  8.714333 -3.791495
  N     7.900936  4.856049 -4.570805
  N     5.810721  5.972500 -5.695615
  N     5.186166  5.494268 -1.808364
  N     7.638850  8.404727 -4.524703
  N     5.778646  9.679665 -5.713853
  N     4.852367  9.162751 -1.947930
  S     7.355446  5.436515 -6.022899
  S     4.460153  6.048312 -3.203314
  S     6.835724  5.072767 -1.942388
  S     7.268311  9.095055 -6.011384
  S     4.135072  9.717058 -3.369723
  S     6.407664  8.660882 -2.049923
