16  
    
  C     5.484537  5.322311 -4.234017
  C     6.743750  5.055439 -3.604003
  C     5.680131  9.280718 -4.168555
  C     6.855892  8.687819 -3.560213
  N     7.787813  4.990458 -4.432755
  N     5.552575  5.370597 -5.559967
  N     4.976295  5.306729 -1.705090
  N     7.882489  8.491033 -4.384447
  N     5.803046  9.533024 -5.464702
  N     5.260442  9.239199 -1.567402
  S     7.202259  5.268603 -5.970795
  S     4.114949  5.455463 -3.127918
  S     6.601976  4.946587 -1.876605
  S     7.396211  8.987448 -5.888118
  S     4.365239  9.477165 -2.990264
  S     6.731826  8.545760 -1.845949
