16  
    
  C     5.547587  5.900230 -4.493364
  C     6.703738  5.325835 -3.785484
  C     5.460833  9.692293 -4.215010
  C     6.657766  9.108921 -3.653917
  N     7.748372  5.007950 -4.547490
  N     5.747475  6.143303 -5.805563
  N     4.853837  5.637845 -2.016241
  N     7.664114  9.040668 -4.511859
  N     5.600894 10.031107 -5.513158
  N     5.104654  9.251676 -1.674616
  S     7.276102  5.548120 -6.061404
  S     4.206152  6.142176 -3.475648
  S     6.449511  5.120595 -2.114305
  S     7.094944  9.421518 -5.996226
  S     4.264431  9.763852 -2.932292
  S     6.699080  8.754369 -2.008160
