16  
    
  C     5.553308  5.856825 -4.086677
  C     6.778477  5.399905 -3.432134
  C     5.466656  8.899046 -4.092051
  C     6.734919  8.605312 -3.459555
  N     7.718632  5.115776 -4.298871
  N     5.551486  5.872457 -5.414181
  N     4.982166  5.525911 -1.602323
  N     7.772754  8.381379 -4.274231
  N     5.489628  8.895685 -5.438741
  N     5.111356  8.994600 -1.513758
  S     7.107298  5.459743 -5.813696
  S     4.226074  5.974452 -2.987087
  S     6.531390  4.869445 -1.777324
  S     7.094613  8.567589 -5.850704
  S     4.236996  9.068350 -2.941158
  S     6.747874  8.710156 -1.719943
