16  
    
  C     5.748536  5.895133 -4.397960
  C     6.972546  5.360759 -3.922347
  C     5.687970  9.208487 -4.066152
  C     6.928750  8.591696 -3.652074
  N     7.966295  5.373938 -4.813212
  N     5.721972  6.208592 -5.708059
  N     5.273301  5.140196 -1.939861
  N     7.894344  8.619541 -4.538745
  N     5.692559  9.619275 -5.336704
  N     5.473857  8.836198 -1.460969
  S     7.278952  6.025026 -6.244088
  S     4.507111  5.793911 -3.253263
  S     6.857112  4.812091 -2.260220
  S     7.292807  9.295898 -5.931546
  S     4.539372  9.407236 -2.720305
  S     7.033202  8.389657 -1.924669
