16  
    
  C     5.551678  6.247966 -4.465593
  C     6.752905  5.818931 -3.729348
  C     5.661572  9.617726 -4.414052
  C     6.799183  9.173212 -3.722256
  N     7.782858  5.483763 -4.479295
  N     5.675571  6.323188 -5.771048
  N     4.877786  6.066642 -1.915420
  N     7.810726  8.942196 -4.544812
  N     5.767326  9.712665 -5.728497
  N     5.075415  9.585700 -1.876175
  S     7.222326  5.844309 -6.089346
  S     4.245491  6.517301 -3.376448
  S     6.503426  5.788155 -2.016861
  S     7.271950  9.266550 -6.125440
  S     4.305141  9.861838 -3.384580
  S     6.611997  9.104216 -2.012930
