16  
    
  C     5.622162  6.089541 -4.487604
  C     6.827537  5.623379 -3.757296
  C     5.601352  9.722657 -4.387218
  C     6.789372  9.215275 -3.702996
  N     7.884923  5.443092 -4.526975
  N     5.803444  6.260166 -5.770353
  N     4.987260  5.906806 -2.038963
  N     7.805382  8.957393 -4.534177
  N     5.768613  9.828566 -5.693447
  N     4.812531  9.366494 -1.942493
  S     7.340403  5.833939 -6.147096
  S     4.198929  6.275714 -3.500572
  S     6.624906  5.498502 -2.052514
  S     7.354063  9.518020 -6.082675
  S     4.175365  9.903691 -3.395511
  S     6.477235  8.972735 -2.029303
