16  
    
  C     5.416387  5.942833 -4.290991
  C     6.611459  5.503294 -3.697333
  C     5.386899  9.362750 -4.375948
  C     6.676908  9.042353 -3.816970
  N     7.664861  5.378226 -4.511298
  N     5.455507  6.144607 -5.610036
  N     4.848018  5.556845 -1.818249
  N     7.666009  8.866429 -4.670364
  N     5.465164  9.517162 -5.689507
  N     4.972527  9.588211 -1.858628
  S     7.046172  5.756806 -6.021974
  S     4.041011  6.068530 -3.199528
  S     6.487636  5.340755 -1.977938
  S     6.949949  9.229913 -6.179554
  S     4.068752  9.674980 -3.286098
  S     6.595605  9.211505 -2.073561
