16  
    
  C     5.537857  6.609699 -4.523565
  C     6.677500  6.004593 -3.879642
  C     5.607320 10.146581 -4.438913
  C     6.721100  9.591775 -3.777487
  N     7.686193  5.687789 -4.666171
  N     5.710119  6.794941 -5.784934
  N     4.926334  6.569799 -2.041012
  N     7.748368  9.328213 -4.565540
  N     5.793061 10.379233 -5.731423
  N     4.836710  9.880915 -2.048475
  S     7.133525  6.189204 -6.284632
  S     4.200555  7.026809 -3.472562
  S     6.479258  5.945336 -2.121410
  S     7.323224  9.779590 -6.109973
  S     4.234840 10.425171 -3.477928
  S     6.520509  9.586612 -1.997877
