16  
    
  C     5.325839  6.344384 -4.368402
  C     6.518432  5.798236 -3.716796
  C     5.513435  9.638014 -4.408877
  C     6.712407  9.266653 -3.774953
  N     7.473089  5.422684 -4.565714
  N     5.377026  6.416602 -5.684624
  N     4.648616  6.040126 -1.896725
  N     7.863276  9.177063 -4.497334
  N     5.719541  9.748031 -5.733862
  N     4.902634  9.584665 -1.877873
  S     6.863130  5.861712 -6.086409
  S     4.003260  6.764890 -3.217026
  S     6.264024  5.534705 -2.001949
  S     7.300297  9.425616 -6.075030
  S     4.144373  9.751431 -3.364801
  S     6.437965  8.949817 -2.097996
