16  
    
  C     5.609161  6.011601 -4.531735
  C     6.795204  5.558197 -3.850031
  C     5.538836  9.880662 -4.374776
  C     6.744768  9.274033 -3.800904
  N     7.790615  5.323672 -4.670863
  N     5.826138  6.264344 -5.823758
  N     4.961432  5.809810 -2.018054
  N     7.811622  9.008327 -4.557827
  N     5.738884 10.049335 -5.672339
  N     4.915319  9.326546 -1.884833
  S     7.381892  5.805217 -6.215035
  S     4.198751  6.135210 -3.467323
  S     6.607090  5.289552 -2.135322
  S     7.368210  9.631170 -6.022621
  S     4.154614  9.874904 -3.279725
  S     6.544939  8.918043 -2.122923
