16  
    
  C     5.100708  5.877564 -4.297633
  C     6.336287  5.484994 -3.678827
  C     5.463680  9.399049 -4.042278
  C     6.674698  8.867757 -3.437228
  N     7.326218  5.217959 -4.517571
  N     5.228894  6.012122 -5.606230
  N     4.598162  5.877115 -1.787819
  N     7.600506  8.626503 -4.330059
  N     5.474466  9.490368 -5.378225
  N     5.097519  9.544465 -1.458851
  S     6.783876  5.659767 -6.020721
  S     3.769997  6.210482 -3.202223
  S     6.200392  5.485700 -1.908848
  S     6.951668  8.984093 -5.906620
  S     4.269290  9.926208 -2.839009
  S     6.576623  8.753011 -1.681128
