16  
    
  C     5.206970  6.211198 -4.346195
  C     6.214299  5.555751 -3.603949
  C     5.692938  9.632056 -4.213751
  C     6.903704  9.052424 -3.596838
  N     7.248494  5.095293 -4.335141
  N     5.462628  6.448168 -5.646463
  N     4.432154  6.267201 -1.856046
  N     7.928170  8.972361 -4.436329
  N     5.776491  9.847997 -5.510668
  N     5.188187  9.392556 -1.714546
  S     6.934275  5.749196 -5.884989
  S     3.842484  6.754503 -3.284212
  S     5.872528  5.424296 -1.897752
  S     7.328375  9.377911 -5.990929
  S     4.425889  9.947502 -3.075425
  S     6.735328  8.824022 -1.818701
