16  
    
  C     5.690498  5.646991 -4.236750
  C     6.899652  5.232900 -3.672984
  C     5.543334  9.400671 -4.410296
  C     6.627779  8.674063 -3.819329
  N     7.870977  5.117209 -4.544970
  N     5.720935  5.907977 -5.544318
  N     5.284975  5.191393 -1.719286
  N     7.721975  8.501889 -4.567294
  N     5.817034  9.826571 -5.631524
  N     4.714493  8.889179 -2.003860
  S     7.304352  5.536396 -6.026538
  S     4.369629  5.605268 -3.051094
  S     6.886374  4.898222 -1.958935
  S     7.284167  9.265364 -6.052710
  S     4.154316  9.592213 -3.445957
  S     6.296831  8.414062 -2.098325
