16  
    
  C     5.471434  5.628578 -4.231023
  C     6.631081  5.139722 -3.587086
  C     5.522028  9.291709 -4.156442
  C     6.757325  8.911870 -3.518286
  N     7.658255  4.908418 -4.377201
  N     5.615794  5.848644 -5.543348
  N     4.884104  5.373836 -1.716835
  N     7.811315  8.822881 -4.312080
  N     5.692856  9.594104 -5.428325
  N     4.948064  9.136328 -1.678059
  S     7.165248  5.407837 -5.918523
  S     4.158406  6.077628 -3.110521
  S     6.452285  4.832582 -1.897111
  S     7.237602  9.200418 -5.866277
  S     4.178083  9.418434 -3.089478
  S     6.521848  8.659882 -1.809454
