16  
    
  C     5.416990  6.018347 -4.196942
  C     6.629387  5.360414 -3.635492
  C     5.640236  9.677578 -4.563254
  C     6.703493  9.053322 -3.780101
  N     7.642226  5.214505 -4.506940
  N     5.526524  6.266613 -5.510321
  N     4.968665  5.741288 -1.643911
  N     7.825591  8.873038 -4.476069
  N     5.990072 10.068177 -5.778182
  N     4.800915  9.280147 -2.100256
  S     7.017706  5.755688 -5.952062
  S     4.190231  6.339648 -2.980908
  S     6.568530  5.207469 -1.894309
  S     7.612987  9.566724 -5.958314
  S     4.197945  9.917107 -3.517288
  S     6.415203  8.842631 -2.123425
