16  
    
  C     5.645864  5.785949 -4.309855
  C     6.934711  5.209884 -3.811937
  C     5.776012  9.768878 -4.456583
  C     6.997820  9.264173 -3.838819
  N     7.876005  5.022857 -4.732699
  N     5.698322  6.127304 -5.602251
  N     5.315408  5.293776 -1.752203
  N     8.047994  9.354730 -4.627994
  N     5.916214 10.089768 -5.734110
  N     5.070049  8.962010 -2.143288
  S     7.244990  5.777769 -6.093300
  S     4.413763  5.738479 -3.100575
  S     6.840374  4.765966 -2.163483
  S     7.528102  9.850199 -6.098048
  S     4.369209  9.867230 -3.376403
  S     6.738675  8.787362 -2.205988
