16  
    
  C     5.224356  6.398944 -4.338116
  C     6.384988  5.777276 -3.715433
  C     5.732509  9.530276 -4.305967
  C     6.918746  9.036295 -3.628573
  N     7.352215  5.500767 -4.567812
  N     5.342967  6.595553 -5.644738
  N     4.627764  5.936464 -1.881495
  N     7.926020  8.843562 -4.461407
  N     5.844896  9.772857 -5.632943
  N     5.373763  9.556944 -1.640658
  S     6.866399  6.042242 -6.063357
  S     3.936615  6.566672 -3.249721
  S     6.240224  5.581978 -2.047913
  S     7.413275  9.218377 -5.982158
  S     4.419532  9.787447 -3.079523
  S     6.910467  8.927101 -1.898285
