16  
    
  C     5.441498  6.097780 -4.150573
  C     6.653671  5.640360 -3.592244
  C     5.685006  9.591351 -4.438458
  C     6.827838  9.133791 -3.709723
  N     7.624861  5.443697 -4.456684
  N     5.455221  6.182729 -5.460756
  N     5.013555  5.675592 -1.679832
  N     7.908725  8.995040 -4.445635
  N     5.856136  9.818283 -5.750640
  N     4.851505  9.310798 -2.036156
  S     7.003831  5.782483 -5.976418
  S     4.213501  6.298958 -2.958252
  S     6.580193  5.233053 -1.906061
  S     7.508161  9.426907 -5.986298
  S     4.271724  9.950703 -3.464824
  S     6.450314  8.957339 -2.025687
