16  
    
  C     5.752028  5.473987 -4.222254
  C     6.961897  5.038759 -3.538782
  C     5.418199  9.363226 -4.648718
  C     6.614174  8.947404 -3.931729
  N     8.054318  4.933538 -4.319256
  N     5.899720  5.652527 -5.539752
  N     5.103103  5.244268 -1.759766
  N     7.629465  8.765458 -4.738720
  N     5.531976  9.360258 -6.001885
  N     4.819200  9.126638 -2.072592
  S     7.484021  5.299993 -5.854282
  S     4.377019  5.706240 -3.173513
  S     6.704372  4.710448 -1.823192
  S     7.150665  9.044620 -6.262784
  S     4.113385  9.716074 -3.529815
  S     6.401554  8.636155 -2.222224
