16  
    
  C     5.603425  5.551258 -4.008579
  C     6.872995  5.192499 -3.405197
  C     5.840012  9.363656 -3.867431
  C     7.124723  9.095851 -3.269654
  N     7.842894  4.878247 -4.232398
  N     5.651909  5.587186 -5.332676
  N     5.184338  5.462603 -1.520637
  N     8.137092  8.885960 -4.108556
  N     5.879082  9.401148 -5.218260
  N     5.326089  9.129222 -1.378335
  S     7.240706  5.221052 -5.755212
  S     4.258807  5.701313 -2.900979
  S     6.798584  5.018222 -1.706757
  S     7.486030  8.953688 -5.635716
  S     4.486470  9.547210 -2.737550
  S     6.933510  8.874437 -1.571858
