16  
    
  C     5.253997  6.418569 -4.579481
  C     6.446275  6.034087 -3.963381
  C     5.703270  9.679867 -4.429148
  C     6.977418  9.346609 -3.855983
  N     7.497734  5.857358 -4.748177
  N     5.318739  6.412803 -5.899883
  N     4.792022  6.348591 -2.116902
  N     8.014198  9.056317 -4.661286
  N     5.775691  9.666513 -5.757598
  N     5.373460  9.439481 -1.803082
  S     6.886790  6.025082 -6.299657
  S     4.017007  6.788752 -3.494102
  S     6.368914  5.951774 -2.266410
  S     7.402982  9.435327 -6.157789
  S     4.458685  9.775354 -3.205487
  S     6.902988  9.077847 -2.182916
