16  
    
  C     5.279509  5.920562 -4.396337
  C     6.492401  5.409767 -3.677720
  C     5.700593  9.658664 -4.208643
  C     6.758431  9.005402 -3.499765
  N     7.559382  5.167539 -4.452484
  N     5.533378  6.112006 -5.711661
  N     4.702817  5.810841 -1.844444
  N     7.804382  8.781183 -4.231285
  N     5.877303  9.894651 -5.476366
  N     4.852839  9.278668 -1.789671
  S     7.066225  5.645030 -5.966492
  S     3.963426  6.238098 -3.279748
  S     6.341641  5.298074 -1.918313
  S     7.392680  9.314074 -5.787539
  S     4.367733 10.023984 -3.234641
  S     6.436064  8.779325 -1.764985
