16  
    
  C     5.417549  5.482736 -4.205782
  C     6.585234  5.031781 -3.472897
  C     5.657818  8.946707 -4.005593
  C     6.886300  8.560443 -3.385925
  N     7.626855  4.746206 -4.210726
  N     5.592681  5.601795 -5.513142
  N     4.716601  5.388563 -1.734185
  N     7.867994  8.331912 -4.253490
  N     5.718678  9.086458 -5.348498
  N     5.328138  8.937881 -1.449174
  S     7.236744  5.300614 -5.750376
  S     4.018416  5.831666 -3.203123
  S     6.407132  5.202806 -1.712577
  S     7.307668  8.635242 -5.752655
  S     4.419134  9.096200 -2.816363
  S     6.825355  8.302803 -1.685414
