16  
    
  C     5.340528  5.939080 -4.494277
  C     6.550564  5.420878 -3.826001
  C     5.379553  9.524283 -4.450341
  C     6.505244  8.972490 -3.693174
  N     7.590441  5.122668 -4.624856
  N     5.494627  6.012414 -5.815231
  N     4.706680  5.700775 -2.057818
  N     7.469840  8.591118 -4.500088
  N     5.540640  9.620016 -5.754527
  N     4.711841  9.504929 -1.976475
  S     7.029274  5.415767 -6.173795
  S     4.000745  6.158023 -3.476717
  S     6.268619  5.212372 -2.131091
  S     7.035253  9.037027 -6.079404
  S     4.023486  9.962361 -3.408922
  S     6.278207  8.860211 -1.950447
