16  
    
  C     5.558034  5.635076 -4.256449
  C     6.679356  5.071535 -3.608413
  C     5.480207  9.276186 -4.194192
  C     6.700229  8.863570 -3.507069
  N     7.722582  5.019538 -4.423156
  N     5.629072  5.833235 -5.578185
  N     4.940137  5.562842 -1.757045
  N     7.753665  8.788237 -4.306504
  N     5.603544  9.362065 -5.522553
  N     4.917246  9.122424 -1.654956
  S     7.171953  5.325298 -5.938218
  S     4.306269  6.100947 -3.175194
  S     6.392459  4.819950 -1.887311
  S     7.239420  9.151443 -5.808613
  S     4.119279  9.442531 -3.130017
  S     6.493915  8.573961 -1.772833
