16  
    
  C     5.387640  5.704156 -4.273812
  C     6.682818  5.378833 -3.617624
  C     5.447887  9.272284 -4.297053
  C     6.699784  8.918192 -3.632622
  N     7.683553  5.190151 -4.474027
  N     5.530989  5.740869 -5.590680
  N     4.920602  5.598225 -1.721037
  N     7.722355  8.930629 -4.465325
  N     5.514787  9.417960 -5.572920
  N     5.015342  9.369321 -1.755841
  S     7.112494  5.561265 -5.980552
  S     4.100223  5.965749 -3.170448
  S     6.520872  5.185090 -1.919443
  S     7.090396  9.193248 -6.011453
  S     4.124549  9.602408 -3.162918
  S     6.562920  8.660570 -1.946609
