16  
    
  C     5.533040  6.059296 -4.717635
  C     6.706932  5.558982 -3.969871
  C     5.652707  9.852026 -4.357589
  C     6.828432  9.245423 -3.766794
  N     7.809289  5.454880 -4.698140
  N     5.793749  6.331982 -5.977747
  N     4.750570  5.740355 -2.247198
  N     7.871237  8.989757 -4.558409
  N     5.823325 10.208158 -5.636962
  N     4.932065  9.252634 -1.996718
  S     7.380899  5.944939 -6.255377
  S     4.055709  6.264814 -3.713083
  S     6.397765  5.317773 -2.336653
  S     7.340875  9.633403 -6.076375
  S     4.217241  9.740818 -3.425693
  S     6.515802  8.851032 -2.087916
