16  
    
  C     5.622817  5.945106 -4.503570
  C     6.749386  5.462111 -3.839941
  C     5.502397  9.709584 -4.336287
  C     6.724845  9.200771 -3.756208
  N     7.857944  5.376409 -4.573332
  N     5.724598  6.090897 -5.810029
  N     4.973070  5.719100 -2.073458
  N     7.806591  9.185906 -4.555120
  N     5.689306 10.123282 -5.586916
  N     4.912181  9.265503 -1.882857
  S     7.295541  5.733422 -6.160327
  S     4.282473  6.165311 -3.460092
  S     6.539716  5.163819 -2.199335
  S     7.254567  9.697142 -6.054672
  S     4.265519  9.920198 -3.212253
  S     6.610627  8.825770 -2.027767
