16  
    
  C     5.502398  5.848001 -4.487384
  C     6.738114  5.544252 -3.830021
  C     5.658361  9.443212 -4.074639
  C     6.881375  8.997714 -3.465115
  N     7.763895  5.398785 -4.663446
  N     5.602631  6.016891 -5.824863
  N     4.975235  5.661927 -1.933985
  N     7.865385  8.695939 -4.329719
  N     5.734971  9.477386 -5.419189
  N     5.061930  8.789174 -1.667170
  S     7.231473  5.790285 -6.176437
  S     4.144383  5.920302 -3.390889
  S     6.602084  5.500194 -2.085793
  S     7.220990  9.054320 -5.868578
  S     4.269253  9.220015 -3.005739
  S     6.704392  8.729921 -1.764825
