16  
    
  C     5.394057  5.561013 -4.464631
  C     6.514555  5.158273 -3.666619
  C     5.473272  9.048068 -4.224721
  C     6.756315  8.879941 -3.568858
  N     7.662739  5.021936 -4.354834
  N     5.595388  5.604157 -5.777696
  N     4.703016  5.721911 -1.978899
  N     7.789924  8.776754 -4.397112
  N     5.547930  8.893549 -5.540825
  N     5.143703  9.254174 -1.658447
  S     7.164831  5.288112 -5.937639
  S     4.021568  5.909554 -3.488659
  S     6.277224  5.131427 -1.976102
  S     7.149088  8.705178 -5.904983
  S     4.229142  9.346696 -3.047424
  S     6.779420  8.951995 -1.835760
