16  
    
  C     5.095970  5.918562 -4.339343
  C     6.325406  5.362655 -3.666675
  C     5.405374  9.456145 -4.034934
  C     6.620714  8.906554 -3.485603
  N     7.357849  5.216084 -4.488854
  N     5.205702  6.140867 -5.658552
  N     4.631207  5.832079 -1.761139
  N     7.539125  8.510143 -4.404271
  N     5.444873  9.558727 -5.396075
  N     5.044128  9.390097 -1.513007
  S     6.757901  5.572823 -6.020221
  S     3.846699  6.121469 -3.193131
  S     6.221709  5.436048 -1.950387
  S     6.928407  8.956078 -5.875242
  S     4.233105  9.854264 -2.892493
  S     6.587611  8.826263 -1.664103
