16  
    
  C     5.629178  5.725152 -4.348177
  C     6.849562  5.139422 -3.865107
  C     5.751423  9.894105 -4.497122
  C     6.900317  9.433909 -3.801866
  N     7.876809  5.023754 -4.701198
  N     5.721606  6.133365 -5.597375
  N     5.272243  5.470365 -1.788759
  N     7.946217  9.295149 -4.665172
  N     5.866013 10.173187 -5.803921
  N     4.968387  8.953378 -2.230203
  S     7.215356  5.627896 -6.157492
  S     4.341217  5.931895 -3.141816
  S     6.836280  4.917419 -2.065075
  S     7.435400  9.750478 -6.158409
  S     4.273237  9.544711 -3.576666
  S     6.602473  8.869769 -2.238591
