16  
    
  C     5.640563  5.701451 -4.270234
  C     6.740024  5.064466 -3.606521
  C     5.420052  9.297362 -4.206016
  C     6.612658  8.740993 -3.567914
  N     7.726459  4.647215 -4.404006
  N     5.894967  6.001680 -5.543881
  N     5.004097  5.493306 -1.764343
  N     7.541338  8.301594 -4.389061
  N     5.525222  9.449682 -5.523180
  N     4.838766  9.028897 -1.720512
  S     7.319587  5.260262 -5.948245
  S     4.342800  6.056501 -3.177441
  S     6.590968  4.965622 -1.899742
  S     7.030279  8.821747 -5.918812
  S     4.099626  9.516915 -3.128649
  S     6.405552  8.524506 -1.837372
