16  
    
  C     5.456085  5.617421 -4.260614
  C     6.662507  5.105980 -3.596900
  C     5.509640  9.259190 -4.191327
  C     6.725774  8.900302 -3.480533
  N     7.715936  4.996577 -4.384364
  N     5.632804  5.846691 -5.549911
  N     4.888280  5.524168 -1.780575
  N     7.787731  8.796529 -4.286276
  N     5.608629  9.448617 -5.507278
  N     4.920129  9.144302 -1.677392
  S     7.165655  5.344296 -5.940948
  S     4.287796  6.085569 -3.151589
  S     6.417520  4.815542 -1.888751
  S     7.242957  9.171134 -5.836284
  S     4.126991  9.432938 -3.114009
  S     6.512837  8.592659 -1.780246
