16  
    
  C     5.109126  6.294516 -4.523359
  C     6.380248  5.995105 -3.912050
  C     5.359935  9.658671 -4.231340
  C     6.649951  9.285008 -3.662488
  N     7.445886  5.935970 -4.694270
  N     5.224897  6.528094 -5.823108
  N     4.592206  5.976258 -2.007089
  N     7.626998  9.301442 -4.522111
  N     5.434624  9.957755 -5.506400
  N     5.104095  9.251176 -1.700657
  S     6.797510  6.371715 -6.250733
  S     3.765318  6.365618 -3.416987
  S     6.248350  5.824199 -2.178630
  S     7.009857  9.688735 -5.989386
  S     4.156365  9.534578 -3.020931
  S     6.683916  8.955269 -1.934971
