16  
    
  C     5.190157  6.385616 -4.361808
  C     6.369371  5.789956 -3.667270
  C     5.843199  9.615937 -4.167384
  C     7.010985  9.049049 -3.607339
  N     7.393982  5.550603 -4.492916
  N     5.357364  6.631373 -5.676495
  N     4.529725  5.860286 -1.922898
  N     7.952639  8.701102 -4.462463
  N     5.895946  9.711636 -5.475389
  N     5.426029  9.636082 -1.722919
  S     6.838130  6.015935 -5.993336
  S     3.848092  6.650283 -3.236468
  S     6.127309  5.517547 -1.989823
  S     7.380922  9.225679 -5.980278
  S     4.578544  9.814939 -3.044638
  S     6.905916  8.935790 -1.890329
