16  
    
  C     5.553406  6.044611 -4.292173
  C     6.706352  5.464876 -3.595199
  C     5.849738  9.638686 -4.237239
  C     7.065845  9.118761 -3.641822
  N     7.749206  5.232281 -4.381122
  N     5.706200  6.250886 -5.628818
  N     5.067181  6.123027 -1.757208
  N     8.065419  8.888725 -4.488634
  N     5.949353  9.806300 -5.519296
  N     5.317703  9.492908 -1.703858
  S     7.211271  5.600858 -5.890839
  S     4.318140  6.565234 -3.172087
  S     6.517360  5.274851 -1.833719
  S     7.460531  9.373436 -6.002221
  S     4.579384  9.988845 -3.116801
  S     6.942346  9.068820 -1.861329
