16  
    
  C     5.699920  5.880063 -4.383775
  C     6.919856  5.408864 -3.853140
  C     5.856902  9.589562 -3.869009
  C     7.087740  8.927448 -3.493677
  N     7.936403  5.300734 -4.697350
  N     5.734507  6.075135 -5.716811
  N     5.182460  5.267770 -1.913862
  N     7.981840  8.781856 -4.441004
  N     5.766979  9.846748 -5.163887
  N     5.416685  8.830593 -1.499332
  S     7.326032  5.711905 -6.217220
  S     4.373068  5.782965 -3.259391
  S     6.816787  5.030059 -2.208376
  S     7.215083  9.276432 -5.842652
  S     4.530358  9.509025 -2.795557
  S     6.999588  8.373584 -1.843996
