16  
    
  C     5.735891  5.715406 -4.344336
  C     6.915071  5.184569 -3.685094
  C     5.239085  9.782534 -4.592621
  C     6.366235  9.210430 -3.899618
  N     7.926946  4.956972 -4.512164
  N     5.817912  5.883769 -5.645085
  N     5.176279  5.515831 -1.779992
  N     7.357379  8.930012 -4.757123
  N     5.342518  9.951044 -5.908288
  N     4.530169  9.700255 -2.154199
  S     7.315155  5.373789 -6.087325
  S     4.404490  5.890611 -3.214986
  S     6.768378  5.126626 -1.940944
  S     6.854213  9.348904 -6.309457
  S     3.913757 10.299054 -3.627664
  S     6.106889  9.171017 -2.233665
