16  
    
  C     5.514063  6.037629 -4.214720
  C     6.573968  5.282456 -3.683166
  C     5.733211  9.876723 -4.445199
  C     6.785279  9.129827 -3.810599
  N     7.549730  4.910250 -4.523357
  N     5.618520  6.295875 -5.511272
  N     4.975392  5.880018 -1.691225
  N     7.846535  8.927768 -4.603301
  N     5.989788 10.343121 -5.650543
  N     4.684537  9.123895 -2.269908
  S     7.033967  5.609119 -5.942745
  S     4.153035  6.210512 -3.103845
  S     6.448739  5.021581 -1.932793
  S     7.473212  9.682716 -6.084835
  S     4.174745  9.987942 -3.634630
  S     6.292099  8.707839 -2.186330
