16  
    
  C     5.573862  5.884264 -4.450151
  C     6.838072  5.511652 -3.876852
  C     5.721080  9.382436 -4.273408
  C     6.961675  9.085734 -3.602844
  N     7.868724  5.451947 -4.698729
  N     5.615574  6.082868 -5.768394
  N     5.114229  5.507684 -1.891248
  N     7.971125  9.091382 -4.496032
  N     5.720645  9.684456 -5.582179
  N     5.259315  9.188999 -1.735726
  S     7.217280  5.873431 -6.178465
  S     4.347580  6.112666 -3.228520
  S     6.734579  5.135865 -2.135888
  S     7.357717  9.403680 -6.015716
  S     4.403337  9.430503 -3.194811
  S     6.847305  8.646722 -1.901612
