16  
    
  C     5.275307  6.312685 -4.486239
  C     6.370586  5.681297 -3.817936
  C     5.423949  9.566448 -4.153550
  C     6.690349  9.280343 -3.440578
  N     7.426344  5.512120 -4.656395
  N     5.440843  6.534339 -5.804085
  N     4.580026  5.870689 -2.039928
  N     7.739017  9.158875 -4.251276
  N     5.554811  9.693612 -5.495264
  N     4.960484  9.330612 -1.585450
  S     6.999651  6.012782 -6.134218
  S     3.865119  6.486939 -3.440611
  S     6.224354  5.485415 -2.115118
  S     7.174901  9.522662 -5.777014
  S     4.014568  9.493632 -3.001633
  S     6.509609  8.902672 -1.767413
