16  
    
  C     5.542465  5.670580 -4.738988
  C     6.790882  5.574646 -4.042100
  C     5.417305  9.682977 -4.219158
  C     6.654625  9.309018 -3.581515
  N     7.830051  5.693339 -4.820401
  N     5.561047  5.915958 -6.029309
  N     5.085703  5.307932 -2.122976
  N     7.742412  9.358689 -4.373206
  N     5.527441  9.978908 -5.532765
  N     4.819401  9.222121 -1.792346
  S     7.241726  5.824621 -6.407870
  S     4.246744  5.589580 -3.558711
  S     6.743758  5.407283 -2.325321
  S     7.106387  9.828745 -5.902466
  S     4.124632  9.803774 -3.141198
  S     6.445642  8.760109 -1.914262
