16  
    
  C     5.791970  5.621095 -4.237575
  C     7.096996  5.218648 -3.623211
  C     5.450344  9.344166 -4.407723
  C     6.502982  8.643430 -3.700858
  N     8.090522  5.092079 -4.488539
  N     5.840683  5.694479 -5.581184
  N     5.463428  5.186196 -1.654220
  N     7.554151  8.296385 -4.457161
  N     5.658470  9.443026 -5.721825
  N     4.784144  9.178807 -1.907603
  S     7.443801  5.509322 -5.997674
  S     4.511486  5.611781 -3.022386
  S     7.102771  4.891841 -1.902545
  S     7.114256  8.758534 -6.022386
  S     4.187782  9.857179 -3.328322
  S     6.375126  8.653252 -1.951310
