16  
    
  C     5.450211  5.881419 -4.397014
  C     6.706010  5.501623 -3.840370
  C     5.415947  9.689658 -4.583163
  C     6.578426  9.193289 -3.882891
  N     7.637874  5.152326 -4.715527
  N     5.465575  5.995416 -5.714039
  N     5.025123  5.700527 -1.829232
  N     7.559211  8.839390 -4.682119
  N     5.537091  9.781806 -5.915900
  N     4.821759  9.409192 -2.119373
  S     6.984227  5.477993 -6.210912
  S     4.173923  6.006238 -3.262451
  S     6.614526  5.296492 -2.109795
  S     7.050973  9.199280 -6.248547
  S     4.010803  9.787571 -3.551009
  S     6.508967  9.220756 -2.179637
