16  
    
  C     5.491932  5.790239 -4.543735
  C     6.682612  5.601400 -3.860722
  C     5.256469  9.651318 -4.456105
  C     6.408533  9.235438 -3.749943
  N     7.770214  5.488822 -4.602937
  N     5.659415  5.866384 -5.860179
  N     4.917221  5.688183 -2.058712
  N     7.441750  8.865638 -4.506558
  N     5.366039  9.485022 -5.776592
  N     4.638881  9.829988 -1.963658
  S     7.311869  5.753189 -6.185805
  S     4.118383  5.969631 -3.486125
  S     6.497993  5.410888 -2.156256
  S     6.865711  8.885701 -6.024832
  S     3.889997 10.086621 -3.413358
  S     6.213469  9.297753 -2.071059
