16  
    
  C     5.575448  5.904504 -4.475405
  C     6.791925  5.671055 -3.835136
  C     5.411581  9.641027 -4.330302
  C     6.625498  9.138273 -3.762140
  N     7.816230  5.423473 -4.666785
  N     5.617774  5.983783 -5.807464
  N     4.970284  5.823295 -2.037985
  N     7.602721  8.810914 -4.587399
  N     5.449050  9.666415 -5.662512
  N     4.879801  9.471584 -1.870722
  S     7.206082  5.673403 -6.172895
  S     4.139980  5.913026 -3.411436
  S     6.593121  5.462689 -2.118549
  S     6.894956  9.186682 -6.111836
  S     4.107886  9.879398 -3.287470
  S     6.544272  9.280542 -2.025599
