16  
    
  C     5.628088  5.731608 -4.346674
  C     6.835674  5.061030 -3.829918
  C     5.724564  9.911994 -4.490594
  C     6.941885  9.478501 -3.819829
  N     7.846907  5.030737 -4.702771
  N     5.697297  6.163357 -5.618412
  N     5.289419  5.415945 -1.826549
  N     7.967009  9.309905 -4.591943
  N     5.918117 10.200841 -5.766174
  N     5.008659  8.915901 -2.223186
  S     7.220488  5.679449 -6.147629
  S     4.388008  5.883338 -3.135766
  S     6.842535  4.884545 -2.068812
  S     7.440836  9.760107 -6.163957
  S     4.314997  9.620806 -3.537775
  S     6.643938  8.829112 -2.215734
