16  
    
  C     5.323951  5.905006 -4.316705
  C     6.475035  5.362504 -3.666322
  C     5.631076  9.659022 -4.215859
  C     6.744523  9.074299 -3.470669
  N     7.524428  5.261328 -4.462302
  N     5.445336  6.087138 -5.623569
  N     4.780183  5.815452 -1.813165
  N     7.786365  8.790889 -4.241112
  N     5.861480  9.849102 -5.534193
  N     4.794802  9.271509 -1.762372
  S     7.046220  5.627295 -6.010194
  S     4.022675  6.244203 -3.251644
  S     6.319939  5.292707 -1.958861
  S     7.423058  9.349873 -5.786222
  S     4.309551  9.982480 -3.209207
  S     6.400610  8.766695 -1.813029
