16  
    
  C     5.656095  5.662258 -4.043857
  C     6.892719  5.133395 -3.476589
  C     5.860203  9.208229 -3.897875
  C     7.109546  8.800843 -3.305441
  N     7.837143  4.944940 -4.426111
  N     5.667158  5.755870 -5.370082
  N     5.189939  5.391008 -1.513481
  N     8.157773  8.758796 -4.174148
  N     5.952867  9.476990 -5.174320
  N     5.287650  9.129916 -1.369320
  S     7.243421  5.465932 -5.868763
  S     4.358666  5.968343 -2.851916
  S     6.775995  4.906268 -1.780193
  S     7.466310  9.208851 -5.674905
  S     4.499783  9.328669 -2.804725
  S     6.905025  8.766110 -1.545863
