16  
    
  C     5.900156  5.516978 -4.100363
  C     7.052326  4.961371 -3.409758
  C     5.681040  9.679212 -4.283229
  C     6.870038  9.092816 -3.734777
  N     8.172380  4.995580 -4.157221
  N     6.100908  5.745974 -5.386119
  N     5.060963  5.152653 -1.707958
  N     7.908635  9.129127 -4.585635
  N     5.766510  9.973614 -5.574964
  N     5.080611  8.887734 -1.889794
  S     7.676466  5.367179 -5.702941
  S     4.496550  5.853820 -3.139334
  S     6.598524  4.639018 -1.743571
  S     7.360322  9.738869 -5.991051
  S     4.338034  9.729725 -3.117470
  S     6.639142  8.484037 -2.137184
