16  
    
  C     5.689789  6.258778 -4.213309
  C     6.874769  5.635471 -3.637137
  C     5.956376  9.609312 -4.172504
  C     7.189048  9.137680 -3.623498
  N     7.870120  5.402572 -4.496059
  N     5.814594  6.553105 -5.487566
  N     5.092568  5.626150 -1.752649
  N     8.097495  8.789304 -4.550072
  N     5.941441  9.670027 -5.527661
  N     5.498479  9.565549 -1.637332
  S     7.286959  5.941778 -5.947308
  S     4.358093  6.376774 -3.060044
  S     6.737237  5.324325 -1.903186
  S     7.348918  9.176836 -6.047285
  S     4.635022  9.789580 -3.012382
  S     6.964605  8.781357 -1.945760
