16  
    
  C     5.660927  5.904203 -4.389501
  C     6.861270  5.456291 -3.726104
  C     5.910466  9.433297 -4.186953
  C     7.147550  8.988941 -3.569345
  N     7.991363  5.456873 -4.453554
  N     5.820364  6.244761 -5.656969
  N     5.030811  5.696170 -1.847287
  N     8.181150  8.704237 -4.382653
  N     5.991593  9.525717 -5.518676
  N     5.246458  9.272400 -1.759589
  S     7.412476  5.891913 -5.950679
  S     4.334184  6.264976 -3.250150
  S     6.591533  5.162376 -2.021747
  S     7.529394  9.020059 -5.960365
  S     4.516429  9.633601 -3.194717
  S     6.835295  8.704898 -1.898752
