16  
    
  C     5.583004  5.965632 -4.262984
  C     6.697464  5.299347 -3.639050
  C     5.936134  9.154421 -3.986854
  C     7.206309  8.777601 -3.391462
  N     7.696982  4.987914 -4.446016
  N     5.766227  6.186458 -5.554129
  N     4.907990  5.686851 -1.792198
  N     8.249393  8.702416 -4.280834
  N     5.983770  9.410161 -5.288602
  N     5.446100  8.978508 -1.544103
  S     7.190812  5.494883 -5.946027
  S     4.196693  6.189249 -3.211287
  S     6.489665  5.202944 -1.956580
  S     7.513049  9.187516 -5.759365
  S     4.580840  9.095928 -2.913315
  S     7.058026  8.432894 -1.676626
