16  
    
  C     5.522705  5.880289 -4.351967
  C     6.713312  5.299609 -3.766218
  C     5.698640  9.269026 -4.420052
  C     6.872982  8.850389 -3.730473
  N     7.638865  5.012812 -4.668025
  N     5.550849  5.973840 -5.681172
  N     5.036981  5.446097 -1.814356
  N     7.912008  8.600235 -4.549269
  N     5.827196  9.369367 -5.740657
  N     5.097510  9.069286 -1.886853
  S     7.034195  5.364245 -6.178713
  S     4.282380  6.174210 -3.115292
  S     6.635222  4.915758 -2.075711
  S     7.394683  8.885361 -6.044990
  S     4.366209  9.393731 -3.367528
  S     6.711462  8.712903 -2.011117
