16  
    
  C     5.359863  5.893017 -4.466901
  C     6.539780  5.343378 -3.815948
  C     5.361535  9.561354 -4.412116
  C     6.542369  9.039647 -3.750406
  N     7.555455  5.180813 -4.642937
  N     5.494878  6.003992 -5.765133
  N     4.748154  5.704342 -2.063778
  N     7.545659  8.608698 -4.550355
  N     5.505473  9.598309 -5.732092
  N     4.677870  9.524020 -1.945941
  S     7.004364  5.445824 -6.189888
  S     3.989517  6.166904 -3.452914
  S     6.280656  5.219441 -2.157015
  S     7.047583  9.004352 -6.109123
  S     4.054143  9.999100 -3.414080
  S     6.238875  8.863518 -1.962280
