16  
    
  C     5.210887  6.427165 -4.310460
  C     6.324771  5.775498 -3.726578
  C     5.741817  9.555038 -4.308282
  C     6.954289  9.043621 -3.619009
  N     7.324895  5.544033 -4.559869
  N     5.319146  6.604168 -5.602333
  N     4.577722  5.908019 -1.896549
  N     7.912791  8.797165 -4.474639
  N     5.858274  9.762535 -5.603238
  N     5.397477  9.586205 -1.645005
  S     6.874525  6.025400 -6.031896
  S     3.950524  6.577367 -3.265156
  S     6.215064  5.574181 -2.048327
  S     7.412153  9.213321 -5.958777
  S     4.471949  9.790741 -3.068509
  S     6.919590  8.928475 -1.896858
