16  
    
  C     5.169439  6.314359 -4.495317
  C     6.383793  5.840667 -3.885235
  C     5.430575  9.498743 -4.109863
  C     6.681395  9.243364 -3.464378
  N     7.402396  5.771442 -4.708410
  N     5.259446  6.493094 -5.784088
  N     4.544982  5.926942 -2.043547
  N     7.695495  9.312765 -4.332109
  N     5.433149  9.747086 -5.435214
  N     4.939001  9.114329 -1.570049
  S     6.824471  6.202870 -6.234086
  S     3.829440  6.503406 -3.402507
  S     6.133605  5.511989 -2.204139
  S     6.995427  9.588870 -5.809585
  S     4.102416  9.501558 -3.024748
  S     6.549462  8.957644 -1.721278
