16  
    
  C     5.362285  5.969116 -4.256922
  C     6.624358  5.471588 -3.649992
  C     5.454136  9.601204 -4.443883
  C     6.668682  9.187568 -3.792933
  N     7.599045  5.349723 -4.545680
  N     5.415567  6.242732 -5.568298
  N     4.975261  5.671200 -1.659928
  N     7.713052  8.910066 -4.519587
  N     5.678146  9.698447 -5.766984
  N     5.035297  9.720561 -1.873883
  S     7.021000  5.924505 -5.979711
  S     4.106113  6.066137 -3.066150
  S     6.589668  5.359619 -1.924352
  S     7.201375  9.222770 -6.068736
  S     4.171337  9.704417 -3.286919
  S     6.624543  9.191198 -2.067708
