16  
    
  C     5.573674  5.810255 -4.495131
  C     6.778677  5.535593 -3.845851
  C     5.094438  9.434115 -4.473349
  C     6.229174  9.018288 -3.713626
  N     7.835980  5.412385 -4.641239
  N     5.661664  5.918227 -5.813086
  N     4.956874  5.653848 -2.031602
  N     7.282034  8.782518 -4.498138
  N     5.217231  9.487915 -5.785234
  N     4.614765  9.999478 -1.954173
  S     7.247744  5.590572 -6.226928
  S     4.219567  5.887206 -3.462922
  S     6.594506  5.317108 -2.082990
  S     6.857048  9.035794 -6.046487
  S     3.862376 10.165276 -3.442998
  S     6.051068  9.260224 -1.975631
