16  
    
  C     5.707391  5.787129 -3.944081
  C     6.890396  5.289192 -3.335226
  C     5.492893  9.437296 -3.997952
  C     6.701491  8.953487 -3.377973
  N     7.848686  5.189546 -4.232254
  N     5.776780  6.162170 -5.215375
  N     5.040535  5.237474 -1.576811
  N     7.746678  8.838207 -4.182163
  N     5.681322  9.749290 -5.271103
  N     5.004523  9.111797 -1.458497
  S     7.368657  5.870064 -5.639779
  S     4.293934  5.908609 -2.931960
  S     6.634298  4.650724 -1.708475
  S     7.257959  9.299951 -5.630064
  S     4.278916  9.717428 -2.821237
  S     6.581225  8.535616 -1.696479
