16  
    
  C     5.499803  5.658039 -4.317572
  C     6.678077  5.033971 -3.679305
  C     5.536042  9.257224 -4.356166
  C     6.711439  8.770134 -3.701683
  N     7.727038  4.876375 -4.506640
  N     5.710356  5.934926 -5.588106
  N     4.987972  5.561766 -1.795024
  N     7.756621  8.657083 -4.501206
  N     5.646492  9.411664 -5.681968
  N     5.069546  9.147497 -1.809917
  S     7.261360  5.351254 -6.006187
  S     4.239517  6.025427 -3.208225
  S     6.555888  5.013707 -1.904899
  S     7.290866  9.118955 -5.986367
  S     4.222628  9.533229 -3.193191
  S     6.584128  8.596002 -2.006719
