16  
    
  C     5.656302  5.793609 -4.214124
  C     6.968498  5.437734 -3.568928
  C     5.639581  9.519363 -4.283334
  C     6.878515  9.017680 -3.758828
  N     7.951165  5.175560 -4.436391
  N     5.703378  5.932763 -5.543293
  N     5.097419  5.479036 -1.734335
  N     7.909410  8.920084 -4.611872
  N     5.749896  9.764508 -5.613407
  N     5.045690  8.958146 -1.913545
  S     7.284178  5.608475 -5.956545
  S     4.268651  5.715151 -3.144169
  S     6.770832  5.119826 -1.879146
  S     7.268865  9.379310 -6.094501
  S     4.265756  9.628159 -3.289691
  S     6.732711  8.798115 -2.034895
