16  
    
  C     5.622528  5.523230 -4.026563
  C     6.812828  5.067603 -3.405303
  C     5.812388  9.454880 -3.927928
  C     7.030763  9.088639 -3.250733
  N     7.825654  4.969278 -4.260686
  N     5.643093  5.685360 -5.335605
  N     5.203989  5.510034 -1.503792
  N     8.082962  8.868805 -4.033123
  N     5.945073  9.404219 -5.248705
  N     5.336225  9.152203 -1.351224
  S     7.201153  5.278815 -5.728148
  S     4.377605  5.764862 -2.917258
  S     6.780003  4.994744 -1.691173
  S     7.495567  8.997177 -5.580849
  S     4.490472  9.478127 -2.762770
  S     7.020723  8.844808 -1.547912
