16  
    
  C     5.678862  5.885998 -4.490497
  C     6.885663  5.451256 -3.846091
  C     5.520818  9.459805 -4.325927
  C     6.789573  9.133738 -3.693273
  N     7.872663  5.127861 -4.704883
  N     5.800164  5.948753 -5.801869
  N     5.142243  5.525688 -2.002079
  N     7.778145  9.241833 -4.521678
  N     5.602570  9.747428 -5.621580
  N     5.117619  9.034832 -1.748190
  S     7.359492  5.511453 -6.244489
  S     4.372046  6.030156 -3.394190
  S     6.745803  5.304764 -2.134758
  S     7.187805  9.616572 -6.005436
  S     4.243164  9.338213 -3.123364
  S     6.790768  8.796585 -1.939816
