16  
    
  C     5.524477  6.606272 -4.527221
  C     6.680451  6.030034 -3.884955
  C     5.598395 10.149302 -4.432256
  C     6.715898  9.566369 -3.795404
  N     7.690135  5.707526 -4.683880
  N     5.707641  6.789649 -5.781833
  N     4.944331  6.558359 -2.044503
  N     7.774138  9.300332 -4.568941
  N     5.796527 10.384932 -5.743895
  N     4.860120  9.880970 -2.063520
  S     7.146047  6.190541 -6.281583
  S     4.215168  7.041376 -3.471263
  S     6.487547  5.943438 -2.129098
  S     7.315808  9.764673 -6.119127
  S     4.233349 10.446468 -3.494335
  S     6.520383  9.589932 -1.997009
