16  
    
  C     5.361036  6.003159 -4.411300
  C     6.632313  5.637823 -3.770946
  C     5.689145  9.710087 -4.400122
  C     6.853281  9.098822 -3.819890
  N     7.683605  5.459540 -4.558213
  N     5.491269  6.149545 -5.718919
  N     4.908201  5.924432 -1.886739
  N     7.907716  8.871148 -4.564746
  N     5.888219  9.903745 -5.666772
  N     5.108555  9.488094 -1.907976
  S     7.076162  5.747099 -6.102226
  S     4.083876  6.355306 -3.248176
  S     6.459313  5.333777 -2.019873
  S     7.382441  9.269674 -6.138064
  S     4.355152 10.058922 -3.376259
  S     6.613560  8.846282 -2.111646
