16  
    
  C     5.518501  6.147617 -4.402962
  C     6.725038  5.652985 -3.797942
  C     5.488699  9.802350 -4.216230
  C     6.653912  9.270103 -3.559962
  N     7.731709  5.478700 -4.638070
  N     5.692317  6.504683 -5.652569
  N     4.991040  5.690100 -1.895377
  N     7.599158  8.993769 -4.469841
  N     5.482792  9.889838 -5.567961
  N     4.881734  9.515743 -1.668924
  S     7.280081  5.972692 -6.147888
  S     4.270361  6.359164 -3.240143
  S     6.505940  5.187393 -2.135818
  S     7.067517  9.423269 -5.950280
  S     4.132539  9.988063 -3.086726
  S     6.546090  9.047871 -1.807818
