16  
    
  C     5.570171  5.928951 -4.423558
  C     6.817149  5.642343 -3.821041
  C     5.775779  9.446183 -4.359049
  C     7.012811  9.132724 -3.711637
  N     7.881034  5.579991 -4.645107
  N     5.640519  6.106508 -5.745769
  N     4.978309  5.476155 -1.981611
  N     8.114505  9.064103 -4.506322
  N     5.873133  9.574881 -5.683790
  N     5.337979  9.373415 -1.775011
  S     7.230694  5.848342 -6.152229
  S     4.232446  6.025225 -3.349469
  S     6.616408  5.257831 -2.126335
  S     7.488538  9.311072 -6.057482
  S     4.468214  9.527881 -3.206226
  S     6.903817  8.941275 -1.962243
