16  
    
  C     5.389923  5.185884 -3.876755
  C     6.615434  4.923952 -3.181964
  C     5.380620  9.391326 -4.122913
  C     6.579544  8.897293 -3.493074
  N     7.679181  4.893888 -3.998948
  N     5.546934  5.405538 -5.196202
  N     4.771512  5.155197 -1.385978
  N     7.591401  8.655822 -4.300270
  N     5.559554  9.595209 -5.415926
  N     4.651345  9.070048 -1.734645
  S     7.142268  5.154014 -5.509333
  S     4.003688  5.239596 -2.857184
  S     6.364561  4.830992 -1.535890
  S     7.017619  9.112026 -5.785462
  S     4.013822  9.665281 -3.166349
  S     6.287136  8.776890 -1.754867
