16  
    
  C     5.737883  5.708760 -4.192233
  C     6.856647  5.017960 -3.538145
  C     5.412948  9.322938 -4.210376
  C     6.528124  8.621128 -3.643930
  N     7.796155  4.698652 -4.449611
  N     5.791943  5.806210 -5.522714
  N     4.989196  5.457551 -1.766143
  N     7.509547  8.317874 -4.467316
  N     5.573598  9.486494 -5.519842
  N     4.858012  9.121213 -1.689075
  S     7.328560  5.267183 -5.940995
  S     4.304704  5.994392 -3.180162
  S     6.573262  4.921677 -1.823843
  S     6.991261  8.778356 -5.972847
  S     4.107053  9.551486 -3.097833
  S     6.410198  8.497843 -1.921107
