16  
    
  C     5.364242  5.492913 -4.368650
  C     6.495789  4.888329 -3.747745
  C     5.586707  9.320696 -4.371675
  C     6.653954  8.516722 -3.791115
  N     7.534093  4.807029 -4.555612
  N     5.487982  5.858497 -5.637968
  N     4.723007  5.105575 -1.841630
  N     7.683377  8.275535 -4.582139
  N     5.790826  9.596207 -5.663968
  N     4.843242  8.545151 -1.991835
  S     7.063621  5.289175 -6.064496
  S     4.060936  5.573794 -3.265545
  S     6.292537  4.658924 -2.022772
  S     7.351897  8.993666 -6.073560
  S     4.316519  9.601747 -3.204713
  S     6.418451  8.037101 -2.102823
