16  
    
  C     5.541579  5.331449 -4.170601
  C     6.822572  5.148089 -3.500817
  C     5.358421  9.214431 -4.374247
  C     6.578329  8.736334 -3.771669
  N     7.851318  4.961141 -4.353785
  N     5.634366  5.337993 -5.499570
  N     4.952683  5.221950 -1.651954
  N     7.535997  8.495532 -4.673301
  N     5.418960  9.358879 -5.687293
  N     4.899539  9.032960 -1.837312
  S     7.240655  5.141830 -5.846555
  S     4.227551  5.484794 -3.104578
  S     6.590235  4.903357 -1.752371
  S     6.926218  8.801825 -6.132545
  S     4.169859  9.724985 -3.142678
  S     6.462514  8.497430 -2.049112
