16  
    
  C     5.582683  5.610965 -4.399279
  C     6.819620  5.366244 -3.678995
  C     5.698496  9.512852 -4.131927
  C     6.846637  8.855435 -3.551477
  N     7.863954  5.128245 -4.490681
  N     5.747224  5.441827 -5.741496
  N     5.058597  5.732779 -1.849668
  N     7.852770  8.793505 -4.403971
  N     5.817105  9.878354 -5.402445
  N     5.118359  9.159764 -1.625074
  S     7.367315  5.096110 -6.043287
  S     4.215550  5.826889 -3.341721
  S     6.672642  5.268414 -1.948377
  S     7.344811  9.434774 -5.836839
  S     4.352926  9.574758 -3.056855
  S     6.706291  8.633863 -1.805361
