16  
    
  C     5.514172  5.244829 -4.152320
  C     6.812717  5.025333 -3.501967
  C     5.407610  9.356613 -4.406059
  C     6.609056  8.803441 -3.812195
  N     7.839283  4.957784 -4.336923
  N     5.622654  5.400639 -5.468592
  N     5.026011  5.210359 -1.639715
  N     7.548217  8.413468 -4.663111
  N     5.420588  9.373537 -5.742362
  N     4.913499  9.077381 -1.865823
  S     7.145474  5.118259 -5.919632
  S     4.174653  5.189238 -3.092634
  S     6.694151  5.043864 -1.752023
  S     6.932396  8.801551 -6.160300
  S     4.126314  9.608475 -3.271670
  S     6.474450  8.566439 -2.100480
