16  
    
  C     5.554457  5.610810 -4.302590
  C     6.664529  5.037184 -3.650151
  C     5.508982  9.271379 -4.299881
  C     6.725801  8.756645 -3.689288
  N     7.759762  4.947496 -4.374820
  N     5.736239  5.858236 -5.611191
  N     4.979206  5.622612 -1.773343
  N     7.777763  8.653163 -4.501896
  N     5.653446  9.394627 -5.615821
  N     4.984043  9.125058 -1.790105
  S     7.265926  5.337026 -5.922765
  S     4.242398  6.041574 -3.207004
  S     6.543165  5.005433 -1.957923
  S     7.260505  9.147147 -5.959457
  S     4.199353  9.563114 -3.187244
  S     6.559689  8.572705 -1.953048
