16  
    
  C     5.607917  6.091607 -4.315009
  C     6.767192  5.512587 -3.695949
  C     5.602788  9.550688 -4.262615
  C     6.897204  9.097473 -3.677740
  N     7.747479  5.238109 -4.555945
  N     5.732322  6.339379 -5.610995
  N     4.917236  5.760388 -1.888431
  N     7.876727  9.046555 -4.528817
  N     5.674823  9.681770 -5.565150
  N     5.224508  9.319499 -1.727609
  S     7.313320  5.863728 -6.052345
  S     4.292287  6.429276 -3.304796
  S     6.438763  5.080873 -2.046297
  S     7.230135  9.295736 -5.997978
  S     4.287082  9.792247 -3.096244
  S     6.821609  8.840393 -1.987713
