16  
    
  C     5.291923  6.309083 -4.339503
  C     6.237874  5.475250 -3.592277
  C     5.643081  9.689918 -4.183448
  C     6.810622  9.134238 -3.586633
  N     7.241370  4.998027 -4.324796
  N     5.533317  6.432232 -5.660365
  N     4.432562  6.208337 -1.911078
  N     7.782565  8.835160 -4.388681
  N     5.773632  9.958735 -5.447290
  N     5.053486  9.404837 -1.699162
  S     6.864929  5.529064 -5.886580
  S     3.868789  6.753778 -3.390386
  S     5.989460  5.488329 -1.878217
  S     7.268807  9.455831 -5.895285
  S     4.248795  9.780599 -3.130815
  S     6.576884  8.863218 -1.892679
