16  
    
  C     5.803400  6.089080 -4.385732
  C     6.998913  5.575234 -3.701865
  C     5.806852  9.542395 -4.385067
  C     6.921888  8.949728 -3.682341
  N     8.075092  5.326950 -4.480469
  N     5.992737  6.330591 -5.681495
  N     5.086708  5.812444 -1.933607
  N     7.925471  8.607845 -4.492938
  N     5.947189  9.717436 -5.704213
  N     5.188535  9.321855 -1.874617
  S     7.560448  5.892246 -5.951863
  S     4.354980  6.099795 -3.387335
  S     6.677731  5.281308 -2.012233
  S     7.502994  9.116253 -6.050483
  S     4.467066  9.829920 -3.296669
  S     6.810419  8.873820 -1.964966
