16  
    
  C     5.518486  6.266613 -4.400447
  C     6.698893  5.895899 -3.732132
  C     5.653472  9.721009 -4.372448
  C     6.905077  9.349138 -3.719935
  N     7.736564  5.699481 -4.573673
  N     5.621500  6.485575 -5.735472
  N     4.874570  6.311753 -1.944893
  N     7.959090  9.297756 -4.572683
  N     5.698967  9.953496 -5.700614
  N     4.966338  9.525045 -1.880582
  S     7.210136  6.044339 -6.043308
  S     4.149221  6.629113 -3.399787
  S     6.423521  5.814694 -2.014145
  S     7.275509  9.556043 -6.123817
  S     4.276065  9.822861 -3.374778
  S     6.627255  9.274489 -2.022471
