16  
    
  C     5.494996  5.920207 -4.425288
  C     6.547326  5.311945 -3.761060
  C     5.416093  9.333685 -4.215414
  C     6.657162  8.900228 -3.619702
  N     7.627674  5.161975 -4.502702
  N     5.650311  6.085470 -5.704827
  N     4.824448  5.701382 -2.024852
  N     7.653503  8.803492 -4.467038
  N     5.448422  9.659367 -5.513292
  N     5.104700  9.121236 -1.591611
  S     7.191935  5.630155 -6.040272
  S     4.118027  6.187652 -3.458083
  S     6.328133  5.086844 -2.082982
  S     6.993481  9.192795 -5.959619
  S     4.207359  9.616046 -2.960927
  S     6.632193  8.794124 -1.852909
