16  
    
  C     5.406498  5.997371 -4.387524
  C     6.648982  5.609745 -3.745190
  C     5.769131  9.738855 -4.434372
  C     6.906363  9.107914 -3.799483
  N     7.635494  5.434292 -4.658053
  N     5.466697  6.166853 -5.727770
  N     4.957422  5.877524 -1.876593
  N     7.912565  8.854649 -4.662430
  N     5.851147  9.884723 -5.770080
  N     5.107409  9.551648 -1.924939
  S     7.050944  5.738785 -6.090771
  S     4.090382  6.327373 -3.264854
  S     6.505566  5.329925 -2.024486
  S     7.326552  9.295275 -6.196092
  S     4.388565 10.108837 -3.401600
  S     6.621730  8.831676 -2.123449
