16  
    
  C     5.632323  6.058178 -4.468753
  C     6.825842  5.629532 -3.786084
  C     5.627740  9.722263 -4.387118
  C     6.804947  9.186927 -3.692949
  N     7.859098  5.426240 -4.539744
  N     5.819412  6.282738 -5.747325
  N     4.968849  5.900774 -2.045553
  N     7.811679  8.975291 -4.549112
  N     5.742659  9.874289 -5.693122
  N     4.789427  9.371281 -1.972299
  S     7.337645  5.834836 -6.153441
  S     4.207069  6.256819 -3.509546
  S     6.631986  5.490254 -2.065358
  S     7.345632  9.525500 -6.088133
  S     4.176575  9.900857 -3.403544
  S     6.486856  8.966336 -2.002702
