16  
    
  C     5.525227  5.694253 -4.294079
  C     6.739452  5.369847 -3.620247
  C     5.428289  9.305698 -4.347468
  C     6.671762  8.969254 -3.719008
  N     7.805135  5.273521 -4.406230
  N     5.551189  5.898134 -5.617793
  N     4.958768  5.577968 -1.739875
  N     7.751508  8.963079 -4.512633
  N     5.557812  9.432681 -5.664487
  N     5.034430  9.266867 -1.750546
  S     7.163287  5.509630 -5.966570
  S     4.211314  5.875680 -3.142590
  S     6.566592  5.182638 -1.884341
  S     7.192233  9.267564 -6.040616
  S     4.209983  9.596497 -3.178091
  S     6.584985  8.671690 -1.957959
