16  
    
  C     5.578511  5.422548 -4.104416
  C     6.808220  5.096752 -3.458376
  C     5.775813  9.257541 -3.991327
  C     7.011977  8.893221 -3.325072
  N     7.839831  5.038226 -4.308929
  N     5.610660  5.536561 -5.430043
  N     5.074196  5.279888 -1.534695
  N     8.016646  8.761369 -4.191116
  N     5.767339  9.276736 -5.298425
  N     5.252633  9.162229 -1.469513
  S     7.234850  5.119846 -5.852078
  S     4.304279  5.580447 -2.971787
  S     6.686054  5.084770 -1.709617
  S     7.379768  9.053891 -5.720134
  S     4.524076  9.606934 -2.917214
  S     6.934418  8.785424 -1.565059
