16  
    
  C     5.394303  5.961667 -4.431824
  C     6.559968  5.625426 -3.734789
  C     5.386187  9.641048 -4.226323
  C     6.585412  9.221592 -3.606871
  N     7.590497  5.477797 -4.526633
  N     5.525362  6.280750 -5.704883
  N     4.701302  5.651768 -1.974643
  N     7.600626  9.098221 -4.496934
  N     5.443715  9.793047 -5.579362
  N     4.842169  9.396074 -1.775613
  S     7.171590  5.892214 -6.039672
  S     3.985111  6.024233 -3.408065
  S     6.334757  5.382129 -2.073653
  S     6.984000  9.467226 -5.984505
  S     4.034915  9.719429 -3.197537
  S     6.435904  9.097915 -1.829565
