16  
    
  C     5.275407  6.312618 -4.493123
  C     6.376543  5.671149 -3.809334
  C     5.432026  9.580292 -4.155164
  C     6.666839  9.283714 -3.453266
  N     7.429155  5.469614 -4.610096
  N     5.480352  6.512453 -5.784584
  N     4.594813  5.866078 -2.034611
  N     7.730163  9.133174 -4.262774
  N     5.575066  9.695661 -5.518645
  N     4.945749  9.358155 -1.598091
  S     7.018950  6.003661 -6.150850
  S     3.877464  6.477038 -3.432605
  S     6.220809  5.489488 -2.108772
  S     7.185394  9.515631 -5.767742
  S     4.034897  9.499390 -3.017973
  S     6.516143  8.893714 -1.755488
