16  
    
  C     5.838487  5.728867 -4.059262
  C     6.927219  5.077301 -3.407557
  C     5.643218  9.583932 -4.228955
  C     6.873649  9.026952 -3.710586
  N     7.949862  4.815569 -4.194880
  N     6.094603  6.078965 -5.327721
  N     5.150099  5.130893 -1.597679
  N     7.869817  9.118885 -4.588206
  N     5.724644 10.129795 -5.454392
  N     5.158417  8.897084 -1.812402
  S     7.634852  5.589490 -5.638535
  S     4.417100  5.799959 -2.998235
  S     6.741516  4.583582 -1.757411
  S     7.250817  9.819275 -5.940301
  S     4.384299  9.713557 -3.084015
  S     6.731303  8.432785 -2.058785
