16  
    
  C     5.575565  6.089075 -4.371586
  C     6.742130  5.635333 -3.647023
  C     5.431584  9.638139 -4.237794
  C     6.661842  9.287155 -3.610507
  N     7.774037  5.346138 -4.444948
  N     5.815829  6.334517 -5.655496
  N     4.861643  5.823584 -1.940824
  N     7.689232  9.289458 -4.491081
  N     5.440672  9.842020 -5.562990
  N     4.947015  9.491878 -1.704462
  S     7.401801  5.781073 -5.989553
  S     4.171157  6.354806 -3.375943
  S     6.454048  5.565478 -1.947832
  S     7.042080  9.648024 -5.973423
  S     4.034814  9.645311 -3.120193
  S     6.474030  9.061684 -1.959527
