16  
    
  C     5.518354  5.929774 -4.514756
  C     6.824401  5.642384 -3.833449
  C     5.423173  9.529194 -4.326552
  C     6.662908  9.057149 -3.754032
  N     7.842079  5.390351 -4.667931
  N     5.597530  5.972231 -5.848220
  N     5.011657  5.783752 -1.964768
  N     7.670876  8.835664 -4.630434
  N     5.442932  9.702049 -5.627990
  N     4.970443  9.443443 -1.825838
  S     7.194253  5.657577 -6.157560
  S     4.159118  5.913597 -3.370921
  S     6.634933  5.469985 -2.118670
  S     6.933104  9.287947 -6.130478
  S     4.145865  9.865339 -3.253413
  S     6.595385  9.245287 -2.036593
