16  
    
  C     5.514846  6.044466 -4.193131
  C     6.686208  5.404328 -3.642949
  C     5.345383  9.546642 -4.360013
  C     6.633412  9.177940 -3.785612
  N     7.666294  5.392760 -4.519742
  N     5.602086  6.425601 -5.446870
  N     4.945287  5.600530 -1.742477
  N     7.636222  9.033553 -4.668526
  N     5.439616  9.687616 -5.693920
  N     4.902581  9.151416 -1.837604
  S     7.160634  5.963420 -5.961848
  S     4.183559  6.100792 -3.120313
  S     6.516019  5.101552 -1.991216
  S     7.020412  9.458254 -6.096823
  S     4.078749  9.649110 -3.229162
  S     6.562967  8.874015 -2.067696
