16  
    
  C     5.516763  5.793731 -4.373887
  C     6.684847  5.281494 -3.733339
  C     5.735737  9.164978 -4.223615
  C     6.986756  8.864565 -3.541832
  N     7.633945  4.930822 -4.582069
  N     5.572262  5.846463 -5.699347
  N     4.930006  5.647805 -1.820641
  N     8.037516  8.608683 -4.338395
  N     5.866388  9.089457 -5.549024
  N     5.139176  9.284847 -1.738991
  S     7.157591  5.295946 -6.115160
  S     4.141742  5.987383 -3.277796
  S     6.508659  5.259977 -2.037178
  S     7.460559  8.681340 -5.914799
  S     4.358685  9.486472 -3.195525
  S     6.797403  8.950038 -1.816459
