16  
    
  C     5.388097  5.705997 -4.271769
  C     6.677357  5.374495 -3.616495
  C     5.442294  9.271499 -4.290647
  C     6.699899  8.920721 -3.636686
  N     7.672028  5.189270 -4.478311
  N     5.528063  5.733645 -5.587325
  N     4.919205  5.599532 -1.723629
  N     7.727135  8.924219 -4.469457
  N     5.510910  9.418937 -5.563355
  N     5.014705  9.372404 -1.759247
  S     7.109493  5.563182 -5.982313
  S     4.092695  5.970456 -3.171275
  S     6.517987  5.185353 -1.921451
  S     7.085310  9.188169 -6.006506
  S     4.122544  9.602226 -3.161354
  S     6.559310  8.662244 -1.943591
