16  
    
  C     5.288455  5.762957 -4.521385
  C     6.469767  5.361014 -3.872734
  C     5.337005  9.602992 -4.484944
  C     6.525676  9.133600 -3.819253
  N     7.464318  5.146214 -4.708705
  N     5.317777  5.912266 -5.855795
  N     4.829985  5.728338 -1.926794
  N     7.587131  8.797031 -4.539961
  N     5.504611  9.556007 -5.794082
  N     4.759953  9.628666 -2.022358
  S     6.967352  5.635149 -6.232248
  S     4.036972  6.167833 -3.347716
  S     6.402094  5.226584 -2.103501
  S     6.999236  8.954918 -6.131203
  S     4.106024 10.100476 -3.439773
  S     6.265782  8.898909 -2.076648
