16  
    
  C     5.490013  5.753300 -4.410107
  C     6.668004  5.362901 -3.706053
  C     5.661820  9.048927 -4.129443
  C     6.940713  8.824111 -3.471301
  N     7.730793  5.031377 -4.449233
  N     5.578378  5.574038 -5.723108
  N     4.693637  5.537441 -1.954271
  N     7.941097  8.674192 -4.330959
  N     5.684682  8.994013 -5.465089
  N     5.204358  9.358154 -1.664911
  S     7.178980  5.217796 -6.018630
  S     4.097018  5.990314 -3.405100
  S     6.357345  5.315681 -1.985052
  S     7.220405  8.702160 -5.896250
  S     4.318491  9.307134 -3.087925
  S     6.854087  9.105861 -1.770582
