16  
    
  C     5.636150  5.672996 -4.087818
  C     6.927758  5.303385 -3.534389
  C     5.535406  9.037910 -4.173937
  C     6.846182  8.949988 -3.550728
  N     7.889569  5.030364 -4.428356
  N     5.630719  5.825651 -5.417817
  N     5.235707  5.531881 -1.578084
  N     7.899522  8.991363 -4.347128
  N     5.587629  9.155020 -5.499834
  N     5.058269  8.935320 -1.651071
  S     7.097374  5.227539 -5.951422
  S     4.304744  5.758628 -2.954572
  S     6.881905  5.323517 -1.805955
  S     7.216746  9.152726 -5.929498
  S     4.201721  8.951360 -3.048813
  S     6.751575  8.903332 -1.835939
