16  
    
  C     5.434162  5.638979 -4.289655
  C     6.610168  5.074345 -3.573774
  C     5.898824  9.139921 -3.960003
  C     7.131175  8.657067 -3.380683
  N     7.688919  4.894979 -4.320333
  N     5.673209  5.836107 -5.578584
  N     4.885095  5.831093 -1.735172
  N     8.172920  8.496654 -4.237750
  N     5.988839  9.475751 -5.246535
  N     5.415386  8.392853 -1.503774
  S     7.195074  5.312573 -5.865787
  S     4.161544  6.121241 -3.222402
  S     6.391973  5.171582 -1.828212
  S     7.538838  9.055572 -5.730173
  S     4.535144  9.006801 -2.770925
  S     7.084644  8.417469 -1.705520
