16  
    
  C     5.481744  5.821583 -4.593101
  C     6.748308  5.565490 -3.852149
  C     5.261816  9.752422 -4.514116
  C     6.445601  9.352080 -3.760598
  N     7.828121  5.530182 -4.637827
  N     5.625135  5.967914 -5.921793
  N     4.856122  5.776690 -2.044362
  N     7.468117  8.868696 -4.487622
  N     5.414005  9.593802 -5.827913
  N     4.697486  9.691399 -1.895880
  S     7.265286  5.733182 -6.164514
  S     4.132755  5.953374 -3.485699
  S     6.522240  5.429149 -2.101872
  S     6.895068  8.863068 -6.085692
  S     3.922068 10.001948 -3.340268
  S     6.316376  9.296095 -2.007713
