16  
    
  C     5.340850  6.096551 -4.357600
  C     6.547467  5.445368 -3.770203
  C     5.404737  9.149621 -4.314805
  C     6.698933  8.912657 -3.663298
  N     7.497206  5.286762 -4.694195
  N     5.446733  6.310006 -5.643560
  N     4.759988  5.531408 -1.965638
  N     7.723446  8.757652 -4.481267
  N     5.537182  9.305571 -5.621196
  N     4.940650  9.302225 -1.852461
  S     6.995708  5.832026 -6.119909
  S     3.993917  6.191351 -3.259421
  S     6.391848  5.317402 -2.062405
  S     7.151734  9.075289 -5.987609
  S     4.044110  9.237229 -3.177012
  S     6.564811  8.750397 -1.922158
