16  
    
  C     5.339583  5.737730 -4.487326
  C     6.578908  5.386734 -3.750047
  C     5.307324  9.506548 -4.332712
  C     6.592386  9.162525 -3.736722
  N     7.684679  5.225806 -4.504452
  N     5.593081  5.865659 -5.790554
  N     4.726860  5.778673 -1.956288
  N     7.582617  8.986311 -4.616107
  N     5.292389  9.426157 -5.673969
  N     4.814493  9.295482 -1.874826
  S     7.164941  5.542895 -6.043710
  S     4.019325  6.137372 -3.451615
  S     6.293455  5.224335 -2.045022
  S     6.893248  9.022152 -6.106646
  S     3.963291  9.721256 -3.216326
  S     6.395703  8.935067 -2.076144
