16  
    
  C     5.640423  5.957456 -4.293221
  C     6.853066  5.467124 -3.667753
  C     5.897469  9.387707 -4.191727
  C     7.109922  8.943753 -3.553674
  N     7.927536  5.399324 -4.459213
  N     5.779510  6.168090 -5.613153
  N     5.003766  5.577226 -1.880659
  N     8.132766  8.784557 -4.376185
  N     5.974727  9.412871 -5.493733
  N     5.316365  9.195927 -1.721192
  S     7.357538  5.848520 -5.961390
  S     4.335515  6.313017 -3.230534
  S     6.563102  5.168962 -2.041430
  S     7.583973  9.051551 -5.895766
  S     4.533013  9.578170 -3.143707
  S     6.888337  8.652409 -1.858365
