16  
    
  C     5.556300  5.839104 -4.390436
  C     6.754612  5.493616 -3.622633
  C     5.717615  9.268849 -4.277853
  C     6.984533  9.081397 -3.628072
  N     7.841114  5.260948 -4.316265
  N     5.814482  5.982166 -5.672165
  N     4.748709  5.621868 -1.953312
  N     8.074271  9.186078 -4.410231
  N     5.862356  9.466182 -5.580583
  N     5.208592  8.965732 -1.768252
  S     7.385792  5.412431 -5.955474
  S     3.988653  5.907120 -3.466253
  S     6.431230  5.343170 -1.918678
  S     7.466067  9.477966 -5.929542
  S     4.388691  9.396569 -3.165493
  S     6.813329  8.777792 -1.930087
