16  
    
  C     5.213549  6.414585 -4.643484
  C     6.485792  6.115216 -3.972684
  C     5.742669  9.690460 -4.445205
  C     6.955377  9.308318 -3.821985
  N     7.500820  5.808983 -4.784109
  N     5.291551  6.449761 -5.998879
  N     4.738619  6.328759 -2.117386
  N     7.943796  9.150690 -4.659434
  N     5.823746  9.762805 -5.781891
  N     5.335237  9.447318 -1.894357
  S     6.844316  6.043809 -6.311436
  S     3.974229  6.767292 -3.522176
  S     6.370015  5.970851 -2.298299
  S     7.397427  9.435691 -6.173191
  S     4.467749  9.779138 -3.182737
  S     6.961361  9.062187 -2.122115
