16  
    
  C     5.379221  5.679677 -4.370332
  C     6.658264  5.401607 -3.737603
  C     5.360432 10.102332 -4.563622
  C     6.519953  9.382326 -3.992042
  N     7.665288  5.284459 -4.602915
  N     5.421321  5.930373 -5.695642
  N     4.929028  5.597565 -1.850755
  N     7.516103  9.217951 -4.855415
  N     5.523420 10.426706 -5.808333
  N     4.689111  9.676808 -2.074842
  S     7.007131  5.648270 -6.073760
  S     4.077519  5.618111 -3.256981
  S     6.551361  5.291627 -1.988909
  S     6.933779  9.815094 -6.318816
  S     3.990778 10.306858 -3.541906
  S     6.223292  9.136900 -2.295288
