16  
    
  C     5.508411  5.820260 -4.359017
  C     6.627739  5.287739 -3.615050
  C     5.739691  9.235662 -4.169072
  C     7.010774  8.910336 -3.573907
  N     7.665366  5.064016 -4.414137
  N     5.666593  6.026368 -5.641020
  N     4.683044  5.566339 -1.942447
  N     8.039374  8.812723 -4.416095
  N     5.819085  9.376906 -5.505183
  N     5.197716  8.769219 -1.641828
  S     7.281964  5.632689 -5.921916
  S     4.090523  6.001083 -3.405854
  S     6.305664  5.100092 -1.928390
  S     7.390203  9.149062 -5.989776
  S     4.389978  8.968793 -3.068978
  S     6.852294  8.548778 -1.878337
