16  
    
  C     5.515016  5.966602 -4.497625
  C     6.603962  5.352140 -3.769454
  C     5.800394  9.508247 -4.324540
  C     7.009241  9.064476 -3.681205
  N     7.743448  5.152407 -4.493975
  N     5.878201  6.251688 -5.753857
  N     4.584781  5.726650 -2.156543
  N     8.008987  8.925861 -4.525957
  N     5.959516  9.757616 -5.625656
  N     5.187898  9.118076 -1.868774
  S     7.446992  5.853372 -5.946380
  S     4.037059  6.353595 -3.603079
  S     6.178233  5.120603 -2.064109
  S     7.523048  9.330557 -5.983886
  S     4.399990  9.426854 -3.268920
  S     6.838203  8.834456 -1.990012
