16  
    
  C     5.703395  6.280096 -4.195869
  C     6.922356  5.663305 -3.661163
  C     5.930521  9.599117 -4.183466
  C     7.167332  9.093992 -3.628193
  N     7.904275  5.356578 -4.539979
  N     5.810005  6.562705 -5.510270
  N     5.135356  5.638765 -1.734573
  N     8.069650  8.729039 -4.561740
  N     5.894299  9.691925 -5.500561
  N     5.463953  9.488306 -1.637480
  S     7.283411  5.989843 -5.962637
  S     4.337880  6.325423 -3.054770
  S     6.720086  5.315241 -1.945569
  S     7.372657  9.159884 -6.050623
  S     4.633868  9.755356 -3.031122
  S     6.988690  8.785078 -1.936247
