16  
    
  C     5.589004  5.639351 -4.220282
  C     6.937304  5.213734 -3.696975
  C     5.548006  9.410351 -4.486443
  C     6.623726  8.728054 -3.779924
  N     7.946386  5.148826 -4.593891
  N     5.642230  5.905755 -5.542823
  N     5.283352  5.222470 -1.653735
  N     7.669070  8.464512 -4.552961
  N     5.798642  9.826970 -5.725616
  N     4.757119  9.083554 -2.044480
  S     7.182485  5.499981 -6.015999
  S     4.367750  5.526825 -2.981218
  S     6.950625  4.988542 -1.967351
  S     7.317766  9.203132 -6.057857
  S     4.128004  9.571607 -3.456235
  S     6.302857  8.414516 -2.141971
