16  
    
  C     5.262451  6.329290 -4.380857
  C     6.346443  5.670428 -3.741823
  C     5.589846  9.534575 -4.327803
  C     6.809054  9.129050 -3.657210
  N     7.408129  5.300557 -4.496587
  N     5.445236  6.527574 -5.699536
  N     4.631637  6.217187 -1.859946
  N     7.841111  9.059239 -4.475812
  N     5.691934  9.665672 -5.652657
  N     5.010507  9.460305 -1.772672
  S     6.934905  5.893521 -5.999139
  S     4.019067  6.790392 -3.260673
  S     6.157705  5.536916 -2.012780
  S     7.259622  9.348249 -6.032842
  S     4.255255  9.834606 -3.224725
  S     6.595440  8.895050 -1.958796
