16  
    
  C     5.626487  5.806806 -4.452423
  C     6.873816  5.410043 -3.838080
  C     5.834657  9.583011 -3.922947
  C     7.053233  8.989106 -3.438112
  N     7.867083  5.214133 -4.708321
  N     5.735058  5.951709 -5.765313
  N     5.187969  5.342865 -1.893314
  N     7.983627  8.837315 -4.401134
  N     5.844823  9.885395 -5.217425
  N     5.371978  8.801228 -1.499524
  S     7.347903  5.655429 -6.166733
  S     4.388228  5.806388 -3.249433
  S     6.780143  5.114386 -2.123661
  S     7.250249  9.302645 -5.814965
  S     4.532311  9.553302 -2.750909
  S     6.955036  8.404362 -1.839571
