16  
    
  C     5.529017  5.848297 -4.360407
  C     6.606607  5.237199 -3.688708
  C     5.751313  9.206761 -4.209594
  C     6.983597  8.767298 -3.597483
  N     7.604517  4.851648 -4.442077
  N     5.774271  6.015689 -5.656031
  N     4.792579  5.586920 -1.941150
  N     7.988138  8.745763 -4.469445
  N     5.798971  9.482404 -5.489516
  N     5.168122  9.049166 -1.734648
  S     7.295200  5.453231 -5.968695
  S     4.125917  6.070275 -3.423418
  S     6.334894  4.977675 -2.034997
  S     7.428664  9.207027 -5.934450
  S     4.349972  9.383742 -3.149280
  S     6.777457  8.766022 -1.891344
