16  
    
  C     5.296548  6.156294 -4.600300
  C     6.623071  5.806296 -4.066829
  C     5.649066  9.427530 -4.084430
  C     6.886997  8.917013 -3.520725
  N     7.626939  5.750866 -4.925297
  N     5.346119  6.453553 -5.909180
  N     4.983617  5.734932 -2.073191
  N     7.919847  8.870650 -4.413502
  N     5.831043  9.802376 -5.347162
  N     5.166123  8.875976 -1.618220
  S     6.923779  6.237713 -6.464217
  S     4.065204  6.155556 -3.397039
  S     6.609665  5.540488 -2.321394
  S     7.363279  9.437408 -5.846801
  S     4.343031  9.380335 -2.936379
  S     6.839874  8.662288 -1.809442
