16  
    
  C     5.748327  5.907446 -3.878528
  C     6.888624  5.067535 -3.444248
  C     5.620814  9.648102 -4.029544
  C     6.799171  8.984420 -3.548528
  N     7.795982  4.988242 -4.392240
  N     5.825867  6.400424 -5.113480
  N     5.120661  4.934375 -1.613385
  N     7.825926  8.944177 -4.384986
  N     5.690320 10.063806 -5.287364
  N     5.129372  8.895082 -1.654075
  S     7.328841  5.936294 -5.670488
  S     4.388127  5.822923 -2.785510
  S     6.770512  4.518548 -1.782121
  S     7.197166  9.578839 -5.832897
  S     4.355938  9.650519 -2.899829
  S     6.743475  8.508193 -1.871149
