16  
    
  C     5.563394  6.167425 -4.360893
  C     6.806555  5.529264 -3.806217
  C     5.528848  9.556993 -4.267011
  C     6.785378  9.078812 -3.680376
  N     7.790183  5.282294 -4.707039
  N     5.631535  6.307965 -5.689542
  N     5.053007  5.652217 -1.884002
  N     7.749295  8.932306 -4.551216
  N     5.635691  9.924543 -5.509155
  N     5.113133  9.396748 -1.771930
  S     7.133620  5.884830 -6.133012
  S     4.300341  6.328269 -3.218115
  S     6.644155  5.338503 -2.089822
  S     7.144624  9.454703 -6.004370
  S     4.166042  9.675848 -3.117471
  S     6.710733  8.953843 -2.001720
