16  
    
  C     5.699090  5.878544 -4.177303
  C     6.826743  5.285759 -3.565691
  C     5.638980  9.535296 -4.445521
  C     6.902912  9.133261 -3.841512
  N     7.844170  5.020373 -4.399417
  N     5.731782  6.074947 -5.507675
  N     5.039048  5.370078 -1.737675
  N     7.960277  8.942890 -4.625909
  N     5.688116  9.497848 -5.759867
  N     5.169411  9.215688 -1.900797
  S     7.315910  5.650576 -5.905135
  S     4.312163  6.051169 -3.072156
  S     6.594697  4.941512 -1.942544
  S     7.266829  9.114427 -6.198562
  S     4.399126  9.889670 -3.212377
  S     6.789168  8.922052 -2.153045
