16  
    
  C     5.648098  5.783737 -4.205400
  C     6.886996  5.422488 -3.590161
  C     5.595501  9.419743 -4.342484
  C     6.834650  9.003756 -3.727618
  N     7.892576  5.251007 -4.448250
  N     5.724115  5.936904 -5.516031
  N     5.059118  5.517818 -1.721862
  N     7.869137  8.913811 -4.559019
  N     5.682983  9.611153 -5.612532
  N     5.019605  9.034942 -1.861779
  S     7.245330  5.542041 -5.972404
  S     4.226757  5.762686 -3.164188
  S     6.718102  5.143660 -1.857905
  S     7.242247  9.364564 -6.083152
  S     4.257008  9.616913 -3.229147
  S     6.666113  8.769385 -2.042145
