16  
    
  C     5.356853  6.259627 -4.596539
  C     6.618528  5.863987 -4.047318
  C     5.693004  9.457557 -4.034597
  C     6.922078  8.999187 -3.486658
  N     7.562239  5.853471 -4.970274
  N     5.309216  6.415418 -5.883227
  N     4.918664  5.749449 -2.077774
  N     7.881584  8.819261 -4.377787
  N     5.733783  9.822598 -5.310353
  N     5.198741  8.919394 -1.574496
  S     6.831704  6.230052 -6.449130
  S     4.054356  6.252241 -3.408580
  S     6.546609  5.560854 -2.312792
  S     7.308370  9.535448 -5.788289
  S     4.268058  9.321414 -2.991874
  S     6.792507  8.596336 -1.801384
