16  
    
  C     5.580592  5.648940 -4.103329
  C     6.785623  5.179840 -3.528083
  C     5.534230  8.982055 -4.150817
  C     6.818610  8.943022 -3.521840
  N     7.731762  4.932000 -4.453547
  N     5.531930  5.745170 -5.458643
  N     5.197725  5.369504 -1.576168
  N     7.792068  8.982266 -4.438236
  N     5.550290  8.933134 -5.448530
  N     5.071127  9.124423 -1.646902
  S     7.109907  5.463604 -5.899580
  S     4.379968  5.942021 -2.915970
  S     6.819910  5.236317 -1.769504
  S     7.116340  8.917143 -5.906124
  S     4.234495  8.976930 -3.052914
  S     6.698857  8.744536 -1.756004
