16  
    
  C     5.504162  5.903715 -4.464167
  C     6.779883  5.631183 -3.813970
  C     5.397383  9.697987 -4.389312
  C     6.596031  9.245522 -3.714379
  N     7.796588  5.476943 -4.646775
  N     5.656120  5.987792 -5.769660
  N     4.957869  5.836762 -2.030437
  N     7.505666  8.818331 -4.598428
  N     5.414001  9.666596 -5.700388
  N     4.834711  9.505910 -1.898959
  S     7.220756  5.684704 -6.204241
  S     4.141035  5.917245 -3.470599
  S     6.562083  5.457818 -2.115143
  S     6.913415  9.074886 -6.104536
  S     4.056236  9.898149 -3.299269
  S     6.487635  9.294194 -2.006245
