16  
    
  C     5.458400  6.001890 -4.399226
  C     6.700584  5.502836 -3.838614
  C     5.694936  9.778739 -4.562196
  C     6.831667  9.144290 -3.917417
  N     7.627214  5.250987 -4.715216
  N     5.454295  6.221725 -5.712516
  N     4.986840  5.690671 -1.863180
  N     7.756509  8.866943 -4.827139
  N     5.714514  9.933105 -5.877390
  N     5.228292  9.636927 -2.003627
  S     6.982872  5.734206 -6.186191
  S     4.172751  6.218131 -3.199150
  S     6.580073  5.347709 -2.091004
  S     7.221121  9.334043 -6.355197
  S     4.496355 10.230163 -3.428700
  S     6.634136  8.890779 -2.216366
