16  
    
  C     5.503101  5.899013 -4.365353
  C     6.743738  5.655336 -3.711680
  C     5.619536  8.960446 -4.145994
  C     6.880225  8.681474 -3.522323
  N     7.772996  5.518556 -4.506185
  N     5.644759  5.971414 -5.671971
  N     4.871496  5.720292 -1.951833
  N     7.936258  8.757325 -4.361305
  N     5.687731  9.209199 -5.453229
  N     5.179788  8.820538 -1.615439
  S     7.258672  5.811277 -6.077460
  S     4.088901  5.900982 -3.404583
  S     6.507561  5.370829 -2.037226
  S     7.356619  9.159667 -5.865989
  S     4.282240  9.030188 -2.967293
  S     6.754400  8.487823 -1.837616
