16  
    
  C     5.457194  5.604057 -4.206394
  C     6.662927  5.213730 -3.499299
  C     5.867378  9.007996 -3.952075
  C     7.094396  8.569661 -3.381260
  N     7.691048  4.938222 -4.267139
  N     5.626009  5.609519 -5.504276
  N     4.835861  5.815821 -1.794157
  N     8.098607  8.508773 -4.294542
  N     5.946943  9.292007 -5.246198
  N     5.371357  8.322881 -1.509897
  S     7.195503  5.169644 -5.831220
  S     4.095634  6.059981 -3.244393
  S     6.354520  5.095444 -1.815095
  S     7.519371  9.014172 -5.711104
  S     4.565849  9.091313 -2.776676
  S     7.029424  8.335811 -1.671915
