16  
    
  C     5.807265  5.441682 -4.250514
  C     6.966306  4.998799 -3.504515
  C     5.673954  9.559512 -4.389938
  C     6.841503  8.955140 -3.779441
  N     8.046162  4.789804 -4.249307
  N     6.010044  5.520566 -5.575540
  N     5.108690  5.307496 -1.752244
  N     7.908995  8.821779 -4.556419
  N     5.890374  9.908520 -5.649529
  N     4.954175  9.106650 -2.012243
  S     7.583325  5.118426 -5.824957
  S     4.400952  5.656270 -3.189043
  S     6.725638  4.798637 -1.879412
  S     7.420595  9.482165 -6.030963
  S     4.261567  9.676399 -3.399391
  S     6.544228  8.637492 -2.040449
