16  
    
  C     5.469529  6.323683 -4.440890
  C     6.679666  5.795047 -3.769277
  C     5.592474  9.604863 -4.484715
  C     6.796801  9.176105 -3.796356
  N     7.658967  5.513988 -4.614241
  N     5.682434  6.444512 -5.727570
  N     4.907481  6.180802 -1.918532
  N     7.848674  8.933892 -4.568889
  N     5.738136  9.788991 -5.801679
  N     5.132653  9.545824 -1.930018
  S     7.207941  5.881779 -6.141717
  S     4.103989  6.577789 -3.359888
  S     6.513835  5.842773 -2.019368
  S     7.339252  9.194489 -6.099051
  S     4.261333  9.866733 -3.287810
  S     6.792822  9.132412 -2.056701
