16  
    
  C     5.553016  5.604694 -4.312857
  C     6.675144  5.080137 -3.619057
  C     5.511055  9.252167 -4.278337
  C     6.722318  8.768833 -3.652105
  N     7.788363  4.957414 -4.331784
  N     5.742378  5.808493 -5.612094
  N     4.985687  5.642825 -1.762156
  N     7.794541  8.645772 -4.469250
  N     5.655534  9.415569 -5.584001
  N     4.939702  9.104292 -1.773909
  S     7.272175  5.335355 -5.883014
  S     4.248195  6.049656 -3.208258
  S     6.528308  4.999809 -1.967661
  S     7.237895  9.155997 -5.961306
  S     4.195479  9.575723 -3.189033
  S     6.545780  8.563909 -1.927231
