16  
    
  C     5.465246  5.901274 -4.289848
  C     6.595325  5.244481 -3.679890
  C     5.626970  9.989899 -4.566656
  C     6.653157  9.259269 -3.869031
  N     7.595962  4.896472 -4.505830
  N     5.655821  6.218707 -5.593372
  N     4.853423  5.626005 -1.754997
  N     7.749131  9.093576 -4.581809
  N     5.901062 10.256877 -5.846792
  N     4.693073  9.094506 -2.298849
  S     7.096320  5.455759 -5.969300
  S     4.156483  6.200438 -3.144699
  S     6.357542  4.872732 -1.944956
  S     7.424304  9.718157 -6.086022
  S     4.191000 10.008631 -3.555330
  S     6.292416  8.627051 -2.315184
