16  
    
  C     5.434275  5.707607 -4.307828
  C     6.699375  5.408353 -3.672871
  C     5.348071 10.216127 -4.627983
  C     6.440631  9.445288 -3.943711
  N     7.683131  5.272162 -4.505658
  N     5.513271  5.728495 -5.652569
  N     4.955490  5.563570 -1.753245
  N     7.312242  9.009301 -4.826106
  N     5.509160 10.432402 -5.919781
  N     4.674127  9.611709 -2.163032
  S     7.132473  5.457046 -6.025709
  S     4.056422  5.546901 -3.197391
  S     6.616427  5.346904 -1.948370
  S     6.939422  9.679462 -6.282948
  S     4.016137 10.455691 -3.464641
  S     6.229996  9.118703 -2.260620
