16  
    
  C     5.494811  5.842804 -4.483181
  C     6.737762  5.532987 -3.806006
  C     5.631627  9.155916 -4.113302
  C     6.869282  8.829739 -3.451450
  N     7.820424  5.515726 -4.579412
  N     5.625466  6.127093 -5.802969
  N     4.927276  5.724232 -1.958349
  N     7.860066  8.723416 -4.346211
  N     5.659533  9.423283 -5.424700
  N     5.120855  8.762511 -1.613969
  S     7.216854  5.794109 -6.107091
  S     4.144766  5.848474 -3.396194
  S     6.573143  5.478286 -2.055326
  S     7.244737  9.066162 -5.816985
  S     4.273489  9.133753 -3.079669
  S     6.784175  8.605002 -1.754335
