16  
    
  C     5.233240  6.227738 -4.513218
  C     6.403583  5.687879 -3.908721
  C     5.449073  9.595292 -4.079728
  C     6.727290  9.351435 -3.481164
  N     7.457314  5.628956 -4.760205
  N     5.370420  6.542208 -5.809792
  N     4.603124  5.942358 -2.074413
  N     7.744921  9.484099 -4.292761
  N     5.436962  9.925123 -5.387979
  N     5.038317  9.021654 -1.583467
  S     6.888134  6.170065 -6.231439
  S     3.881431  6.431358 -3.472776
  S     6.215895  5.524484 -2.211687
  S     7.084719  9.912638 -5.763017
  S     4.200099  9.534057 -2.920467
  S     6.679014  8.857021 -1.856545
