16  
    
  C     5.633479  5.780006 -4.348362
  C     6.840930  5.224333 -3.803210
  C     5.260414  9.844532 -4.685744
  C     6.403868  9.269477 -3.967278
  N     7.838335  5.066916 -4.688336
  N     5.661144  5.917535 -5.718859
  N     5.199536  5.489412 -1.810235
  N     7.344925  8.895170 -4.803053
  N     5.373917  9.929759 -6.013516
  N     4.724475  9.752998 -2.148883
  S     7.224545  5.492413 -6.106368
  S     4.334415  6.033130 -3.179726
  S     6.765557  4.995673 -2.096782
  S     6.926517  9.321548 -6.346820
  S     4.037580 10.375386 -3.475739
  S     6.271650  9.114894 -2.283915
