16  
    
  C     5.494374  5.739236 -4.271402
  C     6.568436  5.159171 -3.571199
  C     5.905674  9.211805 -3.961846
  C     7.127641  8.689738 -3.413037
  N     7.562083  4.846528 -4.396164
  N     5.679628  5.938426 -5.580454
  N     4.909355  5.838828 -1.796930
  N     8.115447  8.594153 -4.282505
  N     6.023294  9.515783 -5.260475
  N     5.435852  8.596283 -1.461412
  S     7.236449  5.416554 -5.915439
  S     4.173540  6.130421 -3.228749
  S     6.460532  5.183592 -1.820668
  S     7.528296  9.084445 -5.716080
  S     4.598095  8.971433 -2.838829
  S     7.096170  8.422744 -1.667453
