16  
    
  C     5.621655  5.736211 -4.275824
  C     6.771684  5.126615 -3.596073
  C     5.415264  9.126008 -4.188408
  C     6.636597  8.729758 -3.540401
  N     7.712189  4.757131 -4.439633
  N     5.762632  5.866105 -5.589340
  N     5.023421  5.631232 -1.781629
  N     7.727443  8.622569 -4.332969
  N     5.549499  9.350489 -5.485539
  N     4.816516  8.974989 -1.686357
  S     7.280666  5.295487 -5.981244
  S     4.272106  6.148848 -3.170932
  S     6.508219  4.872054 -1.931374
  S     7.140197  8.961365 -5.853513
  S     4.110082  9.513017 -3.112204
  S     6.394538  8.567924 -1.797267
