16  
    
  C     5.625345  5.723030 -4.310693
  C     6.703023  5.027605 -3.595810
  C     5.424925  9.293183 -4.187997
  C     6.590435  8.735301 -3.548706
  N     7.692616  4.697191 -4.372900
  N     5.880755  6.039992 -5.581824
  N     4.985569  5.522390 -1.768237
  N     7.565481  8.350356 -4.362977
  N     5.529314  9.407201 -5.502276
  N     4.803137  9.008406 -1.729051
  S     7.314345  5.248146 -5.943008
  S     4.361790  6.069000 -3.170089
  S     6.596853  4.963388 -1.929307
  S     7.048284  8.849344 -5.925731
  S     4.102732  9.514867 -3.137775
  S     6.420658  8.530779 -1.809146
