16  
    
  C     5.695499  5.482489 -4.261543
  C     6.900505  5.276010 -3.561113
  C     5.190773  9.850379 -4.663096
  C     6.280256  9.268616 -3.949965
  N     7.971335  5.182576 -4.361146
  N     5.802173  5.495162 -5.614277
  N     5.105608  5.654925 -1.733920
  N     7.343463  8.965374 -4.721578
  N     5.375223 10.016050 -5.970290
  N     4.586211  9.810588 -2.154471
  S     7.446929  5.250250 -5.911247
  S     4.349211  5.711667 -3.194045
  S     6.724045  5.302076 -1.847201
  S     6.852940  9.386570 -6.247178
  S     3.809448 10.279452 -3.578364
  S     6.013697  9.142022 -2.250468
