16  
    
  C     5.349569  5.495368 -4.446604
  C     6.537221  5.202368 -3.689316
  C     5.559385  8.994100 -4.181373
  C     6.848750  8.923053 -3.530083
  N     7.656167  5.128751 -4.413575
  N     5.577622  5.616364 -5.746828
  N     4.698468  5.652112 -1.971370
  N     7.845114  8.717522 -4.377260
  N     5.558436  8.865644 -5.492357
  N     5.151441  9.338856 -1.595702
  S     7.257083  5.230849 -5.991006
  S     3.998038  5.993602 -3.451199
  S     6.327129  5.197821 -1.950437
  S     7.162082  8.726859 -5.938965
  S     4.298700  9.315720 -3.035474
  S     6.772051  9.033431 -1.799394
