16  
    
  C     5.282304  6.254591 -4.334613
  C     6.478951  5.662565 -3.781302
  C     5.738230  9.531282 -4.241436
  C     6.942025  9.163073 -3.625136
  N     7.449247  5.556197 -4.681688
  N     5.359500  6.490240 -5.640511
  N     4.776064  6.126107 -1.832663
  N     7.936718  8.969634 -4.523112
  N     5.737167  9.671496 -5.598353
  N     5.151909  9.377821 -1.765753
  S     6.935595  5.993434 -6.166635
  S     3.979029  6.527181 -3.230113
  S     6.358874  5.576692 -2.040580
  S     7.294991  9.360218 -6.003329
  S     4.340481  9.734605 -3.183568
  S     6.688513  8.945184 -1.940549
