16  
    
  C     5.361201  5.494901 -4.378948
  C     6.484256  4.869517 -3.750395
  C     5.579422  9.322877 -4.376467
  C     6.640962  8.508336 -3.797285
  N     7.531651  4.806798 -4.548828
  N     5.492929  5.861510 -5.646160
  N     4.711304  5.102384 -1.843531
  N     7.682224  8.276576 -4.593617
  N     5.779127  9.589136 -5.668479
  N     4.840661  8.543479 -1.984240
  S     7.063435  5.290118 -6.067510
  S     4.057946  5.589116 -3.255452
  S     6.291151  4.651130 -2.021749
  S     7.357285  8.998279 -6.067604
  S     4.315049  9.603505 -3.211715
  S     6.410632  8.020048 -2.110991
