16  
    
  C     5.578900  5.528953 -4.245484
  C     6.782853  5.110796 -3.536607
  C     5.385470  9.216023 -4.273012
  C     6.559702  8.622247 -3.659537
  N     7.851109  4.880508 -4.285715
  N     5.780136  5.699241 -5.546604
  N     5.007064  5.417250 -1.695894
  N     7.498527  8.298183 -4.521695
  N     5.474399  9.469890 -5.589690
  N     4.928768  9.113580 -1.722203
  S     7.296068  5.203478 -5.893315
  S     4.354239  5.899360 -3.165099
  S     6.552223  4.848151 -1.823088
  S     6.964748  8.831042 -6.035089
  S     4.123668  9.643298 -3.112052
  S     6.427763  8.465424 -1.910887
