16  
    
  C     5.292957  5.996455 -4.469613
  C     6.511078  5.624743 -3.720404
  C     5.303542  9.690751 -4.258073
  C     6.519933  9.285148 -3.590645
  N     7.512457  5.352770 -4.545465
  N     5.493097  6.116696 -5.791357
  N     4.635620  5.956918 -1.995613
  N     7.608669  9.223889 -4.299922
  N     5.527302  9.835096 -5.541096
  N     4.769425  9.297738 -1.703710
  S     7.121028  5.698687 -6.094120
  S     3.938681  6.265796 -3.450253
  S     6.226522  5.478406 -2.019787
  S     7.110418  9.454150 -5.836815
  S     4.010692  9.768221 -3.108338
  S     6.345973  8.969342 -1.862945
