16  
    
  C     5.634591  5.697882 -4.138246
  C     6.930978  5.330895 -3.543545
  C     5.550604  9.094570 -4.194232
  C     6.821178  8.942737 -3.578888
  N     7.875126  5.105095 -4.450363
  N     5.679715  5.756513 -5.464373
  N     5.246027  5.633882 -1.592787
  N     7.870442  8.996423 -4.416257
  N     5.667441  9.263244 -5.497650
  N     5.111437  8.866079 -1.636875
  S     7.142434  5.165987 -5.972314
  S     4.262066  5.706644 -2.968433
  S     6.901430  5.334313 -1.754485
  S     7.262367  9.230048 -5.882165
  S     4.222890  8.943320 -3.045679
  S     6.734889  8.956245 -1.874748
