16  
    
  C     5.643708  5.794129 -4.213610
  C     6.964516  5.441262 -3.553588
  C     5.599312  9.486230 -4.298223
  C     6.867489  9.007218 -3.775196
  N     7.940270  5.194026 -4.441344
  N     5.708821  5.935823 -5.542505
  N     5.071688  5.498518 -1.728472
  N     7.901581  8.915140 -4.578846
  N     5.735255  9.690660 -5.590614
  N     5.027738  8.983173 -1.887085
  S     7.266273  5.581884 -5.963353
  S     4.242128  5.734642 -3.152479
  S     6.756586  5.128841 -1.870617
  S     7.254180  9.375597 -6.093037
  S     4.262168  9.625012 -3.270825
  S     6.708440  8.787880 -2.039108
