16  
    
  C     5.562675  5.829276 -4.381336
  C     6.761392  5.499698 -3.628935
  C     5.709199  9.270007 -4.281381
  C     6.975229  9.094581 -3.617882
  N     7.846732  5.254949 -4.309629
  N     5.799354  5.950130 -5.659519
  N     4.760173  5.627749 -1.941074
  N     8.079921  9.196563 -4.387062
  N     5.849542  9.462738 -5.588786
  N     5.208619  8.967015 -1.771888
  S     7.385615  5.405886 -5.956382
  S     3.996075  5.895192 -3.459731
  S     6.437995  5.349160 -1.915223
  S     7.465556  9.476768 -5.928564
  S     4.380213  9.389953 -3.158591
  S     6.820561  8.772797 -1.935307
