16  
    
  C     5.608943  5.974221 -4.540356
  C     6.798923  5.533999 -3.871124
  C     5.578314  9.854607 -4.381602
  C     6.735513  9.285846 -3.754192
  N     7.855813  5.350343 -4.692241
  N     5.770249  6.239046 -5.838580
  N     5.013752  5.773929 -2.021571
  N     7.768669  9.038778 -4.574532
  N     5.753953 10.039785 -5.701880
  N     5.023228  9.278976 -1.864827
  S     7.352084  5.769183 -6.151427
  S     4.175052  6.152746 -3.486665
  S     6.606181  5.231589 -2.148572
  S     7.356366  9.675245 -6.027894
  S     4.127210  9.897971 -3.236856
  S     6.545490  8.893875 -2.106292
