16  
    
  C     5.446463  6.272753 -4.434467
  C     6.676822  5.951370 -3.736180
  C     5.625277  9.771708 -4.362586
  C     6.880661  9.399444 -3.769903
  N     7.706727  5.768033 -4.517326
  N     5.624523  6.469980 -5.701877
  N     4.842851  6.312451 -1.908214
  N     7.943021  9.260358 -4.592582
  N     5.691013  9.893645 -5.680036
  N     4.961001  9.490281 -1.926050
  S     7.194124  6.075414 -6.083251
  S     4.143812  6.594114 -3.377967
  S     6.399531  5.805825 -2.019839
  S     7.268754  9.582282 -6.098404
  S     4.254613  9.796021 -3.317548
  S     6.634290  9.237399 -2.050500
