16  
    
  C     5.442858  5.699997 -4.315551
  C     6.707936  5.403837 -3.683094
  C     5.330021 10.212578 -4.617154
  C     6.409447  9.453882 -3.969115
  N     7.705788  5.278798 -4.518279
  N     5.514731  5.704491 -5.645355
  N     4.956900  5.554957 -1.742893
  N     7.315273  8.990731 -4.824424
  N     5.520694 10.421690 -5.932898
  N     4.673981  9.598784 -2.143250
  S     7.148511  5.435857 -6.006610
  S     4.066811  5.547342 -3.190793
  S     6.612840  5.353240 -1.936976
  S     6.935528  9.662941 -6.279090
  S     4.018497 10.472339 -3.466809
  S     6.224864  9.119610 -2.258148
