16  
    
  C     5.224401  6.342744 -4.514292
  C     6.350345  5.741040 -3.834155
  C     5.400935  9.935111 -4.123300
  C     6.723645  9.660274 -3.591595
  N     7.467793  5.565028 -4.582640
  N     5.489509  6.565864 -5.798322
  N     4.527298  6.109681 -2.013245
  N     7.749255  9.579369 -4.431370
  N     5.424758 10.209921 -5.407199
  N     4.978182  9.334849 -1.611472
  S     7.106458  6.055498 -6.048807
  S     3.813953  6.444030 -3.487502
  S     6.043700  5.473840 -2.130970
  S     7.017453 10.083209 -5.869739
  S     4.150014  9.670613 -2.970617
  S     6.657311  9.245359 -1.863643
