16  
    
  C     5.536372  5.842204 -4.372548
  C     6.605864  5.240711 -3.693806
  C     5.754236  9.218341 -4.214997
  C     6.981963  8.779136 -3.598769
  N     7.614049  4.850556 -4.443062
  N     5.766290  6.007354 -5.680267
  N     4.796887  5.573516 -1.940478
  N     7.989330  8.741724 -4.481013
  N     5.799635  9.482316 -5.497062
  N     5.159554  9.062815 -1.739374
  S     7.289716  5.453004 -5.968415
  S     4.137188  6.082884 -3.421655
  S     6.337139  4.975573 -2.029251
  S     7.429644  9.205833 -5.937032
  S     4.351834  9.400652 -3.143436
  S     6.765589  8.767615 -1.881186
