16  
    
  C     5.507953  5.810266 -4.559648
  C     6.753182  5.541603 -3.897000
  C     5.164867  9.430194 -4.454841
  C     6.345363  9.113180 -3.683626
  N     7.883541  5.489504 -4.630826
  N     5.643053  5.846637 -5.898669
  N     4.848787  5.612708 -2.041286
  N     7.373977  8.762833 -4.453846
  N     5.255001  9.362927 -5.773472
  N     4.608688  9.992414 -2.041475
  S     7.274880  5.682613 -6.150921
  S     4.117638  5.960441 -3.481788
  S     6.559769  5.355174 -2.139295
  S     6.836410  9.013990 -6.065417
  S     3.877183 10.201977 -3.516952
  S     6.125294  9.282785 -1.982259
