16  
    
  C     5.393050  6.576667 -4.509938
  C     6.488029  5.932306 -3.838578
  C     5.480321 10.066443 -4.340916
  C     6.704134  9.782796 -3.685307
  N     7.558532  5.579543 -4.501480
  N     5.641860  6.709001 -5.829827
  N     4.744427  6.415303 -2.018264
  N     7.773750  9.820962 -4.454462
  N     5.654015 10.304276 -5.599767
  N     4.963012  9.891752 -1.825833
  S     7.143893  6.066844 -6.106582
  S     4.014378  6.838622 -3.446756
  S     6.313798  5.788490 -2.098087
  S     7.241939 10.048371 -5.982600
  S     4.091319 10.192811 -3.271804
  S     6.569825  9.425191 -1.956890
