16  
    
  C     5.541910  5.836579 -4.380292
  C     6.805931  5.310711 -3.901814
  C     5.431679  9.880763 -4.585516
  C     6.608289  9.222092 -4.060174
  N     7.758188  5.215509 -4.823642
  N     5.528704  6.038577 -5.727089
  N     5.183629  5.560950 -1.832488
  N     7.552117  8.868918 -4.952181
  N     5.513187 10.068483 -5.887320
  N     4.995316  9.839244 -2.135113
  S     7.066182  5.632685 -6.243511
  S     4.302988  6.115056 -3.178267
  S     6.704994  4.968991 -2.126939
  S     6.877084  9.293801 -6.448770
  S     4.199395 10.371791 -3.472685
  S     6.460884  9.070993 -2.317673
