16  
    
  C     5.702971  5.420549 -4.185350
  C     6.866759  4.924155 -3.512007
  C     5.424585  9.317799 -4.660674
  C     6.631674  8.824228 -4.044126
  N     7.903391  4.680076 -4.337485
  N     5.827506  5.685569 -5.496041
  N     5.098252  5.096887 -1.673121
  N     7.655528  8.586969 -4.831545
  N     5.571979  9.488960 -5.963475
  N     4.841935  9.182786 -2.165109
  S     7.416004  5.296983 -5.805912
  S     4.302286  5.386296 -3.092540
  S     6.723684  4.810674 -1.763521
  S     7.101233  9.005106 -6.329411
  S     4.123619  9.723042 -3.622456
  S     6.464982  8.860754 -2.286843
