16  
    
  C     5.528095  6.077877 -4.304589
  C     6.592377  5.493972 -3.624945
  C     5.686733  9.661563 -4.231382
  C     6.823502  9.024497 -3.581012
  N     7.615220  5.221602 -4.395996
  N     5.685716  6.271603 -5.602731
  N     4.686261  5.666319 -1.950744
  N     7.828479  8.717457 -4.365059
  N     5.899035  9.908831 -5.516168
  N     5.219763  9.576858 -1.721944
  S     7.248822  5.680266 -5.961768
  S     4.052124  6.290006 -3.378309
  S     6.277810  5.183456 -1.914874
  S     7.371704  9.254850 -5.894053
  S     4.394889  9.924691 -3.146400
  S     6.675210  8.816257 -1.846152
