16  
    
  C     5.700184  6.279600 -4.200613
  C     6.919310  5.661313 -3.660457
  C     5.936664  9.600130 -4.180756
  C     7.171403  9.102216 -3.622798
  N     7.904613  5.359678 -4.535265
  N     5.811085  6.563176 -5.509304
  N     5.130988  5.635915 -1.735364
  N     8.075476  8.733846 -4.561321
  N     5.901071  9.688210 -5.505406
  N     5.465574  9.499682 -1.636133
  S     7.282880  5.984119 -5.959108
  S     4.339050  6.331794 -3.054918
  S     6.722058  5.316612 -1.939468
  S     7.368226  9.162223 -6.051002
  S     4.634316  9.759169 -3.027818
  S     6.985268  8.784249 -1.939421
