16  
    
  C     5.481621  6.032233 -4.469239
  C     6.667879  5.442255 -3.865676
  C     5.363076  9.830001 -4.536435
  C     6.538507  9.340531 -3.884969
  N     7.644450  5.232728 -4.739667
  N     5.551390  6.223669 -5.785460
  N     4.978431  5.776401 -1.988193
  N     7.588823  9.156170 -4.662263
  N     5.568448 10.094155 -5.828761
  N     4.883799  9.683038 -2.009726
  S     7.117785  5.669214 -6.251042
  S     4.170210  6.368149 -3.302655
  S     6.574454  5.377652 -2.109131
  S     7.205400  9.723841 -6.128857
  S     4.054455  9.912396 -3.367600
  S     6.475942  9.033114 -2.168095
