16  
    
  C     5.204835  5.254358 -4.011891
  C     6.440795  4.914591 -3.308760
  C     5.311114  9.359513 -4.268255
  C     6.558543  9.119076 -3.578481
  N     7.460420  4.688235 -4.113902
  N     5.268107  5.357650 -5.332068
  N     4.563202  5.122328 -1.554006
  N     7.637611  8.952679 -4.349064
  N     5.443985  9.420598 -5.573577
  N     4.796272  9.291830 -1.721019
  S     6.883835  5.109079 -5.650552
  S     3.839079  5.332676 -2.988763
  S     6.166529  4.716453 -1.660755
  S     7.011292  9.054595 -5.919017
  S     3.999314  9.653080 -3.125797
  S     6.430253  8.886921 -1.893280
