16  
    
  C     5.770758  5.660012 -4.265321
  C     6.923271  5.156314 -3.660893
  C     5.472275  9.415780 -4.512077
  C     6.599969  8.852354 -3.805695
  N     7.945952  5.031472 -4.476192
  N     5.903674  5.852679 -5.567010
  N     5.205078  5.393183 -1.797828
  N     7.593368  8.515406 -4.615414
  N     5.673947  9.658748 -5.791134
  N     4.783164  9.203777 -1.982010
  S     7.426914  5.352630 -6.045257
  S     4.450614  6.007043 -3.164687
  S     6.790205  4.977991 -1.938920
  S     7.269610  9.065964 -6.134144
  S     4.123472  9.627009 -3.423874
  S     6.363423  8.592117 -2.071442
