16  
    
  C     5.313332  5.499809 -4.323461
  C     6.506446  4.938578 -3.714174
  C     5.517919  9.135336 -4.396299
  C     6.636062  8.406556 -3.835852
  N     7.486180  4.662467 -4.565306
  N     5.464491  5.738570 -5.619643
  N     4.726543  5.130798 -1.887975
  N     7.721691  8.262976 -4.584854
  N     5.793568  9.593460 -5.598413
  N     4.911405  8.781443 -1.968839
  S     7.065984  5.317226 -5.997642
  S     3.956818  5.834677 -3.244970
  S     6.287203  4.550801 -2.080156
  S     7.270544  9.069285 -6.035544
  S     4.258338  9.517583 -3.296171
  S     6.254624  7.858744 -2.252569
