16  
    
  C     5.600183  5.871182 -4.292764
  C     6.752735  5.166850 -3.711132
  C     5.627078  9.273928 -4.401332
  C     6.807069  8.805954 -3.748093
  N     7.651441  4.740989 -4.615010
  N     5.681800  5.997553 -5.606607
  N     4.941198  5.394598 -1.806732
  N     7.840140  8.665551 -4.598846
  N     5.750261  9.505171 -5.712384
  N     5.070974  9.131263 -1.843445
  S     7.109597  5.397475 -6.095529
  S     4.298113  6.020572 -3.194327
  S     6.575526  5.018069 -1.977114
  S     7.292618  9.000442 -6.088240
  S     4.269367  9.444932 -3.281477
  S     6.666686  8.652850 -2.030768
