16  
    
  C     5.382482  6.271761 -4.335641
  C     6.460193  5.668704 -3.612987
  C     5.501977  9.698543 -4.247024
  C     6.632556  9.203456 -3.555538
  N     7.548735  5.391287 -4.338122
  N     5.574478  6.334840 -5.660183
  N     4.617865  5.947724 -1.961098
  N     7.684625  8.795928 -4.271752
  N     5.699389  9.777258 -5.572252
  N     4.892558  9.643710 -1.722986
  S     7.055654  5.744532 -5.907049
  S     3.945336  6.546949 -3.346167
  S     6.248917  5.571308 -1.892106
  S     7.287597  9.278049 -5.813761
  S     4.237430 10.009265 -3.123245
  S     6.447223  8.948132 -1.800565
