16  
    
  C     5.552472  5.478176 -4.289698
  C     6.779126  5.409682 -3.564427
  C     5.288265 10.002570 -4.566151
  C     6.337749  9.248746 -3.984746
  N     7.839798  5.291516 -4.360142
  N     5.626138  5.491875 -5.586709
  N     4.986939  5.488207 -1.761973
  N     7.352695  8.978767 -4.809551
  N     5.458649 10.310250 -5.876751
  N     4.579366  9.712676 -2.175260
  S     7.207814  5.332749 -5.986873
  S     4.207121  5.624966 -3.209984
  S     6.630024  5.376068 -1.852665
  S     6.902670  9.532543 -6.310282
  S     4.007683 10.497966 -3.459158
  S     6.133911  9.152202 -2.285653
