16  
    
  C     5.633647  5.714122 -4.441320
  C     6.964838  5.384047 -3.851089
  C     5.198660  9.605707 -4.373868
  C     6.431906  9.131793 -3.749229
  N     7.974272  5.253395 -4.743938
  N     5.648307  5.735531 -5.781212
  N     5.268258  5.688415 -1.870797
  N     7.383879  8.850060 -4.613548
  N     5.271786  9.765552 -5.692342
  N     4.770459  9.540678 -1.871184
  S     7.194805  5.477404 -6.204876
  S     4.361131  5.879723 -3.275845
  S     6.819841  5.184333 -2.069900
  S     6.795531  9.327250 -6.126668
  S     3.959738 10.165874 -3.205657
  S     6.399339  9.126589 -2.069083
