16  
    
  C     5.208052  6.268858 -4.373919
  C     6.329393  5.579917 -3.654549
  C     5.627826  9.612728 -4.213614
  C     6.792067  9.029590 -3.563848
  N     7.411564  5.346950 -4.414584
  N     5.484466  6.525805 -5.673770
  N     4.561025  6.230302 -1.861696
  N     7.698988  8.681231 -4.407248
  N     5.740051  9.788419 -5.509346
  N     5.182053  9.490897 -1.662506
  S     6.957728  5.861023 -5.959195
  S     3.862663  6.590887 -3.327412
  S     6.121403  5.585271 -1.898969
  S     7.232850  9.215289 -5.920199
  S     4.335619  9.842574 -3.050467
  S     6.800191  8.950115 -1.818957
