16  
    
  C     5.591848  5.693321 -4.350928
  C     6.731675  5.094120 -3.680155
  C     5.410930  9.923819 -4.512555
  C     6.609243  9.338610 -3.953795
  N     7.745793  4.912878 -4.493114
  N     5.773369  5.897156 -5.629671
  N     4.956751  5.637235 -1.880790
  N     7.607221  9.068638 -4.820611
  N     5.558509 10.193219 -5.804516
  N     4.913675  9.325120 -2.024779
  S     7.324953  5.410462 -6.051062
  S     4.205017  5.806446 -3.373047
  S     6.494296  4.904078 -2.026165
  S     7.078430  9.546641 -6.279984
  S     4.131709 10.040777 -3.298699
  S     6.529340  9.016719 -2.253503
