16  
    
  C     5.493579  5.933744 -4.509091
  C     6.813593  5.622612 -3.837827
  C     5.428722  9.486494 -4.334448
  C     6.682678  9.040351 -3.747190
  N     7.841196  5.388666 -4.660691
  N     5.598923  5.967853 -5.848064
  N     5.029940  5.766946 -1.934151
  N     7.670294  8.855036 -4.653490
  N     5.437779  9.717689 -5.624584
  N     5.000770  9.437884 -1.814615
  S     7.194531  5.651009 -6.163837
  S     4.170734  5.915525 -3.363675
  S     6.650440  5.472384 -2.118298
  S     6.958506  9.315648 -6.136853
  S     4.155650  9.860186 -3.234371
  S     6.611908  9.228108 -2.036863
