16  
    
  C     5.370460  6.015865 -4.305730
  C     6.508261  5.429509 -3.657309
  C     5.755048  9.649465 -4.173719
  C     6.848390  8.994063 -3.522317
  N     7.535164  5.133131 -4.437736
  N     5.570028  6.179491 -5.600387
  N     4.690444  5.747280 -1.876950
  N     7.855736  8.701797 -4.307903
  N     5.962012  9.923267 -5.435568
  N     4.959424  9.396756 -1.749355
  S     7.162652  5.648078 -5.976353
  S     3.985410  6.206142 -3.331268
  S     6.255988  5.319586 -1.956341
  S     7.423612  9.263108 -5.839687
  S     4.303618 10.049181 -3.158164
  S     6.508878  8.809491 -1.808038
