16  
    
  C     5.190928  6.247862 -4.280098
  C     6.364742  5.765292 -3.588434
  C     5.703402  9.611167 -4.101536
  C     6.858854  8.986488 -3.499006
  N     7.375689  5.429081 -4.402726
  N     5.403549  6.302504 -5.595846
  N     4.476214  6.026734 -1.870096
  N     7.748528  8.617192 -4.366964
  N     5.738914  9.796081 -5.399377
  N     5.225485  9.472732 -1.571517
  S     6.938274  5.786908 -5.913813
  S     3.844745  6.496728 -3.302928
  S     6.078402  5.610681 -1.918276
  S     7.146124  9.102485 -5.879160
  S     4.391231  9.875524 -2.958407
  S     6.753541  8.959469 -1.797335
