16  
    
  C     5.559145  6.159308 -4.352753
  C     6.808068  5.527177 -3.796802
  C     5.513669  9.562671 -4.271815
  C     6.780019  9.078409 -3.683668
  N     7.791365  5.295270 -4.707546
  N     5.615100  6.294937 -5.682088
  N     5.047326  5.648394 -1.888689
  N     7.750157  8.932035 -4.557443
  N     5.633901  9.924793 -5.506728
  N     5.112553  9.404297 -1.757277
  S     7.132782  5.884625 -6.137027
  S     4.302630  6.327726 -3.219492
  S     6.643950  5.349817 -2.094157
  S     7.145721  9.458438 -5.992569
  S     4.166521  9.678519 -3.120830
  S     6.703360  8.956394 -2.011186
