16  
    
  C     5.532116  5.959834 -4.481007
  C     6.791094  5.626161 -3.939650
  C     5.802381  9.434958 -4.233140
  C     7.069151  9.139818 -3.649398
  N     7.802770  5.599094 -4.813756
  N     5.600851  6.242051 -5.815291
  N     5.017506  5.606969 -1.993739
  N     8.129615  9.085006 -4.476936
  N     5.823828  9.542702 -5.540496
  N     5.356296  9.223899 -1.706857
  S     7.158501  6.042001 -6.296929
  S     4.191030  5.970515 -3.425546
  S     6.626696  5.312886 -2.145591
  S     7.401425  9.280935 -6.014501
  S     4.492267  9.551208 -3.127680
  S     6.918959  8.785099 -1.898894
