16  
    
  C     5.799465  5.575760 -4.304948
  C     6.926643  5.079221 -3.681695
  C     5.593370  9.541354 -4.320251
  C     6.704234  8.921219 -3.677368
  N     8.035168  5.038605 -4.399852
  N     6.058750  5.969836 -5.538395
  N     5.133795  5.283837 -1.921718
  N     7.764946  8.865546 -4.477810
  N     5.735880  9.814081 -5.610346
  N     4.809710  8.598770 -1.998180
  S     7.620308  5.584668 -5.954552
  S     4.421633  5.812998 -3.312962
  S     6.625524  4.643246 -2.022887
  S     7.327510  9.383786 -5.931942
  S     4.197172  9.576790 -3.244470
  S     6.432187  8.285786 -2.132217
