16  
    
  C     5.462081  5.821839 -4.505761
  C     6.714216  5.546246 -3.842611
  C     5.593305  9.352237 -4.171506
  C     6.790735  8.978074 -3.481198
  N     7.744119  5.486257 -4.647525
  N     5.573546  5.927605 -5.823667
  N     4.968318  5.710812 -1.999103
  N     7.848350  8.901308 -4.291888
  N     5.724535  9.531032 -5.475018
  N     5.096688  9.192065 -1.654731
  S     7.164941  5.584309 -6.183604
  S     4.197195  6.149619 -3.414919
  S     6.559961  5.393506 -2.111790
  S     7.286157  9.183078 -5.842085
  S     4.256316  9.484707 -3.049635
  S     6.732126  8.818462 -1.783703
