16  
    
  C     5.119589  5.236722 -4.074745
  C     6.351206  4.784449 -3.466953
  C     5.401473  9.322424 -4.271842
  C     6.621319  8.944598 -3.609084
  N     7.404356  4.729383 -4.294121
  N     5.306213  5.460392 -5.361228
  N     4.542219  5.070525 -1.579238
  N     7.623008  8.834496 -4.497598
  N     5.428666  9.419364 -5.576834
  N     4.876878  9.400709 -1.763713
  S     6.834164  5.022779 -5.802173
  S     3.767204  5.506035 -3.030671
  S     6.180160  4.703886 -1.670299
  S     7.033059  9.149399 -5.976155
  S     4.061803  9.632144 -3.199472
  S     6.460528  9.001981 -1.898648
