16  
    
  C     5.414264  5.635629 -4.346621
  C     6.641160  5.064627 -3.795005
  C     5.780109  9.107031 -4.325603
  C     6.958887  8.767551 -3.590052
  N     7.632546  5.037937 -4.668022
  N     5.480892  5.876399 -5.659107
  N     5.106074  5.714044 -1.835866
  N     8.010336  8.601142 -4.360177
  N     5.850359  9.053748 -5.661236
  N     5.120928  9.283204 -1.848780
  S     7.057804  5.444533 -6.137972
  S     4.233333  6.140428 -3.269689
  S     6.643005  5.058480 -2.024251
  S     7.482904  8.824674 -5.960296
  S     4.443993  9.504801 -3.319833
  S     6.716741  8.794840 -1.875675
