16  
    
  C     5.602397  5.649686 -4.237005
  C     6.934425  5.212992 -3.693259
  C     5.553074  9.399547 -4.468400
  C     6.627159  8.711386 -3.784377
  N     7.937778  5.143008 -4.590225
  N     5.656831  5.913467 -5.546890
  N     5.275576  5.215184 -1.670358
  N     7.681895  8.465621 -4.542923
  N     5.805736  9.835580 -5.708714
  N     4.737277  9.039146 -2.031755
  S     7.212969  5.506248 -6.013439
  S     4.367596  5.545396 -2.994638
  S     6.938263  4.966807 -1.963719
  S     7.305495  9.221864 -6.060434
  S     4.137074  9.573232 -3.451513
  S     6.301128  8.415446 -2.135313
