16  
    
  C     5.373967  6.031475 -4.403257
  C     6.607981  5.620457 -3.765398
  C     5.667551  9.681485 -4.399330
  C     6.824167  9.097742 -3.754973
  N     7.678691  5.477614 -4.484345
  N     5.516344  6.124173 -5.716131
  N     4.869029  5.942184 -1.868596
  N     7.881584  8.872399 -4.542171
  N     5.902358  9.917335 -5.684737
  N     5.077610  9.468850 -1.934607
  S     7.086325  5.758401 -6.118819
  S     4.092544  6.366907 -3.247561
  S     6.426480  5.345750 -2.038944
  S     7.400763  9.269400 -6.085922
  S     4.347302 10.018766 -3.338308
  S     6.612395  8.854856 -2.095357
