16  
    
  C     5.573223  6.267494 -4.651774
  C     6.560341  5.567787 -3.932033
  C     5.638312  9.649080 -4.522759
  C     6.819863  9.131515 -3.818680
  N     7.680700  5.325091 -4.614630
  N     5.851670  6.618112 -5.922592
  N     4.579642  5.732695 -2.332291
  N     7.952589  9.043916 -4.516235
  N     5.851666  9.859836 -5.803080
  N     5.024191  9.196614 -1.963860
  S     7.399578  5.974411 -6.153430
  S     4.202496  6.485535 -3.733058
  S     6.161930  5.228033 -2.267373
  S     7.478573  9.535977 -6.094791
  S     4.292273  9.784214 -3.372657
  S     6.632335  8.786776 -2.131369
