16  
    
  C     5.331730  5.976754 -4.427670
  C     6.581954  5.482284 -3.738088
  C     5.492540  9.216687 -4.203788
  C     6.726535  8.884558 -3.559785
  N     7.590904  5.272296 -4.586549
  N     5.445444  6.238536 -5.713596
  N     4.699402  5.552684 -1.990118
  N     7.698377  8.900410 -4.462723
  N     5.473827  9.347924 -5.530212
  N     4.895389  9.269731 -1.684215
  S     7.001915  5.779785 -6.061571
  S     4.027831  6.217472 -3.353496
  S     6.360864  5.193571 -2.055934
  S     6.999951  9.015992 -6.005257
  S     4.175790  9.346856 -3.164764
  S     6.509950  8.733307 -1.831442
