16  
    
  C     5.827165  5.765227 -4.499789
  C     6.981946  5.407697 -3.762782
  C     5.471443  9.568908 -4.362013
  C     6.752461  9.286226 -3.741317
  N     8.038727  5.231984 -4.530636
  N     5.994947  5.802513 -5.823920
  N     5.234014  5.985969 -1.977640
  N     7.762488  9.263467 -4.592178
  N     5.555054  9.884676 -5.626390
  N     5.095760  9.057971 -1.797335
  S     7.612022  5.465114 -6.144626
  S     4.509761  6.193496 -3.493236
  S     6.760180  5.285495 -2.012298
  S     7.196301  9.573561 -6.056746
  S     4.219160  9.451065 -3.151622
  S     6.751343  8.860398 -2.032404
