16  
    
  C     5.768447  5.492647 -3.961999
  C     7.039752  5.187563 -3.388818
  C     5.502137  9.337927 -4.226842
  C     6.594261  8.774873 -3.477680
  N     8.004059  4.956099 -4.259836
  N     5.847371  5.577538 -5.278976
  N     5.356041  5.155006 -1.460632
  N     7.627340  8.513190 -4.307057
  N     5.709634  9.542820 -5.528344
  N     4.793791  9.330090 -1.746344
  S     7.413858  5.323275 -5.726320
  S     4.470555  5.499487 -2.843052
  S     6.965034  4.864685 -1.611579
  S     7.167201  8.919842 -5.841925
  S     4.115763  9.776574 -3.231099
  S     6.203420  8.398910 -1.811900
