16  
    
  C     5.806874  5.650811 -4.407028
  C     6.975497  5.060538 -3.648661
  C     5.561756  9.536213 -4.277780
  C     6.776205  8.985632 -3.707248
  N     8.061747  4.978608 -4.408335
  N     6.071646  6.019815 -5.654354
  N     5.074569  5.323237 -1.922432
  N     7.866983  8.962912 -4.460815
  N     5.751435  9.854958 -5.565140
  N     4.868184  8.703855 -1.951028
  S     7.655294  5.583564 -5.921064
  S     4.407343  5.814981 -3.342304
  S     6.631358  4.635549 -2.016186
  S     7.347025  9.404318 -5.948346
  S     4.204700  9.522215 -3.212659
  S     6.466566  8.257387 -2.146583
