16  
    
  C     5.680874  5.813381 -4.307305
  C     6.873436  5.307172 -3.772148
  C     5.623173  9.730718 -4.578496
  C     6.834298  9.296179 -3.919733
  N     7.789851  5.042852 -4.694613
  N     5.718293  6.013734 -5.620880
  N     5.223025  5.570743 -1.793944
  N     7.956799  9.256260 -4.676436
  N     5.809078 10.053515 -5.841798
  N     4.905659  9.024097 -2.180468
  S     7.224354  5.552713 -6.142568
  S     4.374544  5.958751 -3.145508
  S     6.771352  4.976031 -2.108086
  S     7.423975  9.771604 -6.176850
  S     4.191039  9.506960 -3.643238
  S     6.585408  8.916692 -2.221944
