16  
    
  C     5.411022  5.982403 -4.376130
  C     6.660827  5.443268 -3.888350
  C     5.562178  9.790402 -4.598806
  C     6.722352  9.120313 -4.093303
  N     7.596425  5.212961 -4.773471
  N     5.513648  6.233380 -5.691594
  N     5.031766  5.566910 -1.866866
  N     7.767216  8.863348 -4.922666
  N     5.722984  9.990078 -5.908648
  N     5.176187  9.733892 -2.042623
  S     7.000002  5.710268 -6.254558
  S     4.178751  6.185423 -3.174514
  S     6.670569  5.309883 -2.107981
  S     7.149854  9.320318 -6.379747
  S     4.405808 10.320820 -3.365784
  S     6.716033  8.935631 -2.348914
