16  
    
  C     5.652925  5.706548 -4.237306
  C     6.896895  5.254281 -3.608770
  C     5.684959  9.680649 -4.358897
  C     6.914166  9.165308 -3.783742
  N     7.888771  5.280866 -4.487785
  N     5.783209  5.973604 -5.542321
  N     5.210385  5.371292 -1.714933
  N     7.889045  8.905110 -4.636836
  N     5.832832  9.994064 -5.673245
  N     5.122288  8.970077 -1.992360
  S     7.338545  5.681663 -5.958137
  S     4.398649  5.666580 -3.109221
  S     6.801837  5.075671 -1.917034
  S     7.344751  9.422583 -6.127901
  S     4.375030  9.615194 -3.293488
  S     6.763435  8.810922 -2.032556
