16  
    
  C     5.863523  5.481879 -4.117962
  C     7.054343  4.972863 -3.420908
  C     5.681088  9.675549 -4.307562
  C     6.868534  9.113710 -3.739348
  N     8.195887  5.008950 -4.152868
  N     6.125439  5.706850 -5.389419
  N     5.032559  5.169199 -1.717174
  N     7.898497  9.104928 -4.573043
  N     5.778380  9.972376 -5.609736
  N     5.080288  8.893419 -1.894075
  S     7.672638  5.333916 -5.726593
  S     4.494307  5.856243 -3.163432
  S     6.608134  4.636050 -1.732826
  S     7.370924  9.712614 -5.984988
  S     4.336165  9.723064 -3.131592
  S     6.623240  8.502047 -2.146400
