16  
    
  C     5.690727  5.755291 -4.415652
  C     6.972738  5.277094 -3.956840
  C     5.644132  9.097944 -4.082542
  C     6.954789  8.645307 -3.652237
  N     7.927491  5.338229 -4.876455
  N     5.755917  6.246492 -5.661714
  N     5.339614  5.184530 -1.923125
  N     7.937047  8.609438 -4.524696
  N     5.733912  9.500200 -5.353377
  N     5.500900  8.821003 -1.567789
  S     7.350063  6.076027 -6.184745
  S     4.434625  5.849039 -3.127918
  S     6.896734  4.798490 -2.308454
  S     7.237864  9.269620 -5.882018
  S     4.517807  9.385022 -2.783910
  S     7.025006  8.355362 -1.945375
