16  
    
  C     5.546184  5.355116 -4.289162
  C     6.837346  5.269052 -3.553716
  C     5.695319  9.358759 -4.218655
  C     6.960904  9.235930 -3.533619
  N     7.895055  5.262039 -4.333986
  N     5.674525  5.436637 -5.597417
  N     5.012027  5.781291 -1.759989
  N     8.033043  9.277543 -4.345756
  N     5.735951  9.513220 -5.531278
  N     5.125434  8.898964 -1.735412
  S     7.321534  5.357630 -5.942430
  S     4.200614  5.792173 -3.259928
  S     6.662737  5.447369 -1.811777
  S     7.354959  9.405131 -5.934815
  S     4.336524  9.149223 -3.146643
  S     6.785937  8.796110 -1.880099
