16  
    
  C     5.510921  5.889814 -4.394390
  C     6.721467  5.649668 -3.696783
  C     5.637896  8.936942 -4.156717
  C     6.905180  8.701971 -3.531010
  N     7.773061  5.525417 -4.486731
  N     5.642977  5.952789 -5.689884
  N     4.851239  5.693046 -1.949985
  N     7.929733  8.755735 -4.378245
  N     5.676326  9.180444 -5.475557
  N     5.197608  8.816265 -1.590179
  S     7.261046  5.806348 -6.066656
  S     4.097446  5.925331 -3.386324
  S     6.485780  5.348766 -2.013798
  S     7.372695  9.172307 -5.859576
  S     4.285939  9.015388 -2.971329
  S     6.758392  8.467322 -1.849638
