16  
    
  C     5.623256  5.552434 -4.332611
  C     6.897797  5.198666 -3.747267
  C     5.736793  9.528575 -4.002357
  C     6.934395  8.886588 -3.488806
  N     7.925890  5.200235 -4.601928
  N     5.710290  5.724140 -5.655270
  N     5.101624  5.557292 -1.906884
  N     7.923829  8.833328 -4.342117
  N     5.780753  9.819556 -5.312112
  N     5.277533  8.807766 -1.519649
  S     7.299675  5.477155 -6.125271
  S     4.289982  5.902413 -3.345274
  S     6.774470  5.246217 -2.022945
  S     7.418875  9.448002 -5.782638
  S     4.492993  9.669495 -2.765596
  S     6.888312  8.496600 -1.794139
