16  
    
  C     5.450352  6.149236 -4.428187
  C     6.740356  5.681001 -3.966526
  C     5.512873  9.928660 -4.369511
  C     6.616125  9.253116 -3.737444
  N     7.620322  5.385785 -4.882012
  N     5.491849  6.364768 -5.731180
  N     5.217723  5.779370 -1.929379
  N     7.678044  9.062645 -4.529337
  N     5.644680 10.161902 -5.676347
  N     4.809095  9.571904 -1.870185
  S     6.971377  5.901557 -6.328324
  S     4.298876  6.374683 -3.151991
  S     6.802171  5.278336 -2.291517
  S     7.125756  9.496481 -6.037178
  S     4.161421 10.241389 -3.255043
  S     6.369671  9.028311 -2.076930
