16  
    
  C     5.359805  6.356205 -4.320793
  C     6.485707  5.794580 -3.736927
  C     5.513437  9.630304 -4.457108
  C     6.732789  9.266405 -3.769973
  N     7.463950  5.441812 -4.591232
  N     5.380255  6.369314 -5.669818
  N     4.679447  6.027088 -1.879230
  N     7.831230  9.153174 -4.478725
  N     5.735960  9.805004 -5.742443
  N     4.894701  9.620059 -1.895347
  S     6.865620  5.870078 -6.087456
  S     4.010448  6.705763 -3.221765
  S     6.266486  5.562476 -2.019429
  S     7.311552  9.438059 -6.093951
  S     4.113136  9.742759 -3.356897
  S     6.414359  8.979460 -2.107395
