16  
    
  C     5.172958  6.250073 -4.315423
  C     6.218294  5.557748 -3.592789
  C     5.739079  9.625843 -4.232183
  C     6.889744  9.042431 -3.596317
  N     7.186009  5.077944 -4.363442
  N     5.470055  6.444929 -5.596205
  N     4.450494  6.248077 -1.870283
  N     7.870490  8.974572 -4.443669
  N     5.749131  9.908268 -5.522199
  N     5.098726  9.402276 -1.705627
  S     6.943612  5.685013 -5.882570
  S     3.882761  6.735644 -3.317870
  S     5.877187  5.452227 -1.900207
  S     7.299556  9.392021 -5.959089
  S     4.419223  9.903634 -3.098551
  S     6.702353  8.831560 -1.814445
