16  
    
  C     5.680745  5.894620 -4.087776
  C     6.715934  5.056862 -3.516528
  C     5.715834  9.493150 -4.542767
  C     6.850641  8.842577 -3.946491
  N     7.553534  4.635893 -4.483876
  N     5.776088  6.147949 -5.400136
  N     5.078396  5.702135 -1.599283
  N     7.802694  8.525544 -4.798416
  N     5.914476  9.824689 -5.793551
  N     5.213698  9.463730 -2.011142
  S     7.156798  5.419917 -5.850399
  S     4.461151  6.376391 -2.947401
  S     6.365432  4.736116 -1.893440
  S     7.430453  9.140061 -6.243973
  S     4.401493  9.790214 -3.393644
  S     6.683505  8.706027 -2.240236
