16  
    
  C     5.409030  5.489195 -4.200032
  C     6.580767  5.049022 -3.431826
  C     5.632695  8.942623 -4.011651
  C     6.868567  8.565506 -3.415213
  N     7.593960  4.749328 -4.239441
  N     5.604165  5.631480 -5.503868
  N     4.739199  5.356459 -1.722607
  N     7.820754  8.308744 -4.280476
  N     5.732046  9.090892 -5.351971
  N     5.286139  8.936839 -1.452539
  S     7.235485  5.331427 -5.743567
  S     4.049308  5.832311 -3.192808
  S     6.404815  5.196245 -1.717738
  S     7.283203  8.605948 -5.753863
  S     4.408443  9.093761 -2.826983
  S     6.828138  8.346324 -1.667838
