16  
    
  C     5.682486  5.883734 -3.916041
  C     6.842136  5.220211 -3.444743
  C     5.599260  9.596205 -3.959974
  C     6.810694  8.998927 -3.401725
  N     7.912117  5.249323 -4.224582
  N     5.773957  6.274372 -5.188005
  N     5.060612  5.041454 -1.537616
  N     7.846888  8.902864 -4.235041
  N     5.681493  9.786071 -5.263148
  N     5.033236  8.972598 -1.522661
  S     7.351006  5.887625 -5.664780
  S     4.339277  5.865995 -2.763010
  S     6.641424  4.589481 -1.836461
  S     7.226442  9.384052 -5.773155
  S     4.274194  9.723913 -2.801339
  S     6.623036  8.518229 -1.719889
