16  
    
  C     5.729879  5.473219 -4.400319
  C     6.948140  5.218473 -3.675061
  C     5.361646  9.332789 -4.477002
  C     6.583909  8.959995 -3.822734
  N     7.944240  4.971739 -4.501696
  N     5.793485  5.547884 -5.744663
  N     5.183668  5.386963 -1.887032
  N     7.644679  8.701119 -4.567016
  N     5.504842  9.422783 -5.798223
  N     4.918324  9.412048 -1.931567
  S     7.439544  5.295602 -6.079810
  S     4.324991  5.512355 -3.317184
  S     6.802694  4.987015 -1.932103
  S     7.164069  8.920154 -6.115866
  S     4.151430  9.783634 -3.374659
  S     6.425930  8.775276 -2.103658
