16  
    
  C     5.377635  6.165030 -4.420905
  C     6.514651  5.564491 -3.771965
  C     5.566885  9.521173 -4.196808
  C     6.790840  9.072721 -3.545614
  N     7.566242  5.395969 -4.577385
  N     5.553661  6.371295 -5.725049
  N     4.645235  5.869652 -1.975881
  N     7.870184  8.990906 -4.324910
  N     5.720785  9.859346 -5.450056
  N     4.942972  9.417874 -1.727879
  S     7.101637  5.861900 -6.054182
  S     4.003683  6.452852 -3.438796
  S     6.257384  5.483971 -2.039348
  S     7.237548  9.428003 -5.835072
  S     4.144123  9.654262 -3.198037
  S     6.476110  8.920054 -1.791163
