16  
    
  C     5.600942  5.349065 -4.394917
  C     6.844425  5.078752 -3.699832
  C     5.495752  9.397753 -4.388612
  C     6.732526  9.043799 -3.698061
  N     7.955685  4.882356 -4.440125
  N     5.800270  5.479212 -5.718168
  N     5.054331  5.550445 -1.907159
  N     7.716947  8.835625 -4.547445
  N     5.543690  9.509715 -5.697411
  N     4.852729  9.033945 -1.992232
  S     7.423651  5.131622 -6.048317
  S     4.225836  5.597744 -3.360161
  S     6.647387  5.189270 -1.950368
  S     7.192634  9.114939 -6.098037
  S     4.175043  9.805214 -3.336257
  S     6.479354  8.851420 -1.963168
