16  
    
  C     5.706991  6.280088 -4.191225
  C     6.924435  5.664759 -3.661372
  C     5.924010  9.597939 -4.185911
  C     7.162781  9.085103 -3.634452
  N     7.902529  5.354469 -4.544440
  N     5.808778  6.561722 -5.510154
  N     5.139175  5.642006 -1.734207
  N     8.063244  8.724999 -4.561822
  N     5.887882  9.695743 -5.496248
  N     5.463092  9.476540 -1.639209
  S     7.284215  5.995402 -5.966567
  S     4.337150  6.319064 -3.054800
  S     6.718363  5.313747 -1.951788
  S     7.377153  9.157616 -6.049986
  S     4.633265  9.751683 -3.034587
  S     6.992197  8.786000 -1.932647
