16  
    
  C     5.741772  5.459753 -4.227044
  C     6.977738  5.017454 -3.535686
  C     5.405842  9.366717 -4.659098
  C     6.599465  8.938771 -3.941204
  N     8.063143  4.924278 -4.319332
  N     5.898324  5.666002 -5.543968
  N     5.101000  5.236542 -1.749275
  N     7.637726  8.761037 -4.731864
  N     5.537249  9.352858 -6.015562
  N     4.814401  9.122032 -2.076007
  S     7.481373  5.296832 -5.845313
  S     4.366940  5.691587 -3.171311
  S     6.699995  4.712156 -1.822335
  S     7.149595  9.045025 -6.274068
  S     4.113993  9.720625 -3.525076
  S     6.408119  8.646987 -2.223784
