16  
    
  C     5.112897  5.902049 -4.333683
  C     6.300301  5.389491 -3.688898
  C     5.437967  9.419573 -4.062350
  C     6.634058  8.904199 -3.451337
  N     7.380883  5.212300 -4.486280
  N     5.199233  6.107699 -5.662122
  N     4.631749  5.851244 -1.770620
  N     7.545746  8.550823 -4.371924
  N     5.463141  9.528341 -5.380750
  N     5.052408  9.455212 -1.507737
  S     6.758308  5.606242 -6.019865
  S     3.815127  6.151020 -3.193301
  S     6.209881  5.458257 -1.927035
  S     6.935290  8.969137 -5.906044
  S     4.245397  9.884317 -2.864335
  S     6.588611  8.792757 -1.651339
