16  
    
  C     5.590718  5.933861 -4.392528
  C     6.862567  5.488214 -3.837749
  C     5.732457  9.395444 -4.282816
  C     6.995123  8.984041 -3.676676
  N     7.899047  5.451642 -4.709144
  N     5.630558  6.122314 -5.734662
  N     5.161392  5.581643 -1.824730
  N     8.016174  8.927767 -4.506920
  N     5.851857  9.626151 -5.588879
  N     5.248544  9.151723 -1.758640
  S     7.218142  5.978622 -6.133716
  S     4.319648  6.143904 -3.178646
  S     6.705789  5.141396 -2.163104
  S     7.370785  9.392801 -6.021594
  S     4.444418  9.485483 -3.131627
  S     6.879293  8.703492 -1.896893
