16  
    
  C     5.220720  6.411831 -4.328263
  C     6.328711  5.777110 -3.717782
  C     5.766342  9.597714 -4.189394
  C     6.954537  9.069770 -3.635608
  N     7.340311  5.568346 -4.524622
  N     5.321710  6.628648 -5.635363
  N     4.544395  5.873219 -1.914286
  N     7.940018  8.724286 -4.478290
  N     5.891413  9.724846 -5.530758
  N     5.402277  9.624049 -1.712788
  S     6.857896  6.013432 -5.995402
  S     3.905132  6.613385 -3.255525
  S     6.168117  5.547028 -2.020905
  S     7.399575  9.219718 -5.962503
  S     4.556553  9.797563 -3.049863
  S     6.916408  8.932740 -1.892993
