16  
    
  C     5.710353  5.519083 -4.266393
  C     6.924234  5.248809 -3.569915
  C     5.192070  9.828163 -4.675355
  C     6.289454  9.270874 -3.948634
  N     7.971198  5.164380 -4.392660
  N     5.803754  5.519583 -5.639656
  N     5.105862  5.669609 -1.732796
  N     7.343333  8.978255 -4.710015
  N     5.387214 10.023485 -5.965100
  N     4.556422  9.811384 -2.155964
  S     7.457381  5.248030 -5.897723
  S     4.348106  5.716455 -3.197465
  S     6.740408  5.292702 -1.843478
  S     6.859637  9.364208 -6.245365
  S     3.786960 10.264998 -3.564008
  S     6.014453  9.145838 -2.267122
