16  
    
  C     5.512211  5.629346 -4.273202
  C     6.734862  5.230143 -3.592368
  C     5.537918  9.218897 -4.234045
  C     6.750365  8.794111 -3.567104
  N     7.822193  4.964410 -4.307643
  N     5.721101  5.697767 -5.596875
  N     5.003590  5.665844 -1.765900
  N     7.767987  8.659890 -4.377835
  N     5.639041  9.508634 -5.528019
  N     4.882002  9.032837 -1.739867
  S     7.335752  5.328565 -5.829823
  S     4.261503  6.065967 -3.209633
  S     6.483947  4.983089 -1.899286
  S     7.198145  9.148376 -5.946982
  S     4.205204  9.592115 -3.187432
  S     6.487931  8.560063 -1.864553
