16  
    
  C     5.923372  5.535739 -4.090705
  C     7.045651  4.968881 -3.402529
  C     5.668406  9.673772 -4.265342
  C     6.871445  9.084890 -3.737602
  N     8.149793  4.976852 -4.155846
  N     6.083064  5.771465 -5.388162
  N     5.073353  5.148060 -1.707061
  N     7.918079  9.137523 -4.583852
  N     5.760148  9.981288 -5.552818
  N     5.074645  8.888745 -1.886624
  S     7.678780  5.389588 -5.689464
  S     4.496724  5.849620 -3.122381
  S     6.600250  4.638271 -1.750126
  S     7.351862  9.753497 -5.997332
  S     4.340920  9.733420 -3.112899
  S     6.653837  8.471449 -2.129033
