16  
    
  C     5.229594  6.342972 -4.512776
  C     6.334427  5.742934 -3.832105
  C     5.411430  9.921843 -4.109411
  C     6.731430  9.654317 -3.593297
  N     7.462718  5.558717 -4.598283
  N     5.487478  6.568333 -5.797026
  N     4.528169  6.112669 -2.014694
  N     7.758865  9.570552 -4.430794
  N     5.417096 10.195529 -5.401235
  N     4.966678  9.321719 -1.615062
  S     7.103454  6.059973 -6.054755
  S     3.816187  6.431684 -3.488253
  S     6.044997  5.473146 -2.131704
  S     7.018146 10.082020 -5.874614
  S     4.146403  9.665415 -2.963973
  S     6.660514  9.232012 -1.856379
