16  
    
  C     5.551639  5.859075 -4.471396
  C     6.676903  5.312733 -3.789898
  C     5.580722  9.514205 -4.100338
  C     6.789138  8.954850 -3.593326
  N     7.714495  4.986303 -4.594709
  N     5.734608  6.194855 -5.738286
  N     4.762413  5.713142 -1.959199
  N     7.621885  8.734703 -4.598200
  N     5.478947  9.685725 -5.407277
  N     4.998259  9.207151 -1.634420
  S     7.263065  5.562724 -6.083868
  S     4.125131  6.141010 -3.449561
  S     6.337601  5.123315 -2.034413
  S     6.966236  9.365634 -6.010587
  S     4.222307  9.678869 -2.997333
  S     6.707415  8.783689 -1.831415
