16  
    
  C     5.564697  5.918955 -4.392990
  C     6.802324  5.611227 -3.736271
  C     5.802266  9.475264 -4.397456
  C     7.039512  9.150632 -3.704589
  N     7.833785  5.523703 -4.536157
  N     5.682891  6.038410 -5.751710
  N     5.006363  5.463773 -1.949342
  N     8.057504  8.960404 -4.525788
  N     5.898521  9.566260 -5.696912
  N     5.258253  9.381784 -1.893548
  S     7.279854  5.770317 -6.077940
  S     4.201633  6.086446 -3.307820
  S     6.652516  5.247073 -2.083254
  S     7.524322  9.352803 -6.056896
  S     4.377171  9.522838 -3.289026
  S     6.923607  9.031946 -2.006525
