16  
    
  C     5.284966  6.243031 -4.579882
  C     6.577868  5.961885 -4.020212
  C     5.642194  9.511458 -4.037541
  C     6.850333  8.999532 -3.471666
  N     7.567912  5.908817 -4.916353
  N     5.227339  6.446082 -5.856440
  N     4.859735  5.774605 -2.101652
  N     7.833757  9.037141 -4.330264
  N     5.674118  9.894392 -5.309989
  N     5.093132  9.013733 -1.593689
  S     6.782143  6.177765 -6.385277
  S     4.017446  6.386681 -3.400324
  S     6.473993  5.570239 -2.346744
  S     7.214196  9.609874 -5.745137
  S     4.317763  9.256420 -2.969106
  S     6.714859  8.546322 -1.806302
