16  
    
  C     5.532737  6.137145 -4.431406
  C     6.733223  5.658780 -3.832156
  C     5.393198  9.970537 -4.704509
  C     6.634108  9.703910 -4.003079
  N     7.744894  5.583172 -4.730737
  N     5.571958  6.339273 -5.752743
  N     4.926302  5.764842 -1.979588
  N     7.630774  9.593613 -4.851523
  N     5.407888 10.051018 -6.049699
  N     4.689015  9.523367 -2.202695
  S     7.141043  6.011064 -6.234715
  S     4.120064  6.167076 -3.372144
  S     6.544635  5.263004 -2.149033
  S     7.025489  9.863277 -6.403500
  S     4.008406  9.989211 -3.655418
  S     6.431040  9.415456 -2.263402
