16  
    
  C     5.608778  5.477570 -4.049827
  C     6.847534  5.043139 -3.420681
  C     5.807528  9.406156 -3.912557
  C     7.029084  9.056966 -3.241074
  N     7.864991  4.982605 -4.277494
  N     5.683266  5.740275 -5.370963
  N     5.190290  5.510804 -1.493845
  N     8.041699  8.827354 -4.051145
  N     5.926673  9.431545 -5.255103
  N     5.381008  9.159960 -1.368119
  S     7.180959  5.336666 -5.785660
  S     4.392088  5.830373 -2.886387
  S     6.766466  4.969855 -1.670662
  S     7.504049  9.056216 -5.557832
  S     4.511192  9.428644 -2.797806
  S     7.010157  8.821438 -1.529930
