16  
    
  C     5.633261  6.589789 -4.520859
  C     6.876440  6.079811 -3.926907
  C     5.500389 10.128129 -4.659084
  C     6.713350  9.598000 -3.967342
  N     7.885386  5.886143 -4.798363
  N     5.709978  6.699310 -5.842786
  N     5.041731  6.421483 -2.046734
  N     7.725079  9.314782 -4.740374
  N     5.711524 10.169363 -5.959778
  N     5.007549 10.145963 -2.126757
  S     7.261850  6.198819 -6.275229
  S     4.327389  7.001511 -3.438684
  S     6.563756  5.710007 -2.198130
  S     7.202185  9.579154 -6.278380
  S     4.244552 10.500011 -3.491884
  S     6.550571  9.408082 -2.202174
