16  
    
  C     5.431778  5.971487 -4.410727
  C     6.632332  5.608300 -3.704974
  C     5.273089  9.422338 -4.434081
  C     6.543217  9.187333 -3.811021
  N     7.678172  5.390775 -4.502556
  N     5.502060  5.986089 -5.758001
  N     4.794345  5.640773 -1.892654
  N     7.553749  9.019469 -4.639621
  N     5.317485  9.386360 -5.760484
  N     4.898171  9.313986 -1.872277
  S     7.081334  5.612674 -6.042713
  S     4.028837  6.085701 -3.299824
  S     6.378685  5.229073 -1.968292
  S     6.906113  9.101569 -6.146960
  S     4.080023  9.721638 -3.243130
  S     6.539661  9.084275 -2.040001
