16  
    
  C     5.457432  6.126723 -4.326521
  C     6.601846  5.771535 -3.613507
  C     5.648240  9.582993 -4.160211
  C     6.746538  9.058787 -3.471516
  N     7.643838  5.428562 -4.374872
  N     5.589331  6.226607 -5.640636
  N     4.645196  6.045427 -1.876761
  N     7.812824  8.884040 -4.278873
  N     5.759252  9.732974 -5.488920
  N     4.857623  9.445865 -1.718524
  S     7.192661  5.749628 -5.923493
  S     4.053611  6.492458 -3.427061
  S     6.228217  5.599806 -1.939563
  S     7.284440  9.246514 -5.830118
  S     4.198467 10.006164 -3.264105
  S     6.413834  9.010091 -1.770266
