16  
    
  C     5.637091  6.120829 -4.492155
  C     6.814843  5.700652 -3.817481
  C     5.541108  9.673441 -4.468449
  C     6.710105  9.239171 -3.755487
  N     7.880374  5.524866 -4.573234
  N     5.755561  6.181214 -5.828198
  N     4.950576  5.948918 -1.979941
  N     7.807025  8.995857 -4.471182
  N     5.763758  9.798042 -5.772898
  N     4.922380  9.395105 -1.920110
  S     7.378427  5.813849 -6.080562
  S     4.254069  6.333530 -3.419774
  S     6.550562  5.541805 -2.037459
  S     7.371855  9.428895 -6.003194
  S     4.182723  9.904680 -3.353878
  S     6.469724  8.983169 -2.093725
