16  
    
  C     5.383270  5.570133 -4.419822
  C     6.561635  5.203527 -3.683607
  C     5.478771  9.026441 -4.209163
  C     6.774764  8.889622 -3.578981
  N     7.643680  4.915539 -4.380392
  N     5.588650  5.620906 -5.729214
  N     4.711191  5.728858 -1.969682
  N     7.768080  8.756810 -4.430524
  N     5.510785  8.962983 -5.548577
  N     5.123057  9.171509 -1.699514
  S     7.166683  5.306944 -5.955309
  S     4.010978  5.862984 -3.489230
  S     6.215478  5.091304 -1.980071
  S     7.149311  8.696020 -5.902334
  S     4.181895  9.368437 -3.064451
  S     6.744099  8.896433 -1.873624
