16  
    
  C     5.526976  5.633951 -4.264631
  C     6.741242  5.250549 -3.582362
  C     5.535500  9.227010 -4.228274
  C     6.747695  8.796082 -3.556698
  N     7.818763  4.969630 -4.306737
  N     5.716052  5.683412 -5.593771
  N     5.001256  5.668133 -1.768522
  N     7.764756  8.666097 -4.373893
  N     5.636497  9.522537 -5.516245
  N     4.877162  9.020926 -1.737969
  S     7.348618  5.326891 -5.829316
  S     4.260755  6.068407 -3.207466
  S     6.478439  4.980226 -1.881227
  S     7.195497  9.143548 -5.938856
  S     4.209150  9.592117 -3.184737
  S     6.476791  8.560867 -1.852960
