16  
    
  C     5.625896  5.735239 -4.351959
  C     6.868678  5.243263 -3.787261
  C     5.229002  9.817799 -4.656133
  C     6.374472  9.220856 -4.006516
  N     7.835313  5.029945 -4.675120
  N     5.706732  5.919234 -5.665758
  N     5.189475  5.486024 -1.831206
  N     7.420046  8.908960 -4.819962
  N     5.399182  9.928743 -5.984565
  N     4.648019  9.742453 -2.165168
  S     7.271799  5.455861 -6.106693
  S     4.338938  6.006701 -3.178727
  S     6.780230  5.018642 -2.042207
  S     6.896788  9.326027 -6.330222
  S     3.983912 10.373042 -3.491764
  S     6.228478  9.131997 -2.259348
