16  
    
  C     5.589016  5.671042 -4.378080
  C     6.721589  5.143930 -3.709379
  C     5.446018  9.893137 -4.499737
  C     6.640519  9.249654 -3.985989
  N     7.777530  4.855813 -4.471827
  N     5.777902  5.910560 -5.681647
  N     4.964560  5.666196 -1.871104
  N     7.644465  9.068285 -4.803315
  N     5.571058 10.173599 -5.795683
  N     4.909440  9.306620 -2.055826
  S     7.315549  5.413141 -6.008244
  S     4.157996  5.816904 -3.342889
  S     6.416895  4.847496 -2.017732
  S     7.138720  9.605104 -6.305862
  S     4.086647 10.035583 -3.341106
  S     6.517195  8.984386 -2.271987
