16  
    
  C     5.749348  5.811349 -4.327800
  C     6.895539  5.228750 -3.723766
  C     5.531427  9.381242 -4.344359
  C     6.614341  8.678285 -3.736538
  N     7.825428  4.855669 -4.587187
  N     5.833388  5.991964 -5.631885
  N     5.197406  5.555784 -1.825732
  N     7.658510  8.441530 -4.538926
  N     5.777295  9.719198 -5.620797
  N     4.832319  9.186497 -1.927964
  S     7.335002  5.451501 -6.067181
  S     4.460695  6.058794 -3.217632
  S     6.799428  5.110448 -1.996071
  S     7.286740  9.076953 -5.957465
  S     4.166236  9.780718 -3.357282
  S     6.441840  8.684207 -2.050659
