16  
    
  C     5.346963  6.264545 -4.581107
  C     6.626004  5.882274 -4.057100
  C     5.671339  9.476834 -4.033775
  C     6.907252  9.009069 -3.480706
  N     7.551814  5.874549 -4.998547
  N     5.295879  6.416565 -5.877487
  N     4.899027  5.754919 -2.081751
  N     7.906516  8.822412 -4.376315
  N     5.709861  9.830073 -5.307388
  N     5.183598  8.936006 -1.577397
  S     6.823599  6.219801 -6.427124
  S     4.054541  6.271673 -3.409904
  S     6.533551  5.563645 -2.315236
  S     7.292028  9.550832 -5.774505
  S     4.274989  9.308450 -2.996544
  S     6.783547  8.584121 -1.798772
