16  
    
  C     5.690364  5.423220 -4.183708
  C     6.872398  4.910743 -3.502056
  C     5.418744  9.290088 -4.661574
  C     6.627724  8.829354 -4.031868
  N     7.898996  4.697769 -4.332280
  N     5.854865  5.680444 -5.477727
  N     5.086370  5.109230 -1.683330
  N     7.651226  8.612659 -4.846989
  N     5.561391  9.482978 -5.957604
  N     4.848254  9.161805 -2.164700
  S     7.433394  5.299695 -5.817023
  S     4.316515  5.405711 -3.096583
  S     6.714011  4.803864 -1.777345
  S     7.115611  9.004492 -6.321925
  S     4.117340  9.732512 -3.605118
  S     6.453809  8.851077 -2.291513
