16  
    
  C     5.632633  5.417572 -4.411110
  C     6.856644  5.080978 -3.739351
  C     5.465394  9.374275 -4.488675
  C     6.645836  8.946401 -3.776576
  N     7.991989  4.963261 -4.456403
  N     5.826623  5.540009 -5.734909
  N     5.095355  5.484375 -1.880678
  N     7.704235  8.771726 -4.565206
  N     5.585385  9.331090 -5.805648
  N     4.817271  9.228067 -1.913820
  S     7.406799  5.210009 -5.985888
  S     4.322267  5.519229 -3.328707
  S     6.722387  5.069967 -2.030356
  S     7.140534  9.031801 -6.148931
  S     4.151897  9.835684 -3.331430
  S     6.432554  8.837648 -2.078019
