16  
    
  C     5.663174  5.769727 -3.961285
  C     6.848641  5.139124 -3.397004
  C     5.547626  9.426276 -3.969725
  C     6.690846  8.825083 -3.325022
  N     7.952375  5.146397 -4.178867
  N     5.839836  6.168505 -5.204121
  N     4.977683  5.336985 -1.559860
  N     7.749328  8.703500 -4.108386
  N     5.660150  9.675359 -5.253377
  N     5.006663  9.201507 -1.477671
  S     7.383168  5.781533 -5.624763
  S     4.304627  5.890450 -2.994720
  S     6.583899  4.813343 -1.707274
  S     7.239118  9.308812 -5.626957
  S     4.226787  9.706751 -2.859923
  S     6.518524  8.557773 -1.661281
