16  
    
  C     5.151210  5.471232 -4.156208
  C     6.345601  4.894179 -3.549932
  C     5.467318  9.369793 -4.328468
  C     6.679082  8.915295 -3.694031
  N     7.294170  4.497476 -4.387381
  N     5.252640  5.525628 -5.482115
  N     4.650506  5.168041 -1.663940
  N     7.657514  8.706802 -4.566942
  N     5.542902  9.633449 -5.653221
  N     4.941736  9.367065 -1.822922
  S     6.785315  5.025778 -5.851426
  S     3.911692  5.747222 -3.015581
  S     6.177183  4.700276 -1.883166
  S     7.144772  9.147414 -6.069842
  S     4.128527  9.625222 -3.280341
  S     6.533855  9.037152 -1.967796
