16  
    
  C     5.549161  5.652510 -4.361699
  C     6.607047  5.057976 -3.680715
  C     5.467219  9.755424 -4.578409
  C     6.654746  9.224709 -4.003030
  N     7.679641  4.924759 -4.432906
  N     5.725274  5.899802 -5.661044
  N     4.900139  5.594530 -1.889889
  N     7.682248  9.073998 -4.818658
  N     5.624524 10.098563 -5.862529
  N     4.829951  9.346926 -2.122203
  S     7.318914  5.403368 -5.988489
  S     4.152382  5.919234 -3.319463
  S     6.346728  4.772606 -1.999257
  S     7.155318  9.751430 -6.233286
  S     4.208776  9.988965 -3.497866
  S     6.432138  8.865269 -2.244509
