16  
    
  C     5.568860  6.634360 -4.580828
  C     6.721511  6.093759 -3.912358
  C     5.655151 10.142367 -4.515388
  C     6.785065  9.522976 -3.802463
  N     7.705004  5.832143 -4.750567
  N     5.627848  6.755652 -5.893029
  N     4.993844  6.510629 -2.041429
  N     7.765039  9.188731 -4.623187
  N     5.833470 10.328568 -5.824007
  N     4.920780  9.936321 -2.079766
  S     7.212911  6.193454 -6.208514
  S     4.297625  7.088514 -3.437584
  S     6.526901  5.905106 -2.200211
  S     7.277582  9.699482 -6.152751
  S     4.233224 10.534867 -3.497258
  S     6.500249  9.580779 -2.092763
