16  
    
  C     5.635679  5.651638 -4.450181
  C     6.884464  5.371530 -3.835372
  C     5.296650  9.701396 -4.427178
  C     6.503437  9.203784 -3.841765
  N     7.946001  5.188756 -4.628022
  N     5.692344  5.735556 -5.786749
  N     5.195835  5.474424 -1.898582
  N     7.502551  9.040194 -4.718302
  N     5.300479  9.891027 -5.741325
  N     4.959446  9.728763 -1.812150
  S     7.269035  5.406128 -6.144465
  S     4.330802  5.912236 -3.247210
  S     6.765413  5.117689 -2.066934
  S     6.872330  9.422190 -6.240394
  S     4.118441 10.122109 -3.191337
  S     6.452262  9.054871 -2.122190
