16  
    
  C     5.898473  6.066201 -4.461929
  C     7.041568  5.563457 -3.705544
  C     5.672070  9.502785 -4.419921
  C     6.883163  8.974685 -3.784299
  N     8.098578  5.292035 -4.461597
  N     6.095851  6.270060 -5.798039
  N     5.079697  5.594151 -2.020894
  N     7.941202  8.899886 -4.571450
  N     5.776922  9.711186 -5.693052
  N     5.132175  9.260991 -1.886962
  S     7.643315  5.668453 -6.024266
  S     4.432721  6.131364 -3.448358
  S     6.746787  5.421957 -1.911726
  S     7.393363  9.331243 -6.103840
  S     4.405624  9.831055 -3.256331
  S     6.726660  8.900526 -2.041580
