16  
    
  C     5.685255  5.883670 -4.475291
  C     6.888386  5.462076 -3.845998
  C     5.523355  9.458855 -4.317697
  C     6.794895  9.154983 -3.691424
  N     7.865590  5.135477 -4.708092
  N     5.792945  5.945840 -5.785644
  N     5.135156  5.511930 -2.003932
  N     7.779961  9.240214 -4.526823
  N     5.600009  9.739129 -5.624294
  N     5.122585  9.043929 -1.736114
  S     7.353556  5.521681 -6.249106
  S     4.368904  6.028309 -3.386581
  S     6.740741  5.302296 -2.145422
  S     7.204658  9.609190 -6.005986
  S     4.243217  9.336449 -3.121697
  S     6.788855  8.785203 -1.943648
