16  
    
  C     5.194319  6.386360 -4.264655
  C     6.318176  5.734662 -3.600042
  C     5.840905  9.573795 -4.180359
  C     7.070135  9.055428 -3.633612
  N     7.323698  5.562118 -4.468512
  N     5.319390  6.490704 -5.583820
  N     4.393221  5.948955 -1.873414
  N     8.024925  8.817622 -4.528384
  N     5.922405  9.783546 -5.457870
  N     5.392409  9.648472 -1.640985
  S     6.911694  5.990879 -5.981973
  S     3.830496  6.714609 -3.251135
  S     5.981110  5.432533 -1.963600
  S     7.367035  9.196339 -5.991424
  S     4.576777  9.910967 -3.048703
  S     6.946642  8.869548 -1.796718
