16  
    
  C     5.833505  5.712801 -4.356059
  C     6.965185  5.122678 -3.680393
  C     5.672771  9.514776 -4.261691
  C     6.877733  8.946619 -3.735797
  N     8.007409  4.920964 -4.465565
  N     6.099273  6.077510 -5.604393
  N     5.058088  5.292404 -1.998012
  N     7.912885  8.978040 -4.603388
  N     5.764069  9.872214 -5.526558
  N     5.096634  8.980545 -1.833583
  S     7.643090  5.587123 -5.980075
  S     4.392316  5.795861 -3.375330
  S     6.646633  4.814149 -2.050105
  S     7.364576  9.638336 -5.957642
  S     4.315401  9.407836 -3.254613
  S     6.645120  8.306679 -2.067328
