16  
    
  C     5.738449  5.378283 -4.166981
  C     6.884659  4.921961 -3.535879
  C     5.376458  9.280782 -4.677695
  C     6.591490  8.863165 -3.999503
  N     7.972456  4.824016 -4.312217
  N     5.912658  5.694728 -5.441640
  N     5.089449  5.164858 -1.688031
  N     7.644407  8.709130 -4.746370
  N     5.540090  9.407271 -5.995666
  N     4.797328  9.122488 -2.174339
  S     7.484812  5.290898 -5.844805
  S     4.341432  5.537677 -3.140816
  S     6.675602  4.760361 -1.828853
  S     7.155700  9.023922 -6.337482
  S     4.112054  9.745534 -3.508485
  S     6.439882  8.763889 -2.275156
