16  
    
  C     5.397844  5.466141 -4.204847
  C     6.584869  5.037688 -3.452652
  C     5.717197  8.962787 -3.983281
  C     6.979768  8.509940 -3.404250
  N     7.712867  4.832617 -4.199250
  N     5.638878  5.574425 -5.515746
  N     4.717251  5.495721 -1.735374
  N     8.016748  8.399342 -4.196767
  N     5.751948  9.044515 -5.303944
  N     5.371408  8.912981 -1.440272
  S     7.217706  5.183454 -5.778408
  S     4.002335  5.830666 -3.210615
  S     6.348450  5.197831 -1.752252
  S     7.333186  8.731964 -5.750207
  S     4.427776  9.114350 -2.802770
  S     6.843662  8.204130 -1.704519
