16  
    
  C     5.239661  6.229561 -4.512439
  C     6.404638  5.679945 -3.899317
  C     5.448821  9.595266 -4.087401
  C     6.737289  9.353143 -3.478060
  N     7.455032  5.627849 -4.768153
  N     5.369719  6.547152 -5.805428
  N     4.601332  5.948440 -2.074965
  N     7.743920  9.491642 -4.291380
  N     5.429770  9.936436 -5.391929
  N     5.030021  9.027001 -1.587776
  S     6.892386  6.167100 -6.224098
  S     3.876908  6.429329 -3.478600
  S     6.212022  5.522801 -2.207576
  S     7.079535  9.914992 -5.764603
  S     4.199937  9.538912 -2.920014
  S     6.681899  8.865435 -1.854643
