16  
    
  C     5.614566  5.905317 -4.281986
  C     6.776276  5.397149 -3.619790
  C     5.764690  9.510375 -4.425191
  C     6.968505  9.208251 -3.769952
  N     7.856570  5.228413 -4.425743
  N     5.687961  6.113538 -5.556906
  N     5.009176  5.933701 -1.825499
  N     8.018841  8.979826 -4.570662
  N     5.954777  9.617888 -5.760424
  N     5.045827  9.249239 -1.983608
  S     7.218164  5.743846 -6.018913
  S     4.251128  6.136804 -3.254880
  S     6.619506  5.368918 -1.893752
  S     7.520841  9.294064 -6.107072
  S     4.300596  9.548645 -3.483127
  S     6.688475  9.003182 -2.013825
