16  
    
  C     5.727006  5.730420 -4.314764
  C     6.924586  5.170766 -3.688381
  C     5.488159  9.416125 -4.493951
  C     6.574573  8.799684 -3.765728
  N     7.927403  4.953167 -4.526597
  N     5.861535  5.912235 -5.618908
  N     5.213311  5.427973 -1.797533
  N     7.585533  8.432343 -4.534248
  N     5.721305  9.680531 -5.806551
  N     4.815899  9.181290 -1.977699
  S     7.399209  5.389675 -6.039552
  S     4.455057  6.031898 -3.190758
  S     6.821469  5.024201 -1.926470
  S     7.275265  9.091228 -6.095783
  S     4.126731  9.659114 -3.386149
  S     6.383339  8.621310 -2.057426
