16  
    
  C     5.346544  5.580489 -4.430881
  C     6.443524  5.066462 -3.673797
  C     5.476425  9.144851 -4.291965
  C     6.717292  8.686310 -3.680153
  N     7.495314  4.815935 -4.404271
  N     5.579192  5.852613 -5.721901
  N     4.614646  5.370372 -1.936939
  N     7.674416  8.411299 -4.537488
  N     5.540467  9.286580 -5.620573
  N     4.918127  8.822711 -1.834338
  S     7.133862  5.203734 -5.966385
  S     3.978583  5.868859 -3.402809
  S     6.223316  4.923289 -1.979249
  S     7.120400  8.827104 -6.049344
  S     4.185916  9.364778 -3.223066
  S     6.531135  8.567810 -1.860632
