16  
    
  C     5.615051  6.094194 -4.494391
  C     6.795491  5.761784 -3.773362
  C     5.522111  9.650164 -4.494203
  C     6.694109  9.192584 -3.741209
  N     7.854155  5.551539 -4.570949
  N     5.772096  6.160302 -5.802007
  N     4.912591  5.969019 -1.947683
  N     7.802055  9.056086 -4.455180
  N     5.725293  9.830140 -5.814745
  N     4.901813  9.448989 -1.961357
  S     7.385668  5.807346 -6.086883
  S     4.292026  6.358710 -3.391540
  S     6.526383  5.564416 -2.058029
  S     7.379722  9.376887 -5.983285
  S     4.189445  9.900991 -3.341137
  S     6.508252  8.973900 -2.090192
