16  
    
  C     5.468479  5.913107 -4.272556
  C     6.579356  5.263946 -3.686807
  C     5.664031  9.982874 -4.560042
  C     6.663382  9.246839 -3.847052
  N     7.580346  4.902239 -4.503483
  N     5.654673  6.236929 -5.559711
  N     4.885156  5.656416 -1.762437
  N     7.751747  9.086993 -4.587272
  N     5.924402 10.277414 -5.829628
  N     4.685785  9.093466 -2.306982
  S     7.095567  5.461448 -5.974987
  S     4.150895  6.199664 -3.140808
  S     6.362722  4.885473 -1.944483
  S     7.420220  9.712985 -6.083516
  S     4.185882 10.009283 -3.563928
  S     6.294614  8.629166 -2.302911
