16  
    
  C     5.511236  5.812765 -4.351073
  C     6.602562  5.279930 -3.621377
  C     5.722409  9.250978 -4.177824
  C     6.997382  8.906874 -3.593661
  N     7.637521  5.050676 -4.411663
  N     5.687565  6.050812 -5.622914
  N     4.679993  5.584622 -1.934257
  N     8.022220  8.802400 -4.417585
  N     5.805207  9.383812 -5.500485
  N     5.216739  8.781503 -1.652453
  S     7.291693  5.615046 -5.940096
  S     4.098517  5.986561 -3.407720
  S     6.297792  5.088256 -1.928012
  S     7.410044  9.154658 -5.987920
  S     4.391035  8.982361 -3.073827
  S     6.854232  8.563716 -1.871864
