16  
    
  C     5.783154  5.797260 -3.974025
  C     6.898388  4.963550 -3.479612
  C     5.647232  9.650520 -4.164436
  C     6.825883  8.982743 -3.720832
  N     7.941565  4.871794 -4.292283
  N     6.059225  6.306724 -5.177592
  N     5.172482  5.118423 -1.572071
  N     7.842757  9.010909 -4.588269
  N     5.694620 10.106267 -5.401545
  N     5.171613  8.927583 -1.762310
  S     7.567651  5.661107 -5.658908
  S     4.391919  5.765655 -2.907175
  S     6.748741  4.594955 -1.769069
  S     7.268670  9.822347 -5.910426
  S     4.388126  9.648088 -2.999688
  S     6.733888  8.475307 -2.063669
