16  
    
  C     5.231063  6.230740 -4.236614
  C     6.334705  5.567427 -3.643084
  C     5.558264  9.706795 -4.199631
  C     6.714539  9.124784 -3.599601
  N     7.355027  5.310917 -4.449672
  N     5.405126  6.362864 -5.549986
  N     4.578512  5.904998 -1.852879
  N     7.675937  8.833144 -4.508204
  N     5.589006  9.992559 -5.514017
  N     5.101557  9.801161 -1.699830
  S     6.900464  5.838280 -5.961133
  S     3.896508  6.573737 -3.213862
  S     6.113930  5.445346 -1.920471
  S     7.055073  9.407932 -5.954471
  S     4.222500  9.994946 -3.136683
  S     6.477743  8.978012 -1.856757
