16  
    
  C     5.796601  5.595131 -4.262361
  C     6.987413  5.203351 -3.593597
  C     5.498867  9.384680 -4.523936
  C     6.691966  8.879308 -3.843338
  N     8.056505  5.001008 -4.394034
  N     5.858678  5.656723 -5.598630
  N     5.144659  5.307263 -1.728656
  N     7.753653  8.721136 -4.617077
  N     5.618449  9.527304 -5.822075
  N     4.812823  9.222049 -2.096595
  S     7.472271  5.323824 -5.916938
  S     4.463245  5.878815 -3.162754
  S     6.712244  4.805258 -1.895185
  S     7.108080  9.045924 -6.215507
  S     4.093818  9.633409 -3.514914
  S     6.343499  8.566044 -2.192807
