16  
    
  C     5.627683  6.133367 -4.490822
  C     6.823651  5.656377 -3.790481
  C     5.553978  9.691099 -4.429336
  C     6.723794  9.260804 -3.768361
  N     7.905949  5.498901 -4.554747
  N     5.759209  6.202317 -5.836269
  N     4.982549  5.932136 -2.000691
  N     7.806580  8.962154 -4.484053
  N     5.791629  9.781703 -5.734496
  N     4.912887  9.369922 -1.902337
  S     7.365155  5.821204 -6.097968
  S     4.224131  6.317339 -3.449069
  S     6.574665  5.526872 -2.031905
  S     7.365290  9.465420 -6.031109
  S     4.179210  9.906272 -3.369586
  S     6.455974  8.984585 -2.081491
