16  
    
  C     5.249486  6.302377 -4.524072
  C     6.391170  5.751305 -3.793409
  C     5.404208  9.973344 -4.136145
  C     6.677863  9.645955 -3.539681
  N     7.487627  5.577435 -4.468851
  N     5.510921  6.551453 -5.808030
  N     4.510405  6.094882 -2.031727
  N     7.671682  9.651094 -4.436672
  N     5.457695 10.281009 -5.450912
  N     5.052525  9.394987 -1.609889
  S     7.095311  6.054080 -6.050059
  S     3.809434  6.511692 -3.486682
  S     6.057155  5.476340 -2.127149
  S     7.029012 10.084637 -5.865526
  S     4.139533  9.699587 -3.005595
  S     6.649823  9.301680 -1.894822
