16  
    
  C     5.269019  5.798404 -4.495493
  C     6.461294  5.342885 -3.852516
  C     5.333590  9.582210 -4.526423
  C     6.523136  9.143720 -3.800897
  N     7.441420  5.169147 -4.732200
  N     5.334455  5.886414 -5.832742
  N     4.864428  5.727525 -1.941080
  N     7.542903  8.795816 -4.552311
  N     5.460982  9.575222 -5.823464
  N     4.800723  9.638539 -2.030430
  S     6.958995  5.644977 -6.237796
  S     4.057132  6.152430 -3.324492
  S     6.406460  5.241443 -2.116329
  S     7.016937  8.968137 -6.119559
  S     4.084381 10.113391 -3.467681
  S     6.311340  8.910759 -2.082531
