16  
    
  C     5.382159  6.077095 -4.419771
  C     6.698824  5.784500 -3.773079
  C     5.466723  9.747295 -4.298176
  C     6.682786  9.341984 -3.642171
  N     7.721405  5.693310 -4.598546
  N     5.441781  6.139563 -5.739704
  N     4.910979  5.914005 -1.882044
  N     7.713958  9.136917 -4.484991
  N     5.552189  9.830922 -5.659276
  N     4.935785  9.435835 -1.849235
  S     7.029176  5.842552 -6.127679
  S     4.059840  6.221128 -3.281683
  S     6.557335  5.591035 -2.038764
  S     7.124492  9.425777 -5.983564
  S     4.171726  9.916353 -3.232740
  S     6.468741  8.957274 -2.006600
