16  
    
  C     5.410917  6.109835 -4.183201
  C     6.716816  5.655762 -3.613283
  C     5.706399  9.656913 -4.416231
  C     6.853176  9.239886 -3.656207
  N     7.711371  5.527685 -4.511434
  N     5.437956  6.234020 -5.515965
  N     5.002289  5.705471 -1.600503
  N     7.875164  9.044235 -4.458064
  N     5.839228  9.711754 -5.751411
  N     4.846239  9.367041 -1.983044
  S     6.971757  5.792836 -5.964530
  S     4.158334  6.224956 -2.984099
  S     6.594178  5.236755 -1.890992
  S     7.366056  9.340243 -6.057789
  S     4.320860  9.926368 -3.437028
  S     6.493176  9.028832 -1.928061
