16  
    
  C     5.569993  5.967492 -4.456074
  C     6.638162  5.263865 -3.756563
  C     5.488784  9.599646 -4.145724
  C     6.734731  9.064419 -3.668544
  N     7.666767  4.978829 -4.567380
  N     5.813636  6.117060 -5.746720
  N     4.829765  5.677246 -2.022371
  N     7.714890  8.863248 -4.551537
  N     5.535130  9.922687 -5.428947
  N     5.155827  9.220988 -1.639181
  S     7.312739  5.547070 -6.145629
  S     4.137981  6.126449 -3.450144
  S     6.401512  5.126884 -2.029086
  S     7.009892  9.388380 -5.984590
  S     4.231751  9.729185 -2.984463
  S     6.682137  8.771683 -1.921895
