16  
    
  C     5.390966  5.963899 -4.392986
  C     6.548253  5.446999 -3.785549
  C     5.457847  9.261264 -4.182706
  C     6.701002  8.974458 -3.589833
  N     7.594395  5.317616 -4.606151
  N     5.455091  6.188381 -5.726835
  N     4.700527  5.575607 -1.983601
  N     7.708440  8.851678 -4.487780
  N     5.453065  9.321206 -5.506823
  N     4.886670  9.236064 -1.703671
  S     7.053991  5.748841 -6.061615
  S     4.052338  6.211944 -3.329460
  S     6.301930  5.173888 -2.073965
  S     7.001394  9.033853 -5.978601
  S     4.179026  9.394539 -3.122610
  S     6.535554  8.725806 -1.818727
