16  
    
  C     5.491485  6.062679 -4.406585
  C     6.765589  5.636577 -3.749419
  C     5.604214  9.390472 -4.433077
  C     6.864166  9.194742 -3.738846
  N     7.822082  5.450414 -4.563832
  N     5.591595  6.125860 -5.730496
  N     4.977816  5.738461 -1.932958
  N     7.867510  9.096094 -4.596523
  N     5.688199  9.506852 -5.781560
  N     5.079042  9.370972 -1.943037
  S     7.200940  5.738749 -6.065860
  S     4.172996  6.160718 -3.346486
  S     6.577741  5.645496 -2.050901
  S     7.297779  9.387634 -6.149550
  S     4.192240  9.459254 -3.389556
  S     6.630094  8.980088 -2.059873
