16  
    
  C     5.343250  6.065018 -4.403916
  C     6.634402  5.748127 -3.721753
  C     5.414403  9.770014 -4.377196
  C     6.617790  9.323432 -3.709215
  N     7.582479  5.663537 -4.619793
  N     5.430385  6.214189 -5.712166
  N     4.881788  5.965257 -1.858303
  N     7.706874  9.089144 -4.475662
  N     5.625196  9.840526 -5.730842
  N     4.795477  9.356457 -1.855847
  S     6.995991  5.885590 -6.139698
  S     4.047576  6.237464 -3.301772
  S     6.489911  5.658582 -2.001023
  S     7.222260  9.424490 -6.060729
  S     4.101194  9.960783 -3.263986
  S     6.495422  9.030721 -1.965495
