16  
    
  C     5.733295  5.774840 -4.356298
  C     6.936774  5.202378 -3.700966
  C     5.489065  9.439364 -4.463913
  C     6.569470  8.727516 -3.788037
  N     7.913744  4.867394 -4.569136
  N     5.815692  5.964458 -5.690524
  N     5.189928  5.481743 -1.805013
  N     7.629122  8.402663 -4.518831
  N     5.772789  9.678223 -5.736769
  N     4.851134  9.162796 -1.953479
  S     7.362384  5.429490 -6.022143
  S     4.459553  6.045995 -3.201842
  S     6.836815  5.064449 -1.936136
  S     7.267425  9.097310 -6.027434
  S     4.131903  9.705882 -3.371506
  S     6.402170  8.654407 -2.049950
