16  
    
  C     5.544178  5.322450 -4.160041
  C     6.817831  5.104255 -3.512987
  C     5.372826  9.248756 -4.375878
  C     6.577279  8.747607 -3.762783
  N     7.841566  4.979217 -4.365916
  N     5.606764  5.354355 -5.491230
  N     4.943048  5.212444 -1.665793
  N     7.522016  8.498523 -4.664908
  N     5.422527  9.354267 -5.706924
  N     4.897522  9.040287 -1.843956
  S     7.227327  5.132346 -5.850018
  S     4.245413  5.435398 -3.106966
  S     6.596666  4.928323 -1.735461
  S     6.929145  8.795781 -6.149929
  S     4.160323  9.711034 -3.152498
  S     6.470402  8.502408 -2.057912
