16  
    
  C     5.531636  5.078455 -4.230526
  C     6.844827  5.076483 -3.625233
  C     5.361834  9.180028 -4.523381
  C     6.561489  8.737374 -3.868621
  N     7.784534  5.102693 -4.574791
  N     5.455249  5.244162 -5.547379
  N     5.152592  5.246123 -1.646456
  N     7.584200  8.415878 -4.679882
  N     5.567943  9.341478 -5.836452
  N     4.794088  9.088612 -1.991413
  S     7.068116  5.112081 -6.020631
  S     4.242544  5.194504 -3.014345
  S     6.837411  5.065790 -1.879798
  S     7.147293  8.908754 -6.159122
  S     4.082942  9.548172 -3.410950
  S     6.422094  8.744166 -2.106568
