16  
    
  C     5.573613  6.161456 -4.427538
  C     6.828452  5.729917 -3.717611
  C     5.631745  9.606253 -4.407034
  C     6.821584  9.219681 -3.707297
  N     7.889165  5.615646 -4.537951
  N     5.714604  6.162940 -5.770871
  N     4.925891  6.020561 -2.013477
  N     7.843383  8.989288 -4.537439
  N     5.753336  9.709974 -5.734091
  N     4.971770  9.601025 -1.902765
  S     7.308318  5.798804 -6.052917
  S     4.189890  6.498991 -3.417876
  S     6.577313  5.645502 -1.984161
  S     7.299956  9.332907 -6.089346
  S     4.204294  9.888033 -3.410713
  S     6.521494  8.992377 -1.992726
