16  
    
  C     5.354044  5.702458 -4.507697
  C     6.501416  5.230108 -3.749237
  C     5.310846  9.442009 -4.383555
  C     6.517476  8.987247 -3.688838
  N     7.566942  5.048890 -4.537800
  N     5.594060  5.818331 -5.810004
  N     4.658415  5.757114 -2.047937
  N     7.463313  8.750151 -4.555384
  N     5.336580  9.590692 -5.692102
  N     4.756686  9.460808 -1.858146
  S     7.220488  5.521683 -6.095362
  S     4.042603  6.168008 -3.542789
  S     6.255565  5.287161 -2.042301
  S     6.920127  9.094222 -6.085913
  S     3.988703  9.684322 -3.338942
  S     6.363461  8.875233 -1.920946
