16  
    
  C     5.618702  5.856550 -4.478639
  C     6.869306  5.484080 -3.830712
  C     5.087083  9.645714 -4.424385
  C     6.258439  9.161523 -3.746770
  N     7.860485  5.253783 -4.708123
  N     5.670541  5.913712 -5.820780
  N     5.049727  5.729743 -1.932857
  N     7.321833  8.738151 -4.443684
  N     5.313513  9.614870 -5.713416
  N     4.602167  9.890440 -1.941477
  S     7.240021  5.571829 -6.204118
  S     4.215627  5.834992 -3.401101
  S     6.679697  5.320651 -2.114030
  S     6.780468  9.026706 -6.006633
  S     3.767288 10.090282 -3.360091
  S     6.125351  9.181298 -2.044906
