16  
    
  C     5.529956  5.978775 -4.483924
  C     6.594972  5.442725 -3.696104
  C     5.795101  9.342102 -4.297187
  C     7.050409  8.988884 -3.633294
  N     7.704556  5.181238 -4.348612
  N     5.807302  6.142871 -5.771025
  N     4.668131  5.590972 -2.069212
  N     8.109515  8.991435 -4.450021
  N     5.847172  9.609716 -5.596278
  N     5.145829  9.004098 -1.826856
  S     7.402810  5.627644 -5.922840
  S     4.123667  6.073647 -3.539198
  S     6.254027  5.272676 -1.990342
  S     7.460189  9.454759 -6.001963
  S     4.436489  9.432292 -3.258733
  S     6.843510  8.823584 -1.864970
