16  
    
  C     5.512016  5.972227 -4.738734
  C     6.696388  5.574934 -4.053157
  C     5.654748  9.859123 -4.323765
  C     6.774991  9.206669 -3.719564
  N     7.829332  5.600368 -4.736308
  N     5.711285  6.259176 -6.003659
  N     4.845830  5.712607 -2.261776
  N     7.767981  9.052018 -4.594089
  N     5.812069 10.214476 -5.610489
  N     4.840535  9.234030 -1.969837
  S     7.330305  5.890669 -6.291366
  S     4.187208  6.092512 -3.701725
  S     6.422722  5.355619 -2.316902
  S     7.286834  9.721654 -6.038277
  S     4.213303  9.763994 -3.411288
  S     6.507901  8.859024 -2.022374
