16  
    
  C     5.455943  5.757491 -4.424462
  C     6.685561  5.345916 -3.706535
  C     5.695544  9.169432 -4.253231
  C     6.919726  8.945913 -3.530205
  N     7.713057  5.028609 -4.485923
  N     5.654721  5.853427 -5.738070
  N     4.824197  5.564620 -1.973403
  N     7.935580  8.571270 -4.302931
  N     5.818318  9.043140 -5.589138
  N     5.219372  9.315433 -1.682692
  S     7.087554  5.200762 -6.052002
  S     4.090736  5.976574 -3.399600
  S     6.529408  5.298024 -1.930236
  S     7.405357  8.673944 -5.850286
  S     4.365083  9.384645 -3.079702
  S     6.820218  9.041055 -1.824746
