16  
    
  C     5.657957  5.878893 -4.190026
  C     6.721757  5.114830 -3.549558
  C     5.751992  9.575744 -4.473080
  C     6.928470  9.013260 -3.854371
  N     7.714824  4.929036 -4.381304
  N     5.859038  6.243133 -5.459450
  N     5.024312  5.511767 -1.638099
  N     7.871091  8.699639 -4.757622
  N     5.764524  9.715922 -5.797024
  N     5.174155  9.295215 -2.005909
  S     7.275978  5.491123 -5.872149
  S     4.349106  6.284857 -3.023922
  S     6.578158  4.801153 -1.849019
  S     7.286524  9.095561 -6.261512
  S     4.475571  9.826765 -3.408564
  S     6.796639  8.817965 -2.088097
