16  
    
  C     5.502310  6.035568 -4.220411
  C     6.583586  5.289360 -3.687081
  C     5.747824  9.869940 -4.444158
  C     6.782964  9.111765 -3.803458
  N     7.556121  4.910716 -4.533615
  N     5.611861  6.303033 -5.516513
  N     4.972917  5.886681 -1.681437
  N     7.837752  8.918677 -4.596025
  N     6.003154 10.333522 -5.664441
  N     4.685521  9.132472 -2.265280
  S     7.030652  5.620610 -5.936411
  S     4.158836  6.215372 -3.098863
  S     6.454721  5.032563 -1.925568
  S     7.474962  9.684703 -6.080481
  S     4.179561  9.978896 -3.630004
  S     6.292829  8.716968 -2.180811
