16  
    
  C     5.649932  5.710063 -4.181748
  C     6.806287  5.245733 -3.483808
  C     5.541748  9.461826 -4.140468
  C     6.677077  8.871463 -3.451635
  N     7.939456  5.079004 -4.206496
  N     5.853457  5.736937 -5.499585
  N     4.882173  5.615619 -1.670963
  N     7.710896  8.645423 -4.272219
  N     5.682415  9.623277 -5.453782
  N     4.801920  8.942847 -1.692605
  S     7.380069  5.287266 -5.821316
  S     4.266626  6.048436 -3.199335
  S     6.452438  5.007679 -1.714298
  S     7.209593  9.098348 -5.801574
  S     4.141483  9.590955 -3.076139
  S     6.429635  8.569446 -1.767955
