16  
    
  C     5.541883  6.610879 -4.519119
  C     6.677141  5.995714 -3.876693
  C     5.610180 10.146659 -4.444240
  C     6.724967  9.599997 -3.768585
  N     7.684491  5.681626 -4.662068
  N     5.709620  6.797453 -5.790031
  N     4.920411  6.573461 -2.039544
  N     7.740250  9.337305 -4.564733
  N     5.792443 10.376344 -5.728366
  N     4.830923  9.880735 -2.041874
  S     7.130032  6.188292 -6.284245
  S     4.195967  7.021623 -3.472894
  S     6.476106  5.945678 -2.119368
  S     7.324928  9.785059 -6.106462
  S     4.234700 10.418223 -3.471747
  S     6.519501  9.585348 -1.999256
