16  
    
  C     5.502322  6.151027 -4.437137
  C     6.750321  5.590586 -3.971663
  C     5.442035 10.001702 -4.418563
  C     6.601559  9.459520 -3.756740
  N     7.682180  5.491675 -4.876898
  N     5.439504  6.298049 -5.747137
  N     5.240812  5.875007 -1.879670
  N     7.600453  9.086736 -4.583366
  N     5.631759 10.116499 -5.750436
  N     4.734901  9.416948 -2.043768
  S     6.975010  5.784851 -6.317100
  S     4.344004  6.350933 -3.229851
  S     6.756575  5.290821 -2.266803
  S     7.201828  9.539837 -6.096092
  S     4.101873 10.246929 -3.305986
  S     6.395176  8.996773 -2.088352
