16  
    
  C     5.257658  6.403517 -4.687123
  C     6.444849  5.948358 -4.065008
  C     5.730765  9.758212 -4.399051
  C     6.975562  9.330955 -3.756745
  N     7.418508  5.730684 -4.902536
  N     5.285806  6.478051 -5.989859
  N     4.789323  6.439082 -2.177523
  N     7.966592  9.078109 -4.602221
  N     5.781779  9.899672 -5.746221
  N     5.296373  9.461187 -1.818963
  S     6.858245  6.065107 -6.388196
  S     3.947993  6.655677 -3.601690
  S     6.376345  5.968404 -2.356771
  S     7.412662  9.511227 -6.126746
  S     4.426134  9.902894 -3.237995
  S     6.889969  9.154198 -2.028072
