16  
    
  C     5.410812  5.971880 -4.377714
  C     6.667454  5.467496 -3.876438
  C     5.593210  9.783061 -4.593419
  C     6.739262  9.109608 -4.074772
  N     7.604647  5.215524 -4.803870
  N     5.502392  6.241775 -5.697861
  N     5.035833  5.580799 -1.867158
  N     7.776175  8.870431 -4.903122
  N     5.725906  9.985039 -5.912832
  N     5.170883  9.725409 -2.029205
  S     7.003818  5.709351 -6.236285
  S     4.173042  6.191493 -3.174914
  S     6.649842  5.320030 -2.098433
  S     7.157341  9.321467 -6.376505
  S     4.418613 10.309693 -3.372108
  S     6.711421  8.926101 -2.331407
