16  
    
  C     5.565940  6.056471 -4.264854
  C     6.721651  5.478267 -3.572689
  C     5.858342  9.604197 -4.189546
  C     7.079981  9.074599 -3.633864
  N     7.769868  5.272036 -4.372134
  N     5.702257  6.198905 -5.566593
  N     5.063034  6.042922 -1.704771
  N     8.069566  8.878095 -4.520455
  N     5.870253  9.743668 -5.533471
  N     5.393012  9.578515 -1.718326
  S     7.243691  5.662276 -5.913508
  S     4.344110  6.594968 -3.141210
  S     6.528789  5.283407 -1.833811
  S     7.499023  9.397070 -5.983277
  S     4.593825  9.998613 -3.074567
  S     6.943684  9.036493 -1.910205
