16  
    
  C     5.423822  6.022944 -4.553385
  C     6.680567  5.604779 -4.021925
  C     5.769336  9.445578 -4.135666
  C     7.025409  9.107753 -3.588872
  N     7.743300  5.591950 -4.816554
  N     5.497429  6.365516 -5.855956
  N     5.050781  5.707246 -2.071684
  N     7.998229  8.942441 -4.458986
  N     5.826536  9.554036 -5.447680
  N     5.246906  9.006123 -1.702902
  S     7.073497  6.175624 -6.324816
  S     4.146669  5.987377 -3.426676
  S     6.667642  5.428565 -2.318704
  S     7.384838  9.328234 -5.920704
  S     4.461861  9.532633 -3.034442
  S     6.942653  8.726235 -1.867832
