16  
    
  C     5.452992  5.932869 -4.408482
  C     6.725522  5.420617 -3.926053
  C     5.502703  9.940578 -4.654887
  C     6.639404  9.230171 -4.107193
  N     7.639366  5.165399 -4.853460
  N     5.467344  6.184855 -5.694732
  N     5.135479  5.524025 -1.892375
  N     7.547764  8.786984 -4.961528
  N     5.544721 10.006744 -5.981699
  N     5.179133  9.797499 -2.067648
  S     6.991539  5.692036 -6.195074
  S     4.259832  6.140365 -3.184517
  S     6.699900  5.166319 -2.171484
  S     7.040192  9.358437 -6.438471
  S     4.397120 10.315672 -3.419703
  S     6.645178  9.015642 -2.351743
