16  
    
  C     5.388589  6.065886 -4.421900
  C     6.725007  5.821178 -3.746994
  C     5.467931  9.742745 -4.269842
  C     6.698647  9.307562 -3.673024
  N     7.741095  5.664900 -4.607632
  N     5.474400  6.111739 -5.764442
  N     4.936461  5.890290 -1.864819
  N     7.743451  9.147240 -4.465751
  N     5.562296  9.830854 -5.597375
  N     4.933959  9.471650 -1.838983
  S     7.028667  5.845243 -6.119383
  S     4.074638  6.223598 -3.268615
  S     6.553011  5.576133 -2.068031
  S     7.101131  9.429792 -5.994864
  S     4.173462  9.900588 -3.227658
  S     6.478995  8.942582 -2.013416
