16  
    
  C     5.603023  6.120854 -4.272239
  C     6.683329  5.439017 -3.633760
  C     5.840735  9.816105 -4.226475
  C     7.035332  9.275363 -3.607703
  N     7.642975  4.970326 -4.445799
  N     5.748651  6.202921 -5.599019
  N     5.017079  6.160846 -1.785075
  N     8.013273  8.961703 -4.441225
  N     5.916227  9.910344 -5.526804
  N     5.224032  9.299277 -1.802506
  S     7.203767  5.514645 -5.981144
  S     4.224247  6.479476 -3.249625
  S     6.448351  5.363496 -1.951634
  S     7.467672  9.233779 -5.956120
  S     4.501475  9.919303 -3.144088
  S     6.864907  9.121032 -1.847685
