16  
    
  C     5.807804  5.706893 -4.074004
  C     6.953133  5.106794 -3.408569
  C     5.657196  9.572737 -4.256077
  C     6.880418  9.043317 -3.694650
  N     7.990491  4.802061 -4.168308
  N     6.099489  5.998530 -5.342861
  N     5.116849  5.145230 -1.634503
  N     7.893222  9.130511 -4.568320
  N     5.728533 10.121297 -5.467632
  N     5.130693  8.893110 -1.825495
  S     7.649173  5.562652 -5.640849
  S     4.450200  5.805727 -3.020737
  S     6.723908  4.586447 -1.754083
  S     7.256075  9.817189 -5.966628
  S     4.370915  9.730376 -3.096156
  S     6.731634  8.425701 -2.068207
