16  
    
  C     5.620181  5.537723 -4.052973
  C     6.880889  5.227283 -3.409034
  C     5.831852  9.318432 -3.892810
  C     7.118304  9.060234 -3.292990
  N     7.873994  4.869008 -4.247539
  N     5.705265  5.544357 -5.378310
  N     5.135588  5.418668 -1.519996
  N     8.141968  8.873077 -4.162427
  N     5.882866  9.358755 -5.192991
  N     5.319009  9.120951 -1.394836
  S     7.234679  5.189522 -5.792155
  S     4.212079  5.666938 -2.875333
  S     6.785956  5.036060 -1.698554
  S     7.444578  8.969267 -5.664636
  S     4.509416  9.576948 -2.767258
  S     6.894000  8.871530 -1.564029
