16  
    
  C     5.337725  6.027633 -4.414599
  C     6.523586  5.524230 -3.842465
  C     5.412514  9.223921 -4.391038
  C     6.604616  8.875899 -3.722059
  N     7.571091  5.262336 -4.658640
  N     5.438275  6.382569 -5.697667
  N     4.781814  5.565128 -1.850445
  N     7.688565  8.700244 -4.458097
  N     5.588850  9.286024 -5.726549
  N     4.975484  9.274251 -1.808320
  S     6.966802  5.857408 -6.153349
  S     4.039590  6.194368 -3.181753
  S     6.397943  5.370768 -2.084145
  S     7.223914  9.146147 -5.993531
  S     4.066155  9.172572 -3.247076
  S     6.569389  8.782473 -2.019229
