16  
    
  C     5.592583  5.572857 -4.348569
  C     6.757711  5.393374 -3.596658
  C     5.655368  9.377091 -4.239186
  C     6.919440  9.216467 -3.585543
  N     7.841011  5.219712 -4.344050
  N     5.694746  5.496796 -5.677081
  N     4.912693  5.736401 -1.823600
  N     7.967448  9.326127 -4.400232
  N     5.811532  9.471824 -5.576071
  N     5.201210  8.938862 -1.718451
  S     7.318120  5.396589 -5.900096
  S     4.261795  5.784038 -3.308876
  S     6.525712  5.435672 -1.846379
  S     7.425785  9.423193 -5.891235
  S     4.320311  9.241182 -3.157067
  S     6.833293  8.750301 -1.900385
