16  
    
  C     5.429670  6.016964 -4.141671
  C     6.676078  5.645058 -3.592199
  C     5.631845  9.689528 -4.384022
  C     6.836460  9.253227 -3.690114
  N     7.634732  5.508253 -4.488327
  N     5.450233  6.264967 -5.443132
  N     5.015595  5.728683 -1.640168
  N     7.895299  9.037232 -4.506322
  N     5.748471  9.716142 -5.683621
  N     4.949095  9.462639 -1.949187
  S     6.989293  5.828667 -6.005539
  S     4.131768  6.159794 -3.011580
  S     6.595629  5.273877 -1.935301
  S     7.333986  9.257009 -6.074465
  S     4.226369  9.888715 -3.404201
  S     6.546395  9.081864 -1.941364
