16  
    
  C     5.242905  6.379365 -4.714071
  C     6.464521  6.009607 -4.062293
  C     5.816857  9.737096 -4.302841
  C     7.075071  9.295344 -3.775887
  N     7.480823  5.758006 -4.859601
  N     5.311451  6.543808 -6.009524
  N     4.722779  6.405014 -2.162597
  N     8.017552  9.089263 -4.704791
  N     5.839537  9.846556 -5.627316
  N     5.246156  9.470868 -1.882529
  S     6.821526  6.064332 -6.447717
  S     3.928125  6.661117 -3.566258
  S     6.316848  6.002898 -2.304690
  S     7.307979  9.515653 -6.157515
  S     4.509586  9.838576 -3.261136
  S     6.892531  9.118480 -2.062383
