16  
    
  C     5.350513  6.077980 -4.629762
  C     6.635767  5.748523 -4.088409
  C     5.691740  9.413626 -4.147221
  C     6.909713  8.911940 -3.599082
  N     7.616097  5.729966 -4.992338
  N     5.380882  6.470019 -5.891398
  N     5.001246  5.733145 -2.065999
  N     7.974610  8.894116 -4.352436
  N     5.796100  9.802284 -5.434720
  N     5.203014  8.861755 -1.620943
  S     6.992870  6.207592 -6.375462
  S     4.077363  6.095089 -3.387740
  S     6.637065  5.522940 -2.354161
  S     7.367265  9.381876 -5.863045
  S     4.412874  9.423620 -2.928152
  S     6.841725  8.701119 -1.820878
