16  
    
  C     5.325564  5.492480 -4.373994
  C     6.480718  4.953146 -3.710190
  C     5.486402  9.204768 -4.424885
  C     6.567466  8.478924 -3.789086
  N     7.517841  4.803544 -4.536010
  N     5.499733  5.839338 -5.635757
  N     4.584117  5.169053 -1.885301
  N     7.594331  8.196414 -4.592999
  N     5.755960  9.602719 -5.669578
  N     4.948131  8.938146 -1.901930
  S     7.055678  5.224073 -6.067664
  S     4.051971  5.923308 -3.255299
  S     6.172196  4.650185 -1.952871
  S     7.273576  9.032266 -6.041617
  S     4.143525  9.352219 -3.277041
  S     6.293028  7.988827 -2.142109
