16  
    
  C     5.633568  6.039119 -4.480146
  C     6.821830  5.606564 -3.804118
  C     5.621210  9.703409 -4.394871
  C     6.785050  9.151426 -3.752035
  N     7.852211  5.381731 -4.664811
  N     5.821900  6.331273 -5.757092
  N     4.935612  5.879057 -2.027729
  N     7.841349  9.039761 -4.566993
  N     5.739766 10.013602 -5.687729
  N     4.841460  9.360170 -2.003300
  S     7.341984  5.830530 -6.134258
  S     4.253009  6.198097 -3.505367
  S     6.602859  5.473356 -2.102103
  S     7.302706  9.530607 -6.072397
  S     4.197307  9.892138 -3.439622
  S     6.485634  8.952958 -1.943503
