16  
    
  C     5.446983  6.050408 -4.352449
  C     6.551489  5.405503 -3.655564
  C     5.705753  9.721917 -4.182523
  C     6.806482  9.044516 -3.519422
  N     7.618824  5.153019 -4.418500
  N     5.649838  6.256056 -5.647983
  N     4.627667  5.732221 -1.890483
  N     7.845464  8.642631 -4.311888
  N     5.967814  9.908663 -5.486466
  N     5.009140  9.467009 -1.648305
  S     7.133430  5.649002 -5.943635
  S     4.018909  6.199716 -3.333613
  S     6.236289  5.299714 -1.948612
  S     7.444271  9.257307 -5.869446
  S     4.354353 10.001228 -3.136640
  S     6.551823  8.823090 -1.851787
