16  
    
  C     5.347658  6.362505 -4.313514
  C     6.481521  5.786794 -3.735547
  C     5.517466  9.629432 -4.472044
  C     6.736676  9.265882 -3.759639
  N     7.458906  5.451298 -4.598891
  N     5.379765  6.361177 -5.658966
  N     4.692547  6.022640 -1.873435
  N     7.818862  9.144712 -4.480301
  N     5.734265  9.821379 -5.750320
  N     4.893361  9.628665 -1.907919
  S     6.870460  5.870090 -6.088983
  S     4.015223  6.687608 -3.226244
  S     6.267130  5.570930 -2.023725
  S     7.315236  9.441910 -6.096122
  S     4.103817  9.741558 -3.355104
  S     6.411050  8.987212 -2.104326
