16  
    
  C     5.345157  6.180762 -4.479944
  C     6.487235  5.662459 -3.781261
  C     5.494835  9.564270 -4.153392
  C     6.684494  9.127420 -3.450757
  N     7.536089  5.337223 -4.591654
  N     5.540338  6.470198 -5.773171
  N     4.603949  5.870240 -2.014930
  N     7.727812  9.078851 -4.257253
  N     5.612240  9.803851 -5.461259
  N     4.890393  9.433900 -1.677472
  S     7.083997  5.920828 -6.092831
  S     3.961000  6.442000 -3.390176
  S     6.201616  5.505581 -2.083965
  S     7.236069  9.455389 -5.808806
  S     4.152799  9.568026 -3.141957
  S     6.511539  8.901568 -1.776806
