16  
    
  C     5.501842  5.805515 -4.339663
  C     6.578322  5.265298 -3.633568
  C     5.706572  9.258256 -4.196435
  C     6.977070  8.900074 -3.608697
  N     7.617545  5.032864 -4.408088
  N     5.723746  6.086252 -5.613098
  N     4.686264  5.605359 -1.922577
  N     7.999171  8.791823 -4.428081
  N     5.786714  9.398481 -5.501086
  N     5.241744  8.799279 -1.674093
  S     7.298927  5.590178 -5.960910
  S     4.102979  5.970482 -3.409493
  S     6.286786  5.073224 -1.927233
  S     7.431669  9.160515 -5.975271
  S     4.390448  9.004234 -3.081283
  S     6.859509  8.583961 -1.863142
