16  
    
  C     5.513326  5.966036 -4.463845
  C     6.716649  5.468612 -3.788417
  C     5.660670  9.402679 -4.219720
  C     6.878099  9.064735 -3.551132
  N     7.732364  5.104124 -4.579258
  N     5.612487  5.999849 -5.793977
  N     4.866636  5.853672 -1.990949
  N     7.970106  9.102420 -4.339684
  N     5.808662  9.539234 -5.551773
  N     5.160541  9.512754 -1.702195
  S     7.157195  5.471406 -6.069627
  S     4.167430  6.398605 -3.378025
  S     6.479485  5.414583 -2.076483
  S     7.379560  9.314470 -5.923369
  S     4.364652  9.759605 -3.122222
  S     6.693374  8.945127 -1.789606
