16  
    
  C     5.374094  6.554518 -4.491130
  C     6.474860  5.907854 -3.832326
  C     5.441968 10.046521 -4.334165
  C     6.718313  9.786321 -3.672513
  N     7.580319  5.598876 -4.537936
  N     5.618543  6.684015 -5.821762
  N     4.712177  6.362451 -2.007630
  N     7.793237  9.844839 -4.447047
  N     5.631308 10.305593 -5.606129
  N     4.990682  9.875198 -1.796389
  S     7.157744  6.049515 -6.086930
  S     3.990245  6.838824 -3.447569
  S     6.285710  5.767034 -2.088153
  S     7.205087 10.080001 -5.973184
  S     4.104323 10.166234 -3.268168
  S     6.567583  9.415388 -1.932627
