16  
    
  C     5.570624  5.214763 -4.213719
  C     6.911037  5.127674 -3.652337
  C     5.424137  9.252660 -4.534147
  C     6.589200  8.768843 -3.830253
  N     7.851739  5.133021 -4.594975
  N     5.489613  5.063000 -5.519789
  N     5.233228  5.208707 -1.702766
  N     7.714387  8.590089 -4.535070
  N     5.616624  9.320391 -5.846178
  N     4.771585  9.122954 -2.058422
  S     6.992090  5.108844 -6.103936
  S     4.271914  5.299120 -3.050440
  S     6.862218  5.012405 -1.949327
  S     7.213939  8.920512 -6.104446
  S     4.080348  9.580330 -3.494242
  S     6.391974  8.706699 -2.126773
