16  
    
  C     5.524506  5.254032 -4.153859
  C     6.813143  5.008729 -3.484030
  C     5.399870  9.368733 -4.408197
  C     6.596001  8.802610 -3.814997
  N     7.836192  4.972522 -4.328938
  N     5.620531  5.404169 -5.475922
  N     5.025628  5.205961 -1.641077
  N     7.553854  8.416927 -4.651415
  N     5.415758  9.365223 -5.733879
  N     4.917402  9.071706 -1.855986
  S     7.145817  5.116258 -5.919511
  S     4.183771  5.206570 -3.099894
  S     6.682456  5.037401 -1.745222
  S     6.931810  8.800260 -6.165650
  S     4.128946  9.616583 -3.263765
  S     6.475731  8.558644 -2.096002
