16  
    
  C     5.742027  5.480949 -4.385748
  C     6.952767  5.227047 -3.677194
  C     5.361777  9.334532 -4.485285
  C     6.580437  8.953194 -3.819255
  N     7.945931  4.981226 -4.521091
  N     5.799171  5.550000 -5.735286
  N     5.181974  5.375571 -1.887290
  N     7.635534  8.691578 -4.571203
  N     5.506577  9.430216 -5.794519
  N     4.928381  9.432676 -1.941606
  S     7.442371  5.303248 -6.086875
  S     4.330173  5.513184 -3.311415
  S     6.811537  4.979882 -1.925101
  S     7.161324  8.908998 -6.111388
  S     4.146127  9.777892 -3.377122
  S     6.427836  8.766593 -2.100045
