16  
    
  C     5.580977  5.597075 -4.401802
  C     6.825765  5.361730 -3.700261
  C     5.702297  9.533024 -4.154316
  C     6.834890  8.880411 -3.547292
  N     7.884323  5.123913 -4.489322
  N     5.764028  5.449574 -5.727830
  N     5.052564  5.729685 -1.859906
  N     7.841523  8.790819 -4.408358
  N     5.839237  9.877149 -5.429109
  N     5.097507  9.177556 -1.631376
  S     7.359369  5.073732 -6.027584
  S     4.204096  5.819751 -3.342108
  S     6.669839  5.268759 -1.951157
  S     7.338527  9.420171 -5.853709
  S     4.329801  9.564232 -3.061661
  S     6.695621  8.640621 -1.813096
