16  
    
  C     5.374173  5.676634 -4.368927
  C     6.660432  5.409164 -3.740915
  C     5.357264 10.112799 -4.557860
  C     6.512281  9.387894 -3.996757
  N     7.665886  5.277823 -4.587160
  N     5.427395  5.925455 -5.692659
  N     4.927716  5.597330 -1.852594
  N     7.511234  9.207857 -4.855933
  N     5.521013 10.427413 -5.799182
  N     4.686312  9.676429 -2.082210
  S     7.008225  5.641365 -6.074027
  S     4.077462  5.613557 -3.253831
  S     6.557070  5.293587 -1.985833
  S     6.935583  9.808525 -6.319716
  S     3.994398 10.312319 -3.539784
  S     6.224049  9.135835 -2.293661
