16  
    
  C     5.436778  5.531944 -4.164445
  C     6.579462  5.088973 -3.479865
  C     5.631638  8.964448 -4.032251
  C     6.852287  8.507952 -3.397681
  N     7.619777  4.840065 -4.242672
  N     5.633444  5.765031 -5.457111
  N     4.775918  5.329807 -1.694962
  N     7.833085  8.229727 -4.269547
  N     5.704088  9.081404 -5.361623
  N     5.206671  8.905554 -1.456747
  S     7.201239  5.365556 -5.740815
  S     4.123274  5.841721 -3.129795
  S     6.385833  5.149016 -1.742763
  S     7.186387  8.560176 -5.802044
  S     4.339936  9.098937 -2.865979
  S     6.825489  8.473654 -1.646654
