16  
    
  C     5.587560  5.628722 -4.415367
  C     6.834629  5.188274 -3.721868
  C     5.444493  9.956891 -4.399005
  C     6.666675  9.334805 -3.881936
  N     7.840947  4.987766 -4.561129
  N     5.745249  5.858148 -5.723162
  N     5.040224  5.423959 -1.904059
  N     7.557462  9.064706 -4.804228
  N     5.386439 10.055652 -5.722520
  N     4.942880  9.533742 -1.939368
  S     7.300262  5.418467 -6.109003
  S     4.282484  5.864301 -3.334103
  S     6.643691  5.056913 -2.002873
  S     6.899145  9.488092 -6.263318
  S     4.175459 10.082590 -3.317178
  S     6.527923  9.023190 -2.150742
