16  
    
  C     5.531879  5.951553 -4.285582
  C     6.742025  5.477119 -3.631253
  C     5.697827  9.530213 -4.489864
  C     6.933404  9.191731 -3.728872
  N     7.749729  5.246067 -4.536632
  N     5.689711  6.170968 -5.590109
  N     5.077997  5.989348 -1.788231
  N     8.030115  9.018238 -4.482695
  N     5.846880  9.556025 -5.798530
  N     5.024415  9.222541 -2.029419
  S     7.242722  5.707177 -5.949061
  S     4.200123  6.176352 -3.245833
  S     6.636536  5.427665 -1.885900
  S     7.497795  9.297838 -6.065758
  S     4.280865  9.586874 -3.488149
  S     6.678494  8.915380 -2.060148
