16  
    
  C     5.409584  5.979399 -4.364562
  C     6.676788  5.560213 -3.784094
  C     5.513174  9.403325 -4.487507
  C     6.786431  9.161952 -3.824808
  N     7.645651  5.523095 -4.729035
  N     5.430308  6.146057 -5.685886
  N     4.977458  5.916532 -1.822386
  N     7.831927  8.990646 -4.638024
  N     5.644715  9.485458 -5.828593
  N     4.912167  9.090365 -2.019745
  S     7.028080  5.847056 -6.186812
  S     4.184035  6.251909 -3.186314
  S     6.549694  5.436697 -2.059007
  S     7.268332  9.273541 -6.140762
  S     4.218448  9.262042 -3.442622
  S     6.578360  8.801521 -2.111777
