16  
    
  C     5.612373  5.601859 -4.184304
  C     6.923570  5.231419 -3.699006
  C     5.523393  9.443624 -4.500302
  C     6.610462  8.765889 -3.809083
  N     7.919568  5.158813 -4.585038
  N     5.615258  5.871882 -5.509527
  N     5.320773  5.234162 -1.625023
  N     7.648931  8.477875 -4.587945
  N     5.792137  9.789311 -5.749937
  N     4.812493  9.154262 -2.058433
  S     7.128365  5.492148 -6.033367
  S     4.367344  5.492904 -2.961336
  S     6.967070  5.029844 -1.974217
  S     7.342664  9.162292 -6.048720
  S     4.108331  9.577517 -3.475754
  S     6.304301  8.413568 -2.145781
