16  
    
  C     5.405979  5.607363 -4.406215
  C     6.553110  5.107353 -3.694566
  C     5.498387  9.114756 -4.242027
  C     6.773345  8.831953 -3.616433
  N     7.616150  4.860982 -4.454452
  N     5.608236  5.742431 -5.716539
  N     4.622871  5.643542 -1.938642
  N     7.781948  8.614474 -4.438411
  N     5.553612  9.059550 -5.573160
  N     4.973721  8.975621 -1.689874
  S     7.194135  5.260944 -6.031762
  S     3.918673  5.833915 -3.429073
  S     6.187549  5.000750 -1.932096
  S     7.079847  8.738251 -6.008559
  S     4.199575  9.369288 -3.133879
  S     6.614802  8.768664 -1.892198
