16  
    
  C     5.350841  5.600487 -4.449714
  C     6.444465  5.043897 -3.687356
  C     5.505940  9.163502 -4.288431
  C     6.736231  8.721283 -3.659639
  N     7.552764  4.846245 -4.400594
  N     5.630698  5.842613 -5.749845
  N     4.626736  5.439869 -1.909492
  N     7.692297  8.466034 -4.551028
  N     5.521025  9.209662 -5.611555
  N     4.919838  8.850287 -1.797382
  S     7.136906  5.211979 -5.997594
  S     3.951365  5.853674 -3.411913
  S     6.211560  4.945461 -1.947866
  S     7.110997  8.801104 -6.038103
  S     4.201744  9.362073 -3.196604
  S     6.541109  8.628562 -1.849447
