16  
    
  C     5.593364  5.616754 -4.405874
  C     6.817764  5.369449 -3.666507
  C     5.689322  9.487909 -4.106579
  C     6.855739  8.840354 -3.552886
  N     7.848822  5.130782 -4.483098
  N     5.726170  5.438540 -5.750916
  N     5.060980  5.734411 -1.845483
  N     7.868443  8.792252 -4.399626
  N     5.794587  9.879157 -5.373503
  N     5.140755  9.138830 -1.622500
  S     7.369957  5.121119 -6.056633
  S     4.231151  5.833355 -3.338810
  S     6.673910  5.268715 -1.947754
  S     7.352213  9.448269 -5.821821
  S     4.374270  9.587030 -3.050636
  S     6.716652  8.627398 -1.800046
