16  
    
  C     5.467356  5.152457 -4.229733
  C     6.785755  5.049263 -3.606478
  C     5.395754  9.194776 -4.512066
  C     6.569651  8.666627 -3.857076
  N     7.773760  5.035537 -4.473318
  N     5.501907  5.246985 -5.575628
  N     5.140332  5.266238 -1.636931
  N     7.575085  8.416145 -4.687198
  N     5.534846  9.390488 -5.831849
  N     4.799831  9.087360 -1.954741
  S     7.085725  5.130399 -6.001872
  S     4.267957  5.140585 -2.994930
  S     6.800433  5.084309 -1.876048
  S     7.098021  8.886098 -6.193459
  S     4.073877  9.544662 -3.397078
  S     6.448070  8.735474 -2.084294
