16  
    
  C     5.263707  6.280784 -4.316536
  C     6.373468  5.598586 -3.630991
  C     5.515249  9.686224 -4.198672
  C     6.722125  9.092308 -3.557352
  N     7.418515  5.271755 -4.423448
  N     5.444379  6.385599 -5.633360
  N     4.520278  5.885903 -1.818317
  N     7.669938  8.858634 -4.425444
  N     5.661467  9.993232 -5.466310
  N     5.027539  9.854193 -1.739523
  S     6.925123  5.819529 -5.950167
  S     3.917590  6.559368 -3.175249
  S     6.102036  5.499873 -1.927203
  S     7.102161  9.354975 -5.941203
  S     4.189855 10.006810 -3.093538
  S     6.490168  8.953854 -1.879572
