16  
    
  C     5.228843  5.844095 -4.276340
  C     6.480903  5.371552 -3.658690
  C     5.417178  9.460071 -4.173663
  C     6.619972  8.914054 -3.555245
  N     7.438232  5.182144 -4.553026
  N     5.330551  5.956874 -5.587797
  N     4.723014  5.657944 -1.762212
  N     7.515504  8.560927 -4.450992
  N     5.464588  9.632761 -5.520309
  N     4.945928  9.244700 -1.602742
  S     6.863689  5.498445 -6.049968
  S     3.970805  6.038564 -3.189795
  S     6.338358  5.252500 -1.945350
  S     6.964340  8.960430 -5.946901
  S     4.094941  9.639640 -2.993024
  S     6.559793  8.876226 -1.777875
