16  
    
  C     5.846978  5.497895 -4.305255
  C     7.081990  5.174532 -3.683103
  C     5.453927  9.396159 -4.439530
  C     6.607866  8.797826 -3.786747
  N     8.139787  5.164685 -4.519355
  N     5.832052  5.716248 -5.624431
  N     5.282766  5.217669 -1.759679
  N     7.620034  8.426190 -4.571810
  N     5.598730  9.440777 -5.735342
  N     4.923946  9.520764 -1.922190
  S     7.385284  5.368889 -6.064123
  S     4.477265  5.548394 -3.195793
  S     6.869802  4.954145 -2.014527
  S     7.092383  8.827051 -6.134507
  S     4.113389  9.741559 -3.390604
  S     6.390622  8.711501 -2.025648
