16  
    
  C     5.456441  5.965523 -4.393952
  C     6.696357  5.390675 -3.905298
  C     5.540189  9.878002 -4.642701
  C     6.650354  9.221439 -4.071861
  N     7.631885  5.172087 -4.790546
  N     5.472003  6.204710 -5.727324
  N     5.103244  5.519994 -1.880792
  N     7.560197  8.798911 -4.936943
  N     5.569576 10.011956 -5.970228
  N     5.256999  9.748546 -2.074781
  S     6.981988  5.701408 -6.220378
  S     4.239751  6.149241 -3.183341
  S     6.712760  5.203624 -2.168339
  S     7.078521  9.351515 -6.434564
  S     4.383282 10.331153 -3.402991
  S     6.654410  9.010914 -2.378162
