16  
    
  C     5.686783  5.667155 -4.274090
  C     6.949114  5.199622 -3.654266
  C     5.584082  9.387867 -4.346480
  C     6.692588  8.682125 -3.751282
  N     7.960478  5.050637 -4.503622
  N     5.844255  5.881882 -5.561536
  N     5.187609  5.194326 -1.781834
  N     7.699776  8.601347 -4.615901
  N     5.749972  9.826948 -5.605587
  N     4.710377  8.704114 -2.100568
  S     7.414101  5.586243 -5.992094
  S     4.394228  5.702731 -3.154532
  S     6.799014  4.773874 -1.966664
  S     7.292744  9.320782 -6.005381
  S     4.140420  9.633861 -3.379191
  S     6.340932  8.377892 -2.040386
