16  
    
  C     5.338828  5.732926 -4.508085
  C     6.557392  5.361146 -3.780077
  C     5.329657  9.488127 -4.345222
  C     6.596644  9.141821 -3.719556
  N     7.694123  5.180698 -4.505260
  N     5.579354  5.847088 -5.824102
  N     4.728705  5.781160 -1.981735
  N     7.566215  8.963747 -4.585444
  N     5.316495  9.447958 -5.678289
  N     4.810806  9.318181 -1.880905
  S     7.172255  5.547380 -6.040827
  S     4.022592  6.141582 -3.464323
  S     6.284256  5.231532 -2.022876
  S     6.868004  9.031255 -6.091873
  S     3.969951  9.713489 -3.235789
  S     6.383617  8.922772 -2.069160
