16  
    
  C     5.196209  6.233249 -4.282035
  C     6.357069  5.763820 -3.601677
  C     5.705259  9.620601 -4.109503
  C     6.851716  8.983395 -3.507919
  N     7.367317  5.424589 -4.399637
  N     5.405989  6.334358 -5.591820
  N     4.487305  6.042803 -1.865693
  N     7.740231  8.618064 -4.374604
  N     5.731123  9.801784 -5.408576
  N     5.222779  9.473668 -1.575281
  S     6.942572  5.790383 -5.915453
  S     3.854653  6.500384 -3.310811
  S     6.076049  5.610741 -1.919952
  S     7.153559  9.110153 -5.873056
  S     4.385962  9.872143 -2.974315
  S     6.768153  8.960495 -1.796003
