16  
    
  C     5.528782  5.805606 -4.370358
  C     6.678614  5.278048 -3.729130
  C     5.721586  9.202220 -4.228942
  C     6.965655  8.877034 -3.550380
  N     7.649637  4.965844 -4.559161
  N     5.578048  5.861975 -5.712551
  N     4.893630  5.626191 -1.845546
  N     8.028480  8.595548 -4.301000
  N     5.866701  9.067413 -5.552901
  N     5.154511  9.290526 -1.719854
  S     7.151889  5.262287 -6.105213
  S     4.119982  5.980147 -3.307320
  S     6.520419  5.274513 -2.012975
  S     7.455070  8.674993 -5.915161
  S     4.351224  9.462453 -3.156993
  S     6.804230  8.973861 -1.823399
