16  
    
  C     5.137303  5.970254 -4.306039
  C     6.295450  5.683220 -3.607764
  C     5.509700  9.559857 -4.072184
  C     6.730897  9.037011 -3.477026
  N     7.348533  5.568571 -4.391830
  N     5.264905  6.072052 -5.627790
  N     4.467400  5.823471 -1.833304
  N     7.699416  8.730328 -4.287946
  N     5.565146  9.528300 -5.390373
  N     5.251384  9.556325 -1.492462
  S     6.838796  5.662232 -5.924448
  S     3.840657  6.411007 -3.224775
  S     6.103938  5.585798 -1.890348
  S     7.074427  9.008883 -5.829380
  S     4.373814  9.993005 -2.864326
  S     6.692086  8.737237 -1.702638
