16  
    
  C     5.181190  6.266833 -4.477628
  C     6.374314  5.842153 -3.839973
  C     5.415191  9.487431 -4.088967
  C     6.699783  9.203326 -3.455256
  N     7.434665  5.675018 -4.634183
  N     5.319475  6.533128 -5.786582
  N     4.576789  5.901603 -2.078200
  N     7.704095  9.337864 -4.309111
  N     5.478169  9.740177 -5.376705
  N     4.867587  9.168344 -1.572073
  S     6.833684  6.155792 -6.217187
  S     3.860254  6.506697 -3.417700
  S     6.140095  5.504973 -2.205239
  S     7.051232  9.553560 -5.803930
  S     4.078359  9.495517 -2.994030
  S     6.541115  8.950587 -1.767455
