16  
    
  C     5.491815  5.722509 -4.410984
  C     6.687713  5.381307 -3.681376
  C     5.654400  9.130710 -4.224276
  C     6.912310  8.950003 -3.538061
  N     7.684200  5.042608 -4.469553
  N     5.635057  5.821797 -5.737794
  N     4.827303  5.541580 -1.991165
  N     7.912775  8.580094 -4.327996
  N     5.774725  9.050759 -5.572057
  N     5.217108  9.328760 -1.675447
  S     7.092083  5.191907 -6.037139
  S     4.091237  5.980261 -3.429787
  S     6.499959  5.306158 -1.930798
  S     7.384173  8.674054 -5.828420
  S     4.375237  9.358880 -3.081236
  S     6.838945  9.059626 -1.812681
