16  
    
  C     5.369349  6.168128 -4.475926
  C     6.523243  5.628970 -3.778350
  C     5.539809  9.541435 -4.152536
  C     6.705301  9.099897 -3.458285
  N     7.538218  5.354095 -4.610195
  N     5.534664  6.453372 -5.766482
  N     4.607006  5.869924 -1.998605
  N     7.766736  9.059880 -4.263180
  N     5.628638  9.833521 -5.467150
  N     4.921185  9.428689 -1.682710
  S     7.093344  5.898459 -6.066321
  S     3.972220  6.444082 -3.399228
  S     6.211283  5.503008 -2.075218
  S     7.234415  9.445229 -5.818875
  S     4.149227  9.590712 -3.166054
  S     6.495820  8.910059 -1.784633
