16  
    
  C     5.550275  5.944487 -4.435855
  C     6.668164  5.265032 -3.755416
  C     5.502044  9.588830 -4.108144
  C     6.774373  9.036918 -3.643490
  N     7.650413  4.985256 -4.611824
  N     5.815679  6.134218 -5.741953
  N     4.828328  5.682246 -1.990179
  N     7.712491  8.795905 -4.597368
  N     5.513893  9.840285 -5.415406
  N     5.136308  9.207190 -1.606221
  S     7.318665  5.544094 -6.143357
  S     4.118421  6.130413 -3.452073
  S     6.371005  5.130401 -2.013379
  S     6.988519  9.389872 -5.988221
  S     4.216324  9.720524 -3.011230
  S     6.687008  8.776177 -1.883854
