16  
    
  C     5.537085  5.960153 -4.435297
  C     6.773006  5.686441 -3.679417
  C     5.658227  9.454279 -4.403299
  C     6.861925  9.121891 -3.671984
  N     7.784850  5.469412 -4.535038
  N     5.764326  6.107522 -5.738371
  N     4.823224  5.782595 -1.935738
  N     7.876250  9.070049 -4.546346
  N     5.673712  9.590299 -5.755559
  N     4.946733  9.506168 -1.901483
  S     7.323277  5.712996 -6.121696
  S     4.174202  6.191800 -3.410211
  S     6.529093  5.684989 -1.931570
  S     7.301929  9.355943 -6.063925
  S     4.274676  9.538185 -3.382757
  S     6.608014  9.061409 -1.936826
