16  
    
  C     5.688364  5.739147 -4.406664
  C     6.958606  5.263462 -3.950510
  C     5.647554  9.102470 -4.081524
  C     6.959208  8.656151 -3.645589
  N     7.921460  5.335683 -4.871704
  N     5.751214  6.256302 -5.647453
  N     5.347857  5.191809 -1.927247
  N     7.940914  8.613364 -4.521627
  N     5.715796  9.491951 -5.350343
  N     5.498551  8.819941 -1.571126
  S     7.358029  6.074714 -6.184138
  S     4.425596  5.856956 -3.121526
  S     6.907075  4.795718 -2.309079
  S     7.236879  9.264505 -5.879644
  S     4.521897  9.379415 -2.799659
  S     7.022954  8.348590 -1.940627
