16  
    
  C     5.655388  5.812831 -4.139963
  C     6.870795  5.248327 -3.598005
  C     5.728737  9.194043 -4.020003
  C     6.990198  8.853999 -3.397141
  N     7.800846  5.089128 -4.485674
  N     5.705073  6.178488 -5.412378
  N     5.238487  5.216222 -1.674720
  N     8.010282  8.736053 -4.208484
  N     5.818899  9.475696 -5.334771
  N     5.345489  8.919126 -1.510306
  S     7.215858  5.508175 -5.938609
  S     4.458862  5.996720 -2.935514
  S     6.828308  4.834206 -1.941192
  S     7.463479  9.226765 -5.682139
  S     4.476153  9.251026 -2.854809
  S     6.968638  8.583370 -1.671130
