16  
    
  C     5.584314  6.006563 -4.252774
  C     6.702190  5.379297 -3.642686
  C     5.933739  9.133060 -4.020268
  C     7.204852  8.754510 -3.461514
  N     7.723745  5.146340 -4.463281
  N     5.779527  6.258180 -5.548861
  N     4.892517  5.583523 -1.845563
  N     8.203920  8.807720 -4.312057
  N     6.002427  9.325887 -5.320094
  N     5.463577  9.041378 -1.530970
  S     7.210541  5.516895 -5.997137
  S     4.251426  6.236458 -3.190884
  S     6.499435  5.188023 -1.953126
  S     7.566221  9.194176 -5.769860
  S     4.555477  9.202423 -2.923685
  S     7.006670  8.477304 -1.727134
