16  
    
  C     5.593872  6.068707 -4.537208
  C     6.795297  5.539106 -3.848493
  C     5.557669  9.830134 -4.375700
  C     6.735201  9.249581 -3.771426
  N     7.803568  5.305460 -4.636414
  N     5.833419  6.273649 -5.825855
  N     4.948866  5.822164 -2.020971
  N     7.798526  9.025196 -4.533080
  N     5.745896 10.079459 -5.659443
  N     4.855260  9.354246 -1.922757
  S     7.381553  5.825715 -6.235356
  S     4.234336  6.124441 -3.455756
  S     6.586021  5.333453 -2.131257
  S     7.354389  9.604030 -6.036888
  S     4.188078  9.864277 -3.308742
  S     6.542925  8.930148 -2.118119
