16  
    
  C     5.485725  5.666978 -4.233297
  C     6.633280  5.300756 -3.466426
  C     5.844414  8.960046 -3.993125
  C     7.088582  8.497984 -3.393716
  N     7.686228  4.948247 -4.237489
  N     5.613227  5.475090 -5.551211
  N     4.840438  5.783222 -1.773027
  N     8.100402  8.513127 -4.213270
  N     5.882469  9.194089 -5.306909
  N     5.320246  8.442660 -1.490055
  S     7.182409  5.105466 -5.819602
  S     4.061771  5.982228 -3.277965
  S     6.335611  5.062446 -1.743630
  S     7.446674  8.985123 -5.722175
  S     4.606673  9.117848 -2.806576
  S     6.997001  8.247267 -1.626990
