16  
    
  C     5.119725  6.222914 -4.336114
  C     6.237010  5.637894 -3.577668
  C     5.732355  9.657835 -4.203197
  C     6.957766  9.124416 -3.648051
  N     7.282839  5.430202 -4.336551
  N     5.359810  6.477547 -5.609339
  N     4.444889  6.175614 -1.886704
  N     8.002669  8.888971 -4.425533
  N     5.817197  9.701838 -5.541141
  N     5.367104  9.509799 -1.628988
  S     6.909067  5.916775 -5.875125
  S     3.852040  6.755900 -3.296656
  S     5.902821  5.347981 -1.946373
  S     7.410082  9.273201 -5.926734
  S     4.568344  9.978485 -2.994646
  S     6.873236  8.844814 -1.931862
