16  
    
  C     5.809542  5.530514 -4.233757
  C     6.966479  5.053034 -3.520119
  C     5.672596  9.607291 -4.377445
  C     6.808696  8.974192 -3.753178
  N     8.068836  4.839327 -4.218204
  N     6.013446  5.476127 -5.549223
  N     5.141411  5.248225 -1.753135
  N     7.876027  8.973455 -4.561950
  N     5.863572  9.982210 -5.644432
  N     5.019831  9.043230 -1.966608
  S     7.658605  5.180425 -5.752458
  S     4.448820  5.732999 -3.217453
  S     6.669683  4.725213 -1.803618
  S     7.415460  9.522858 -6.015169
  S     4.263435  9.697902 -3.343282
  S     6.608342  8.585667 -2.071854
