16  
    
  C     5.633047  5.413986 -4.243505
  C     6.899081  5.347792 -3.549155
  C     5.207812  9.917802 -4.618901
  C     6.297927  9.266541 -3.942584
  N     7.989733  5.227972 -4.280548
  N     5.778274  5.398586 -5.585785
  N     5.072137  5.576195 -1.769410
  N     7.267157  8.929108 -4.764963
  N     5.307408 10.019307 -5.899953
  N     4.513755  9.865501 -2.158272
  S     7.358177  5.281443 -5.942704
  S     4.290023  5.703580 -3.203929
  S     6.701036  5.332832 -1.825890
  S     6.872635  9.471426 -6.294775
  S     3.920587 10.348215 -3.614173
  S     6.087852  9.102424 -2.203097
