16  
    
  C     5.269271  6.318110 -4.707839
  C     6.531735  5.984284 -4.086466
  C     5.693513  9.723095 -4.420314
  C     6.911095  9.295351 -3.743048
  N     7.516685  5.713208 -4.905299
  N     5.358607  6.440825 -6.038229
  N     4.850971  6.389193 -2.102975
  N     7.951390  9.213433 -4.534552
  N     5.857556  9.927101 -5.741513
  N     5.216091  9.514207 -1.878027
  S     6.927200  6.003041 -6.389520
  S     3.974565  6.745579 -3.506102
  S     6.420217  5.910062 -2.304070
  S     7.426369  9.460421 -6.070136
  S     4.371219  9.961476 -3.237657
  S     6.847480  9.213255 -2.047914
