16  
    
  C     5.358805  5.495873 -4.383453
  C     6.479322  4.861450 -3.751326
  C     5.576644  9.322384 -4.378889
  C     6.635761  8.504238 -3.800121
  N     7.531419  4.805502 -4.545699
  N     5.496404  5.862014 -5.650754
  N     4.706334  5.101079 -1.844475
  N     7.681397  8.277445 -4.599553
  N     5.774128  9.585918 -5.670235
  N     4.839102  8.544010 -1.980496
  S     7.062927  5.290954 -6.068628
  S     4.055333  5.597153 -3.250697
  S     6.290951  4.646979 -2.021245
  S     7.359200  9.000560 -6.064145
  S     4.314167  9.604024 -3.215134
  S     6.406701  8.011705 -2.115597
