16  
    
  C     5.636455  6.044947 -4.460169
  C     6.821774  5.632297 -3.798174
  C     5.637868  9.719456 -4.386926
  C     6.807886  9.175235 -3.697636
  N     7.850796  5.417905 -4.555216
  N     5.825053  6.293587 -5.740728
  N     4.959078  5.897781 -2.046303
  N     7.816505  8.986201 -4.554477
  N     5.732469  9.900257 -5.694151
  N     4.786123  9.372471 -1.985439
  S     7.337524  5.834544 -6.153393
  S     4.213867  6.246664 -3.511840
  S     6.632063  5.486602 -2.072201
  S     7.339691  9.527483 -6.087894
  S     4.178250  9.899355 -3.408586
  S     6.489902  8.963195 -1.988933
