16  
    
  C     5.611418  6.069726 -4.378192
  C     6.788350  5.622028 -3.659589
  C     5.341434  9.675012 -4.232943
  C     6.585208  9.308261 -3.610702
  N     7.801927  5.393113 -4.485740
  N     5.774366  6.321036 -5.657722
  N     4.924347  5.854961 -1.948433
  N     7.634201  9.255611 -4.444482
  N     5.451237  9.825023 -5.554002
  N     4.930453  9.305322 -1.655998
  S     7.382489  5.925681 -5.984290
  S     4.190239  6.394191 -3.406267
  S     6.477603  5.313228 -1.981928
  S     7.038706  9.504500 -5.951192
  S     4.064967  9.824530 -3.082713
  S     6.560655  9.065873 -1.873441
