16  
    
  C     5.601286  6.124427 -4.420090
  C     6.724848  5.536257 -3.718567
  C     5.327952  9.667261 -4.277244
  C     6.562878  9.372716 -3.590494
  N     7.868594  5.394906 -4.423416
  N     5.840755  6.327166 -5.731977
  N     4.793955  5.860697 -1.902280
  N     7.599742  9.232271 -4.426410
  N     5.442885  9.793668 -5.621922
  N     4.921939  9.364610 -1.673239
  S     7.372180  5.866477 -5.968242
  S     4.244234  6.353699 -3.365322
  S     6.458896  5.430446 -1.962854
  S     7.069716  9.579826 -5.965436
  S     4.038306  9.755281 -3.058500
  S     6.573341  9.056024 -1.912097
