16  
    
  C     5.523407  5.714845 -4.394505
  C     6.758069  5.319904 -3.785678
  C     5.491936  9.513300 -4.627295
  C     6.723509  9.303229 -3.899695
  N     7.722120  5.078238 -4.644537
  N     5.618153  5.788683 -5.705450
  N     5.090119  5.714426 -1.827424
  N     7.760683  9.321315 -4.740096
  N     5.544159  9.610564 -5.980600
  N     4.849536  9.333340 -2.156324
  S     7.190777  5.535743 -6.121544
  S     4.337125  6.065236 -3.242110
  S     6.690483  5.235871 -2.033009
  S     7.217904  9.423591 -6.289948
  S     4.050220  9.673754 -3.603232
  S     6.463776  8.986835 -2.195607
