16  
    
  C     5.457548  5.968442 -4.203662
  C     6.597521  5.318000 -3.611187
  C     5.680374  9.847150 -4.506926
  C     6.703323  9.082071 -3.846175
  N     7.510363  5.025489 -4.524639
  N     5.559324  6.326469 -5.480103
  N     5.015852  5.844946 -1.662557
  N     7.810730  8.851514 -4.573707
  N     6.028110 10.213060 -5.719024
  N     4.711066  9.205691 -2.196033
  S     7.049727  5.695786 -5.982288
  S     4.200695  6.269870 -3.053400
  S     6.483901  5.135440 -1.894260
  S     7.538977  9.660527 -6.011094
  S     4.252787  9.908101 -3.589815
  S     6.315708  8.775231 -2.130245
