16  
    
  C     5.615273  5.853256 -4.432106
  C     6.792213  5.302146 -3.773207
  C     5.703032  9.541903 -4.240905
  C     6.871644  9.035423 -3.559622
  N     7.820024  4.994850 -4.567179
  N     5.673969  5.870869 -5.764113
  N     4.950630  5.558551 -1.948734
  N     7.908595  8.708279 -4.325886
  N     5.874776  9.659752 -5.565664
  N     5.089917  9.377299 -1.779365
  S     7.254604  5.414342 -6.059832
  S     4.333033  6.227478 -3.315707
  S     6.516093  4.974395 -2.073330
  S     7.313766  9.032777 -5.904775
  S     4.305354  9.828402 -3.185347
  S     6.573720  8.683003 -1.947863
