16  
    
  C     5.258912  6.308223 -4.360109
  C     6.278018  5.488446 -3.598965
  C     5.630077  9.711036 -4.156474
  C     6.774249  9.126752 -3.548083
  N     7.266238  4.973315 -4.327482
  N     5.555924  6.414279 -5.652224
  N     4.426505  6.201785 -1.928738
  N     7.776005  8.817929 -4.378378
  N     5.751963  9.978467 -5.471228
  N     5.033370  9.418184 -1.736063
  S     6.858028  5.498884 -5.901556
  S     3.873159  6.757766 -3.392069
  S     6.003435  5.496383 -1.876767
  S     7.283094  9.463455 -5.888345
  S     4.185137  9.760916 -3.111680
  S     6.566614  8.861051 -1.905636
