16  
    
  C     5.643843  6.195897 -4.361329
  C     6.758609  5.449618 -3.771579
  C     5.588179  9.589425 -4.269541
  C     6.883031  9.197341 -3.670581
  N     7.789988  5.247232 -4.618742
  N     5.789361  6.476785 -5.676667
  N     5.042044  5.790968 -1.869357
  N     7.834658  8.985259 -4.551637
  N     5.630565  9.734323 -5.562058
  N     5.130798  9.301756 -1.727499
  S     7.223023  5.842474 -6.073401
  S     4.282115  6.355588 -3.245280
  S     6.536679  5.145293 -2.088738
  S     7.166218  9.347678 -6.051600
  S     4.353294  9.684766 -3.094818
  S     6.730841  8.881835 -1.959986
