16  
    
  C     5.083480  6.299002 -4.533690
  C     6.327938  5.937161 -3.951097
  C     5.344179  9.592053 -4.159161
  C     6.676576  9.271553 -3.640209
  N     7.365420  5.988427 -4.755749
  N     5.153438  6.532339 -5.810910
  N     4.592974  6.027495 -2.044208
  N     7.723876  9.300937 -4.465572
  N     5.431121  9.943812 -5.450165
  N     5.029977  9.186174 -1.580247
  S     6.773374  6.325621 -6.198392
  S     3.776903  6.393333 -3.422911
  S     6.204617  5.706135 -2.245230
  S     7.005509  9.646557 -5.923699
  S     4.077330  9.493784 -2.944237
  S     6.645837  8.985779 -1.952520
