16  
    
  C     5.845836  5.516356 -4.034503
  C     7.137774  5.105395 -3.490407
  C     5.534112  9.389475 -4.269120
  C     6.597626  8.736978 -3.548210
  N     8.141582  5.073298 -4.347882
  N     5.839151  5.729454 -5.341874
  N     5.407470  5.206400 -1.513669
  N     7.649915  8.418683 -4.328629
  N     5.640877  9.424026 -5.606605
  N     4.717719  9.187349 -1.789089
  S     7.371279  5.407113 -5.867548
  S     4.558964  5.567217 -2.914428
  S     7.067319  4.873938 -1.704505
  S     7.162204  8.823037 -5.919555
  S     4.194687  9.832826 -3.222540
  S     6.198184  8.470627 -1.889984
