16  
    
  C     5.721825  5.726534 -4.193712
  C     6.862450  5.023984 -3.575372
  C     5.436985  9.316858 -4.207410
  C     6.548032  8.651729 -3.620666
  N     7.778876  4.664899 -4.481065
  N     5.822053  5.844349 -5.514375
  N     5.017493  5.454539 -1.764423
  N     7.506241  8.313465 -4.474403
  N     5.571169  9.486751 -5.529369
  N     4.861307  9.099218 -1.688619
  S     7.333742  5.271154 -5.937774
  S     4.296255  6.016735 -3.184731
  S     6.569274  4.941205 -1.830342
  S     6.998641  8.778164 -5.941609
  S     4.101320  9.537719 -3.100746
  S     6.399325  8.509130 -1.910735
