16  
    
  C     5.618249  5.313854 -3.897027
  C     6.883900  4.996315 -3.274171
  C     5.427994  9.367853 -4.193200
  C     6.502128  8.701716 -3.502623
  N     7.966960  4.987171 -4.085126
  N     5.781513  5.535931 -5.198013
  N     5.104930  5.085053 -1.370330
  N     7.543715  8.453931 -4.276067
  N     5.641163  9.630582 -5.480757
  N     4.755895  9.298118 -1.680829
  S     7.356140  5.194392 -5.608589
  S     4.305709  5.402734 -2.804833
  S     6.761018  4.900595 -1.537493
  S     7.246824  9.066859 -5.741918
  S     4.053782  9.710474 -3.136464
  S     6.240556  8.561744 -1.841928
