16  
    
  C     5.602138  6.126445 -4.420476
  C     6.719149  5.533133 -3.719991
  C     5.319314  9.668425 -4.273948
  C     6.561690  9.376099 -3.597979
  N     7.865761  5.396259 -4.418737
  N     5.842710  6.327406 -5.728958
  N     4.790567  5.859700 -1.901470
  N     7.609850  9.230147 -4.432611
  N     5.440471  9.792555 -5.620892
  N     4.916932  9.371828 -1.679336
  S     7.374021  5.861753 -5.970590
  S     4.247023  6.351178 -3.362968
  S     6.456612  5.439048 -1.963038
  S     7.071771  9.584218 -5.964238
  S     4.039527  9.749461 -3.056687
  S     6.571553  9.055647 -1.913697
