16  
    
  C     5.396442  6.351540 -4.499430
  C     6.624561  5.834793 -3.812612
  C     5.688558  9.671890 -4.402263
  C     6.918798  9.245560 -3.827886
  N     7.636253  5.544692 -4.607033
  N     5.533757  6.500954 -5.792168
  N     4.869594  6.372516 -1.982393
  N     7.898706  8.867624 -4.654620
  N     5.771549  9.626006 -5.721570
  N     5.161202  9.533648 -1.867905
  S     7.056406  5.972704 -6.104939
  S     4.106939  6.622082 -3.413226
  S     6.505126  5.857126 -2.098955
  S     7.309340  9.279553 -6.174298
  S     4.395709  9.822015 -3.263040
  S     6.776505  9.145738 -2.103981
