16  
    
  C     5.044605  6.262039 -4.511578
  C     6.297023  5.959542 -3.914008
  C     5.364436  9.614691 -4.137286
  C     6.684163  9.283554 -3.620984
  N     7.356170  5.959613 -4.703792
  N     5.188193  6.533118 -5.826080
  N     4.598219  6.031128 -2.069902
  N     7.710463  9.277064 -4.469894
  N     5.456435  9.862297 -5.418346
  N     5.032131  9.153432 -1.546294
  S     6.763326  6.322369 -6.245570
  S     3.779528  6.415986 -3.416578
  S     6.199077  5.653283 -2.237679
  S     6.998973  9.655613 -5.910999
  S     4.051385  9.489142 -2.953927
  S     6.628772  8.988351 -1.909873
