16  
    
  C     5.600118  5.610970 -4.216188
  C     6.899710  5.414317 -3.546719
  C     5.558906  9.154684 -4.231334
  C     6.839696  9.015469 -3.561002
  N     7.842197  5.103553 -4.393122
  N     5.603252  5.526865 -5.529625
  N     5.194322  5.752993 -1.605347
  N     7.926763  8.986747 -4.341037
  N     5.630631  9.437472 -5.539370
  N     5.115320  8.800282 -1.706557
  S     7.213041  5.210437 -5.916023
  S     4.377993  5.681239 -3.026140
  S     6.818148  5.362452 -1.797417
  S     7.293116  9.331807 -5.899038
  S     4.256939  8.967370 -3.103128
  S     6.792616  8.980525 -1.829344
