16  
    
  C     5.596472  6.077821 -4.345509
  C     6.784984  5.635901 -3.663227
  C     5.334741  9.677950 -4.192892
  C     6.613791  9.289836 -3.625037
  N     7.784194  5.402399 -4.492505
  N     5.766014  6.315314 -5.622295
  N     4.952918  5.855826 -1.971644
  N     7.692149  9.245177 -4.471300
  N     5.440300  9.839615 -5.522939
  N     4.897656  9.309154 -1.686085
  S     7.380301  5.943002 -6.003690
  S     4.186394  6.398284 -3.408404
  S     6.484568  5.277374 -1.996518
  S     7.025171  9.479996 -5.940800
  S     4.087330  9.842916 -3.078959
  S     6.545591  9.071284 -1.865064
