16  
    
  C     5.120531  6.258841 -4.300628
  C     6.185290  5.506415 -3.636448
  C     5.764304  9.589005 -4.218554
  C     6.976149  9.144799 -3.609498
  N     7.300817  5.313092 -4.368302
  N     5.409946  6.426642 -5.590209
  N     4.465530  6.234684 -1.816404
  N     7.937578  8.918864 -4.443649
  N     5.835350  9.705082 -5.513159
  N     5.273524  9.453602 -1.656600
  S     6.962395  5.842983 -5.889267
  S     3.797749  6.786553 -3.305943
  S     5.883327  5.365965 -1.906614
  S     7.386517  9.337037 -5.948384
  S     4.467035 10.006327 -2.995962
  S     6.828889  8.823541 -1.937254
