16  
    
  C     5.575921  6.064342 -4.219228
  C     6.721886  5.491937 -3.564722
  C     5.863280  9.585854 -4.206036
  C     7.076581  9.068026 -3.627439
  N     7.768395  5.283879 -4.376857
  N     5.708745  6.169561 -5.529589
  N     5.048254  6.007592 -1.690317
  N     8.061836  8.882485 -4.522315
  N     5.856688  9.718205 -5.533841
  N     5.434030  9.607328 -1.711252
  S     7.263659  5.691595 -5.928424
  S     4.358578  6.602186 -3.125619
  S     6.534359  5.291741 -1.845458
  S     7.505583  9.400904 -5.974198
  S     4.598333 10.001317 -3.060219
  S     6.946448  9.018078 -1.928520
