16  
    
  C     5.532463  5.906017 -4.440488
  C     6.669396  5.459926 -3.636340
  C     5.789595  9.286374 -4.268405
  C     7.039752  9.009146 -3.635515
  N     7.793974  5.261547 -4.364436
  N     5.864380  6.098959 -5.742121
  N     4.696109  5.597479 -2.023162
  N     8.055663  9.113221 -4.490846
  N     5.874193  9.513334 -5.580024
  N     5.160227  8.973962 -1.776917
  S     7.383640  5.482303 -5.930550
  S     4.020939  5.972890 -3.493010
  S     6.363365  5.312782 -1.939936
  S     7.466678  9.476523 -5.949751
  S     4.422272  9.421733 -3.204068
  S     6.811898  8.803671 -1.895841
