16  
    
  C     5.406043  6.375869 -4.488248
  C     6.597306  5.836643 -3.834941
  C     5.726232  9.636499 -4.407242
  C     6.964430  9.241216 -3.810298
  N     7.611708  5.580891 -4.665511
  N     5.497775  6.481050 -5.804848
  N     4.882018  6.395691 -1.995513
  N     7.917349  8.893928 -4.672326
  N     5.730341  9.646179 -5.743680
  N     5.143992  9.535804 -1.873596
  S     7.040711  5.984434 -6.099484
  S     4.118245  6.632660 -3.418351
  S     6.471327  5.868368 -2.107930
  S     7.297562  9.289982 -6.182847
  S     4.425202  9.817040 -3.271909
  S     6.792680  9.136784 -2.081077
