16  
    
  C     5.519868  5.963728 -4.309595
  C     6.716437  5.521675 -3.664633
  C     5.671814  9.509017 -4.457440
  C     6.888803  9.173592 -3.776656
  N     7.744336  5.246652 -4.513219
  N     5.684391  6.181884 -5.591508
  N     5.057224  5.994841 -1.786234
  N     8.012380  9.054498 -4.471862
  N     5.850290  9.551632 -5.799655
  N     4.998550  9.222966 -2.050720
  S     7.246404  5.701014 -5.953639
  S     4.199345  6.188276 -3.222839
  S     6.638333  5.444365 -1.898403
  S     7.490228  9.294035 -6.054641
  S     4.303634  9.596160 -3.470486
  S     6.673267  8.896659 -2.070067
