16  
    
  C     5.541468  5.837550 -4.390126
  C     6.607689  5.240481 -3.696653
  C     5.752103  9.230430 -4.219323
  C     6.977714  8.794801 -3.602729
  N     7.628058  4.851389 -4.446510
  N     5.757483  6.000979 -5.704696
  N     4.799146  5.560775 -1.941454
  N     7.991425  8.736433 -4.487969
  N     5.803960  9.482900 -5.507632
  N     5.150195  9.076455 -1.743335
  S     7.283974  5.451991 -5.967924
  S     4.148120  6.095517 -3.418051
  S     6.339555  4.973570 -2.022328
  S     7.428803  9.204413 -5.940301
  S     4.354876  9.417393 -3.138273
  S     6.755219  8.768151 -1.870035
