16  
    
  C     5.754257  5.614640 -4.279427
  C     6.981867  5.288167 -3.569873
  C     5.200485  9.895329 -4.661365
  C     6.289697  9.297857 -3.917546
  N     7.960712  4.968385 -4.375369
  N     5.871378  5.730030 -5.568997
  N     5.184806  5.631467 -1.819641
  N     7.279721  8.947159 -4.693504
  N     5.346004  9.948132 -5.994650
  N     4.528884  9.734436 -2.134127
  S     7.400264  5.287278 -6.005760
  S     4.370507  5.777528 -3.245608
  S     6.791370  5.213005 -1.873725
  S     6.885975  9.337689 -6.260467
  S     3.790857 10.217376 -3.629557
  S     6.038477  9.159055 -2.210078
