16  
    
  C     5.595664  5.546074 -4.003582
  C     6.819895  5.105183 -3.398038
  C     5.830618  9.436575 -3.924521
  C     7.064359  9.095150 -3.245708
  N     7.826906  4.940597 -4.259410
  N     5.628755  5.651546 -5.314355
  N     5.207928  5.498420 -1.509082
  N     8.104038  8.880744 -4.045720
  N     5.919413  9.406231 -5.234874
  N     5.320383  9.146346 -1.357018
  S     7.223596  5.256102 -5.726085
  S     4.348208  5.740688 -2.924326
  S     6.788028  5.003376 -1.700657
  S     7.496767  8.974858 -5.599656
  S     4.482971  9.502179 -2.745256
  S     7.001687  8.856853 -1.560909
