16  
    
  C     5.594609  5.559723 -4.417402
  C     6.844070  5.352675 -3.727108
  C     5.706617  9.359655 -4.069140
  C     6.924767  8.838970 -3.495987
  N     7.926200  5.124904 -4.479015
  N     5.682715  5.501993 -5.754567
  N     5.058412  5.709320 -1.891884
  N     7.917591  8.771226 -4.363646
  N     5.809601  9.846623 -5.286745
  N     5.202778  9.010216 -1.628844
  S     7.308144  5.273805 -6.063143
  S     4.329509  5.863392 -3.315477
  S     6.664082  5.279353 -1.968430
  S     7.359034  9.508315 -5.768016
  S     4.424212  9.661574 -2.941884
  S     6.791385  8.588814 -1.807842
