16  
    
  C     5.360149  5.867791 -4.247711
  C     6.564219  5.471638 -3.693704
  C     5.443668  9.516455 -4.461760
  C     6.639467  9.085772 -3.764744
  N     7.583126  5.339828 -4.542877
  N     5.471505  6.230858 -5.519911
  N     4.904524  5.616154 -1.732076
  N     7.624026  8.854427 -4.610451
  N     5.491558  9.664600 -5.782651
  N     5.059529  9.741715 -1.884026
  S     7.046573  5.895889 -6.017707
  S     4.085109  6.056381 -3.099556
  S     6.570705  5.381346 -1.946640
  S     7.163737  9.234407 -6.139478
  S     4.152581  9.651954 -3.257293
  S     6.608466  9.234809 -2.034071
