16  
    
  C     5.282930  6.219694 -4.321633
  C     6.308774  5.570760 -3.619390
  C     5.510608  9.762636 -4.212745
  C     6.702348  9.097200 -3.604110
  N     7.238596  4.989904 -4.382877
  N     5.541107  6.355586 -5.615904
  N     4.469911  6.161530 -1.947211
  N     7.724673  8.853956 -4.384358
  N     5.738471 10.003639 -5.468994
  N     4.948620  9.449176 -1.742123
  S     6.898167  5.424540 -5.952897
  S     3.909809  6.760679 -3.397739
  S     5.994364  5.533311 -1.902298
  S     7.306110  9.470200 -5.846436
  S     4.096438  9.719500 -3.091113
  S     6.539900  8.837518 -1.877236
