16  
    
  C     5.547579  6.232780 -4.507175
  C     6.765854  5.704549 -3.883475
  C     5.370578  9.944513 -4.723280
  C     6.624749  9.574242 -4.044805
  N     7.722778  5.527352 -4.766939
  N     5.672856  6.603673 -5.778309
  N     4.987689  5.866895 -2.019484
  N     7.699119  9.486307 -4.863950
  N     5.522106 10.122497 -6.054298
  N     4.840905  9.670898 -2.195007
  S     7.246221  6.090071 -6.169990
  S     4.241200  6.426284 -3.376210
  S     6.591192  5.504378 -2.170480
  S     7.083304  9.758308 -6.361871
  S     4.014446 10.062155 -3.546466
  S     6.538416  9.544953 -2.380532
