16  
    
  C     5.380203  5.684550 -4.343536
  C     6.629272  5.452445 -3.673053
  C     5.373427 10.180238 -4.525955
  C     6.452237  9.444684 -3.969266
  N     7.684833  5.238616 -4.479852
  N     5.499419  5.826067 -5.645677
  N     4.931638  5.586954 -1.825511
  N     7.387806  9.086544 -4.841553
  N     5.481475 10.452372 -5.838292
  N     4.647800  9.673145 -2.203445
  S     7.059042  5.544379 -6.079350
  S     4.059432  5.565173 -3.218897
  S     6.616410  5.320513 -1.969387
  S     6.956692  9.732424 -6.313135
  S     4.019287 10.383549 -3.481024
  S     6.242980  9.120081 -2.273259
