16  
    
  C     5.260489  6.287870 -4.319920
  C     6.342091  5.613590 -3.664989
  C     5.572727  9.548200 -4.243893
  C     6.801601  9.045315 -3.655552
  N     7.324715  5.287485 -4.522611
  N     5.492735  6.487129 -5.611611
  N     4.638753  6.281333 -1.874706
  N     7.835605  8.817184 -4.464444
  N     5.726539  9.748901 -5.550670
  N     5.140051  9.484742 -1.698256
  S     7.012044  5.906498 -6.002056
  S     3.881731  6.686419 -3.305188
  S     6.128734  5.566494 -1.960035
  S     7.276776  9.271056 -5.982458
  S     4.312598  9.830383 -3.055820
  S     6.651860  8.952924 -1.904649
