16  
    
  C     5.688283  6.566602 -4.496997
  C     6.818428  5.974643 -3.873406
  C     5.562300  9.999114 -4.586166
  C     6.732365  9.573790 -3.946338
  N     7.847256  5.804851 -4.688529
  N     5.756356  6.689267 -5.851182
  N     5.053107  6.331735 -2.041328
  N     7.727279  9.339625 -4.809484
  N     5.602468 10.143259 -5.900068
  N     5.020433 10.121392 -2.097511
  S     7.230532  6.212781 -6.299634
  S     4.371809  6.875106 -3.463968
  S     6.574243  5.679368 -2.191852
  S     7.144536  9.617721 -6.348901
  S     4.205764 10.424730 -3.566731
  S     6.550737  9.427551 -2.269339
