16  
    
  C     5.878365  5.427512 -4.196932
  C     7.028098  5.072052 -3.389477
  C     5.612471  9.628989 -4.375840
  C     6.812200  9.117678 -3.747111
  N     8.105513  4.933572 -4.146038
  N     6.058739  5.583240 -5.502345
  N     5.039808  5.225649 -1.764968
  N     7.901742  9.015956 -4.508904
  N     5.812353 10.005726 -5.628590
  N     5.006770  8.974669 -1.918152
  S     7.685474  5.248516 -5.765206
  S     4.467326  5.820246 -3.207893
  S     6.657491  4.649951 -1.744623
  S     7.402485  9.607928 -6.010871
  S     4.320431  9.705839 -3.236109
  S     6.641536  8.538717 -2.132101
