16  
    
  C     5.737649  5.702503 -4.193058
  C     6.852631  5.020139 -3.535683
  C     5.408523  9.322316 -4.213046
  C     6.524504  8.616704 -3.645435
  N     7.799939  4.706005 -4.439156
  N     5.787532  5.799361 -5.523184
  N     4.983975  5.458101 -1.765578
  N     7.511339  8.317517 -4.465897
  N     5.571734  9.486725 -5.518823
  N     4.858700  9.124496 -1.689682
  S     7.326812  5.265762 -5.941552
  S     4.307938  5.989423 -3.179352
  S     6.573910  4.917268 -1.822785
  S     6.989865  8.779275 -5.979465
  S     4.107976  9.554913 -3.097716
  S     6.412402  8.495464 -1.922320
