16  
    
  C     5.520237  5.317318 -4.077586
  C     6.834436  5.256286 -3.568284
  C     5.524471  9.370306 -4.678306
  C     6.671416  8.931478 -3.927448
  N     7.804514  5.266058 -4.463400
  N     5.448904  5.217340 -5.415633
  N     5.324008  5.040704 -1.509977
  N     7.670620  8.574539 -4.738264
  N     5.653195  9.410546 -6.000071
  N     4.841957  9.209207 -2.221805
  S     7.013603  5.279427 -5.951088
  S     4.317908  5.277397 -2.837955
  S     6.975279  4.994077 -1.825172
  S     7.234776  8.877676 -6.258023
  S     4.196922  9.909011 -3.646075
  S     6.418914  8.795680 -2.237981
