16  
    
  C     5.570507  5.229707 -4.235038
  C     6.882558  5.184283 -3.703548
  C     5.455761  9.254320 -4.526584
  C     6.644646  8.818596 -3.813540
  N     7.831540  5.100155 -4.623148
  N     5.464487  5.044977 -5.559126
  N     5.220928  5.211460 -1.704820
  N     7.735249  8.687092 -4.565737
  N     5.670329  9.352957 -5.829682
  N     4.743717  9.141793 -2.061022
  S     7.021572  5.098778 -6.099119
  S     4.328407  5.327926 -3.044712
  S     6.866055  4.992165 -1.968436
  S     7.244800  8.914856 -6.093513
  S     4.085828  9.599230 -3.527872
  S     6.377389  8.676817 -2.088107
