16  
    
  C     5.450653  5.661888 -4.356584
  C     6.597531  5.030316 -3.670094
  C     5.518047  9.706836 -4.611136
  C     6.666838  9.152601 -3.925852
  N     7.685463  4.918702 -4.417785
  N     5.713289  5.884117 -5.624991
  N     4.831234  5.511466 -1.836105
  N     7.691404  9.133554 -4.789426
  N     5.574631 10.100711 -5.874081
  N     4.822943  9.337327 -2.160377
  S     7.270473  5.420332 -5.979550
  S     4.165435  6.006401 -3.338237
  S     6.345119  4.756091 -1.992461
  S     7.225279  9.789164 -6.227276
  S     4.230165  9.990950 -3.554648
  S     6.375453  8.796105 -2.253029
