16  
    
  C     5.619634  5.717914 -4.061722
  C     6.788344  5.141678 -3.398780
  C     5.555466  9.354499 -3.960621
  C     6.716351  8.802246 -3.333314
  N     7.862380  4.967165 -4.188081
  N     5.935047  6.166242 -5.276520
  N     4.936213  5.375848 -1.602501
  N     7.711367  8.620335 -4.221060
  N     5.690638  9.694966 -5.223066
  N     4.898173  9.258940 -1.474136
  S     7.504953  5.627003 -5.664469
  S     4.256829  5.883128 -3.000904
  S     6.549315  5.017988 -1.675870
  S     7.238579  9.260858 -5.647662
  S     4.181115  9.665401 -2.924312
  S     6.433430  8.566792 -1.581418
