16  
    
  C     5.732656  5.687792 -4.195786
  C     6.842903  5.027657 -3.536089
  C     5.401180  9.318508 -4.219911
  C     6.518150  8.609841 -3.645456
  N     7.807656  4.721314 -4.415503
  N     5.780870  5.786280 -5.522759
  N     4.974975  5.458631 -1.763102
  N     7.515323  8.315727 -4.463928
  N     5.565658  9.487646 -5.518672
  N     4.861797  9.129630 -1.691267
  S     7.322718  5.262186 -5.942092
  S     4.315591  5.979155 -3.178022
  S     6.574729  4.908157 -1.820733
  S     6.987119  8.781934 -5.992376
  S     4.109432  9.562497 -3.097891
  S     6.416524  8.490792 -1.923952
