16  
    
  C     5.676823  5.754183 -4.210666
  C     6.879472  5.335287 -3.623364
  C     5.721906  9.615826 -4.383409
  C     6.937800  9.097286 -3.749240
  N     7.899407  5.234451 -4.467515
  N     5.758416  5.940228 -5.519024
  N     5.197802  5.408810 -1.728310
  N     7.867930  8.921487 -4.646399
  N     5.780088  9.939248 -5.649130
  N     5.101784  8.948692 -1.980802
  S     7.327510  5.659299 -5.951028
  S     4.367722  5.676386 -3.126374
  S     6.780158  5.097733 -1.902770
  S     7.318055  9.397440 -6.102294
  S     4.318039  9.620747 -3.295722
  S     6.760940  8.810680 -2.024038
