16  
    
  C     5.674081  6.540041 -4.511180
  C     6.814241  5.957753 -3.858225
  C     5.547731  9.998568 -4.608111
  C     6.774162  9.549638 -3.972631
  N     7.817618  5.766790 -4.703424
  N     5.761082  6.691261 -5.833677
  N     5.053794  6.293648 -2.048462
  N     7.734691  9.327150 -4.814945
  N     5.573068 10.118174 -5.906737
  N     5.030297 10.088529 -2.075830
  S     7.240008  6.208770 -6.287184
  S     4.378263  6.833089 -3.459327
  S     6.576837  5.673172 -2.189267
  S     7.119791  9.646558 -6.359671
  S     4.198823 10.391866 -3.585002
  S     6.539901  9.448449 -2.276233
