16  
    
  C     5.557724  5.859513 -4.470746
  C     6.678826  5.313142 -3.794099
  C     5.585226  9.521052 -4.100485
  C     6.795429  8.958514 -3.593312
  N     7.709033  4.984430 -4.601287
  N     5.739014  6.193815 -5.736458
  N     4.767294  5.710502 -1.957229
  N     7.623430  8.736298 -4.601647
  N     5.480367  9.692457 -5.407453
  N     5.004720  9.207744 -1.629687
  S     7.269334  5.559642 -6.087490
  S     4.122039  6.140575 -3.449872
  S     6.338269  5.124367 -2.030174
  S     6.966452  9.369938 -6.009206
  S     4.219178  9.682693 -2.999690
  S     6.707874  8.783041 -1.834159
