16  
    
  C     5.433654  6.041453 -4.374767
  C     6.644742  5.554369 -3.778193
  C     5.780904  9.759800 -4.494785
  C     6.933608  9.147540 -3.826858
  N     7.605367  5.395478 -4.620105
  N     5.477934  6.151513 -5.687839
  N     4.951242  5.838072 -1.854845
  N     7.866843  8.841475 -4.746126
  N     5.817060  9.870633 -5.826066
  N     5.095992  9.611231 -1.995003
  S     7.012913  5.746701 -6.130526
  S     4.127726  6.291708 -3.272422
  S     6.539710  5.335715 -2.053557
  S     7.285907  9.319519 -6.227435
  S     4.445791 10.132991 -3.399959
  S     6.624512  8.826980 -2.119236
