16  
    
  C     5.551341  6.066598 -4.278918
  C     6.662171  5.467891 -3.595968
  C     5.865249  9.657719 -4.241669
  C     7.046508  9.168102 -3.599268
  N     7.698513  5.177696 -4.401645
  N     5.730911  6.245324 -5.587372
  N     5.058505  6.172197 -1.788118
  N     8.034637  8.921177 -4.464389
  N     5.995635  9.872551 -5.557063
  N     5.277830  9.407621 -1.700360
  S     7.207159  5.558039 -5.910846
  S     4.302245  6.529138 -3.203306
  S     6.500011  5.286885 -1.869899
  S     7.436485  9.334209 -6.007735
  S     4.558502  9.977282 -3.147528
  S     6.932378  9.091594 -1.835709
