16  
    
  C     5.302530  5.915764 -4.383072
  C     6.465628  5.393805 -3.709672
  C     5.701187  9.650709 -4.213475
  C     6.726626  9.035866 -3.472983
  N     7.560451  5.195520 -4.445122
  N     5.506284  6.102150 -5.688951
  N     4.718706  5.816412 -1.837439
  N     7.792919  8.780639 -4.217865
  N     5.866169  9.882612 -5.496668
  N     4.835897  9.263746 -1.766382
  S     7.056034  5.639510 -5.974998
  S     3.977778  6.240011 -3.271484
  S     6.341398  5.296368 -1.921625
  S     7.396946  9.328561 -5.791110
  S     4.366144 10.013907 -3.239352
  S     6.424276  8.776273 -1.778472
