16  
    
  C     5.577857  5.311559 -4.257809
  C     6.855422  5.230872 -3.558744
  C     5.685517  9.347632 -4.194834
  C     6.976530  9.227475 -3.543086
  N     7.902459  5.274379 -4.350007
  N     5.680628  5.422962 -5.559970
  N     5.039279  5.791910 -1.760349
  N     8.056495  9.248627 -4.350289
  N     5.713962  9.521870 -5.521694
  N     5.099932  8.883120 -1.746822
  S     7.319105  5.341467 -5.944060
  S     4.171065  5.795905 -3.229014
  S     6.706587  5.444928 -1.809020
  S     7.335482  9.400814 -5.936754
  S     4.336178  9.120082 -3.146415
  S     6.776008  8.818221 -1.864625
