16  
    
  C     5.597180  6.639641 -4.577203
  C     6.774313  6.151152 -3.908046
  C     5.587922 10.202495 -4.600435
  C     6.715568  9.615128 -3.890889
  N     7.793112  5.899848 -4.693635
  N     5.718472  6.668615 -5.861832
  N     5.058804  6.459675 -2.045773
  N     7.692023  9.206845 -4.659148
  N     5.729053 10.207843 -5.944299
  N     4.974157 10.059687 -2.018506
  S     7.246670  6.212196 -6.284274
  S     4.327277  7.082294 -3.412380
  S     6.550157  5.797952 -2.244607
  S     7.293988  9.602545 -6.233989
  S     4.280669 10.545368 -3.481616
  S     6.510193  9.483674 -2.195446
