16  
    
  C     5.640603  6.100914 -4.301620
  C     6.761253  5.539187 -3.740328
  C     5.631426  9.550748 -4.239573
  C     6.874140  9.119304 -3.661160
  N     7.746448  5.218427 -4.580344
  N     5.739940  6.362293 -5.583985
  N     4.936637  5.787076 -1.893266
  N     7.897234  9.042160 -4.515899
  N     5.669702  9.690331 -5.541675
  N     5.234525  9.303946 -1.759902
  S     7.296919  5.865077 -6.057792
  S     4.304353  6.405172 -3.287663
  S     6.457618  5.097849 -2.074869
  S     7.205898  9.301092 -6.017430
  S     4.272822  9.770468 -3.090792
  S     6.801653  8.852414 -2.001573
