16  
    
  C     5.611670  5.533575 -4.017327
  C     6.812201  5.081343 -3.401190
  C     5.819958  9.450287 -3.930722
  C     7.042125  9.091699 -3.247642
  N     7.825616  4.959009 -4.261700
  N     5.635486  5.672007 -5.324787
  N     5.206489  5.505992 -1.505712
  N     8.092152  8.874187 -4.036641
  N     5.935993  9.404492 -5.241906
  N     5.328541  9.150099 -1.352663
  S     7.210578  5.269284 -5.725469
  S     4.367803  5.754730 -2.921479
  S     6.783151  4.998437 -1.695322
  S     7.495982  8.987603 -5.588173
  S     4.486972  9.487678 -2.755121
  S     7.014904  8.849662 -1.553276
