16  
    
  C     5.411391  5.708742 -4.257535
  C     6.631072  5.347417 -3.628664
  C     5.407496  9.269849 -4.216833
  C     6.698330  8.941067 -3.662025
  N     7.622486  5.189803 -4.489509
  N     5.490696  5.712365 -5.578173
  N     4.904063  5.609107 -1.748915
  N     7.749238  8.878043 -4.496935
  N     5.488054  9.429789 -5.535904
  N     5.014161  9.381752 -1.774430
  S     7.088089  5.568168 -5.992602
  S     4.052539  5.995427 -3.171686
  S     6.501035  5.187197 -1.927988
  S     7.058509  9.158584 -5.977829
  S     4.118395  9.599844 -3.151321
  S     6.533944  8.678424 -1.924201
