16  
    
  C     5.377815  6.137213 -4.410234
  C     6.492095  5.563767 -3.725138
  C     5.575005  9.535169 -4.188738
  C     6.822126  9.072500 -3.560351
  N     7.593935  5.406245 -4.478587
  N     5.578411  6.291434 -5.700533
  N     4.691176  5.880936 -1.995447
  N     7.883161  8.923130 -4.399974
  N     5.786802  9.847060 -5.472923
  N     4.883481  9.420625 -1.792127
  S     7.091911  5.850209 -6.081500
  S     4.025748  6.457878 -3.444927
  S     6.305189  5.455592 -2.008607
  S     7.286995  9.419865 -5.874690
  S     4.166110  9.712098 -3.209867
  S     6.503270  8.914692 -1.815633
