16  
    
  C     5.158028  6.312976 -4.339453
  C     6.258029  5.731598 -3.653264
  C     5.818841  9.605901 -4.199390
  C     6.980227  9.070198 -3.543167
  N     7.372772  5.466168 -4.355010
  N     5.334215  6.481276 -5.655910
  N     4.423061  6.057107 -1.867022
  N     7.966573  8.900733 -4.427049
  N     5.874361  9.767487 -5.545812
  N     5.443718  9.559335 -1.666547
  S     6.859462  5.974198 -5.882791
  S     3.877937  6.724530 -3.280333
  S     5.913685  5.378895 -1.944493
  S     7.390189  9.222794 -5.991100
  S     4.594356  9.945476 -3.014095
  S     6.905096  8.860003 -1.852435
