16  
    
  C     5.553298  5.943689 -4.272354
  C     6.767613  5.446548 -3.622738
  C     5.722754  9.534267 -4.502922
  C     6.959064  9.201369 -3.709826
  N     7.750957  5.244910 -4.516248
  N     5.690477  6.163104 -5.594499
  N     5.080707  5.983953 -1.791837
  N     8.028798  9.001391 -4.494344
  N     5.854539  9.561919 -5.795844
  N     5.042963  9.222589 -2.012449
  S     7.236021  5.714495 -5.957086
  S     4.202482  6.169584 -3.254767
  S     6.634384  5.417892 -1.883183
  S     7.501638  9.299513 -6.073022
  S     4.269068  9.581146 -3.495439
  S     6.678583  8.928690 -2.053041
