16  
    
  C     5.537964  6.070733 -4.439475
  C     6.763209  5.521718 -3.892999
  C     5.457995  9.797483 -4.472494
  C     6.657929  9.273234 -3.822138
  N     7.683816  5.344823 -4.810818
  N     5.502944  6.122491 -5.762408
  N     5.110270  5.864679 -1.933344
  N     7.683938  9.155656 -4.677999
  N     5.615787 10.189545 -5.739522
  N     4.752062  9.568149 -2.045050
  S     7.084481  5.705866 -6.282417
  S     4.310944  6.347639 -3.304282
  S     6.680972  5.341846 -2.197930
  S     7.164497  9.684515 -6.152876
  S     4.062437 10.046050 -3.441135
  S     6.350221  9.062999 -2.154927
