16  
    
  C     5.865740  5.788124 -4.482993
  C     7.060308  5.422752 -3.773829
  C     5.604763  9.665388 -4.310367
  C     6.887193  9.278460 -3.738823
  N     8.196529  5.300866 -4.476129
  N     6.038723  5.904025 -5.814203
  N     5.151886  5.822597 -2.021323
  N     7.925454  9.224530 -4.563105
  N     5.628200  9.751693 -5.595262
  N     5.118876  9.170109 -1.842661
  S     7.624002  5.508514 -6.029355
  S     4.484823  6.233746 -3.467173
  S     6.774750  5.348347 -2.034076
  S     7.189433  9.506981 -6.083264
  S     4.225089  9.565516 -3.206247
  S     6.705696  8.838650 -2.112924
