16  
    
  C     5.638473  5.935221 -4.387173
  C     6.849412  5.460366 -3.699483
  C     5.936229  9.462502 -4.270803
  C     7.141046  8.995799 -3.591006
  N     7.943679  5.477671 -4.459218
  N     5.880095  6.265550 -5.675912
  N     5.055410  5.786539 -1.854665
  N     8.125569  8.677964 -4.416166
  N     6.047150  9.602325 -5.572294
  N     5.234699  9.310268 -1.770240
  S     7.487585  5.928181 -5.986628
  S     4.346550  6.210770 -3.285269
  S     6.626777  5.158851 -1.992149
  S     7.483680  9.010241 -5.989375
  S     4.514634  9.674796 -3.226270
  S     6.789599  8.750162 -1.906483
