16  
    
  C     5.559211  6.030151 -4.451446
  C     6.779132  5.644011 -3.650392
  C     5.555317  9.496993 -4.364264
  C     6.777074  9.179356 -3.634164
  N     7.886893  5.487738 -4.395555
  N     5.730471  6.016608 -5.777362
  N     4.826766  5.959643 -2.004003
  N     7.890171  9.001693 -4.359457
  N     5.832770  9.677373 -5.656777
  N     4.962987  9.497493 -1.874475
  S     7.334483  5.742319 -5.970712
  S     4.160623  6.267481 -3.457468
  S     6.448864  5.652734 -1.979993
  S     7.413347  9.254392 -5.959610
  S     4.126485  9.649896 -3.292339
  S     6.589284  9.081504 -1.940474
