16  
    
  C     5.502000  5.880038 -4.499016
  C     6.792317  5.555123 -3.866088
  C     5.629744  9.440296 -4.117472
  C     6.855869  9.032455 -3.500964
  N     7.842609  5.361668 -4.671553
  N     5.582467  5.930786 -5.827889
  N     4.942576  5.665348 -1.975509
  N     7.878075  8.778083 -4.342813
  N     5.720317  9.577380 -5.433117
  N     5.059163  8.880556 -1.593383
  S     7.181936  5.744720 -6.157029
  S     4.118064  6.000818 -3.385888
  S     6.622932  5.469160 -2.126412
  S     7.264522  9.051703 -5.871800
  S     4.254746  9.310045 -2.994619
  S     6.680434  8.783150 -1.779816
