16  
    
  C     5.845848  6.088391 -4.380962
  C     6.995809  5.545943 -3.681089
  C     5.719478  9.478261 -4.359816
  C     6.905379  8.953166 -3.761711
  N     8.063500  5.356727 -4.451937
  N     6.111971  6.346100 -5.638141
  N     5.094418  5.658075 -1.972297
  N     7.936375  8.724678 -4.599075
  N     5.887714  9.678016 -5.667563
  N     5.163758  9.277698 -1.906624
  S     7.614734  5.731765 -6.024125
  S     4.421962  6.102658 -3.459198
  S     6.714067  5.392773 -1.988761
  S     7.451854  9.259911 -6.049394
  S     4.398399  9.879456 -3.259374
  S     6.757325  8.924310 -2.084133
