16  
    
  C     5.505782  6.038699 -4.191070
  C     6.571132  5.244103 -3.624054
  C     5.663673  9.909531 -4.451652
  C     6.785554  9.188462 -3.842466
  N     7.512840  4.925526 -4.492452
  N     5.641550  6.275399 -5.495912
  N     4.989496  5.836468 -1.730380
  N     7.856278  8.967838 -4.623907
  N     5.961651 10.357565 -5.638384
  N     4.677395  9.102331 -2.286977
  S     7.056848  5.563642 -5.977129
  S     4.140551  6.198482 -3.120329
  S     6.421825  4.987714 -1.959647
  S     7.464612  9.677973 -6.089767
  S     4.170405 10.010049 -3.638874
  S     6.292615  8.676024 -2.207944
