16  
    
  C     5.334013  5.497723 -4.396715
  C     6.461114  4.838399 -3.755777
  C     5.570995  9.294059 -4.390132
  C     6.627738  8.480889 -3.816295
  N     7.539106  4.781604 -4.533563
  N     5.525955  5.851482 -5.678430
  N     4.693341  5.094549 -1.847866
  N     7.669248  8.285301 -4.626423
  N     5.759337  9.573131 -5.677028
  N     4.828069  8.566999 -1.963100
  S     7.056128  5.299935 -6.068738
  S     4.026563  5.651243 -3.230130
  S     6.293721  4.619607 -2.019356
  S     7.358378  9.014682 -6.040841
  S     4.306435  9.601520 -3.232947
  S     6.382317  7.965503 -2.150157
