16  
    
  C     5.418056  5.481700 -4.205372
  C     6.583942  5.029577 -3.479042
  C     5.663533  8.948661 -4.006669
  C     6.891567  8.557451 -3.380959
  N     7.636111  4.747949 -4.206340
  N     5.592333  5.597427 -5.514684
  N     4.713319  5.395847 -1.736058
  N     7.879824  8.336370 -4.246592
  N     5.716637  9.084474 -5.346141
  N     5.335712  8.937335 -1.448245
  S     7.236198  5.293235 -5.752126
  S     4.013655  5.831499 -3.204546
  S     6.406069  5.203492 -1.712789
  S     7.311143  8.641939 -5.753015
  S     4.420189  9.097032 -2.814536
  S     6.825275  8.294526 -1.688693
