16  
    
  C     5.632122  6.578786 -4.504842
  C     6.865507  6.123084 -3.911485
  C     5.562720 10.162381 -4.670578
  C     6.678048  9.612222 -3.934385
  N     7.846545  5.905138 -4.812489
  N     5.708426  6.697856 -5.868655
  N     5.053289  6.438049 -2.052473
  N     7.730494  9.275818 -4.697113
  N     5.710743 10.181146 -6.000809
  N     5.039301 10.111367 -2.077570
  S     7.270775  6.197574 -6.270186
  S     4.315097  7.042126 -3.423728
  S     6.556449  5.736049 -2.214613
  S     7.228892  9.582461 -6.259317
  S     4.248246 10.525170 -3.485111
  S     6.531624  9.426534 -2.190145
