16  
    
  C     5.554756  5.490092 -4.315811
  C     6.764446  5.352815 -3.571286
  C     5.675692  9.376261 -4.230723
  C     6.940839  9.228948 -3.571410
  N     7.872958  5.231003 -4.338228
  N     5.684124  5.466230 -5.666222
  N     4.950460  5.754765 -1.792397
  N     7.967750  9.317746 -4.377028
  N     5.796594  9.486662 -5.559011
  N     5.186236  8.924112 -1.713304
  S     7.317797  5.385557 -5.917480
  S     4.257453  5.782756 -3.297278
  S     6.572340  5.442484 -1.830112
  S     7.399246  9.415344 -5.907958
  S     4.325463  9.208480 -3.156607
  S     6.812135  8.763517 -1.894186
