16  
    
  C     5.636325  6.592061 -4.527169
  C     6.874674  6.071809 -3.928408
  C     5.494040 10.120076 -4.651212
  C     6.716525  9.596564 -3.968743
  N     7.889623  5.881922 -4.790417
  N     5.711401  6.698440 -5.836741
  N     5.040742  6.417601 -2.045272
  N     7.724341  9.319997 -4.748447
  N     5.709203 10.168014 -5.953259
  N     5.002822 10.149931 -2.132804
  S     7.259062  6.199736 -6.277361
  S     4.330199  6.993827 -3.441340
  S     6.564911  5.706440 -2.196080
  S     7.198579  9.579316 -6.282777
  S     4.243645 10.495352 -3.494502
  S     6.553068  9.406399 -2.205811
