16  
    
  C     5.449073  5.898597 -4.400722
  C     6.691230  5.523472 -3.852443
  C     5.430856  9.676081 -4.593151
  C     6.572497  9.166375 -3.868358
  N     7.641721  5.145958 -4.713133
  N     5.446253  5.998045 -5.729000
  N     5.021124  5.702981 -1.827070
  N     7.545662  8.828518 -4.681185
  N     5.543858  9.782258 -5.912907
  N     4.813548  9.417973 -2.111203
  S     6.976235  5.479404 -6.214502
  S     4.173541  6.002499 -3.263649
  S     6.610333  5.291951 -2.103199
  S     7.043749  9.198445 -6.251359
  S     4.009143  9.798076 -3.548974
  S     6.511180  9.228100 -2.175764
