16  
    
  C     5.668387  5.821749 -4.356913
  C     6.851122  5.397145 -3.751286
  C     5.499721  9.379887 -4.681473
  C     6.726807  9.106040 -3.999544
  N     7.810258  5.182225 -4.621097
  N     5.704068  5.968944 -5.673716
  N     5.188511  5.712758 -1.799289
  N     7.872642  9.277064 -4.717667
  N     5.697348  9.728029 -5.979951
  N     4.874819  9.195843 -2.178148
  S     7.198006  5.439156 -6.129641
  S     4.338034  6.013769 -3.211269
  S     6.743585  5.021292 -2.031408
  S     7.394491  9.768713 -6.175710
  S     4.149204  9.560484 -3.610360
  S     6.501579  8.969525 -2.239179
