16  
    
  C     5.513866  5.182632 -4.289806
  C     6.858272  5.184983 -3.736245
  C     5.541149  9.276888 -4.516674
  C     6.707028  8.939309 -3.736612
  N     7.820360  5.085028 -4.651796
  N     5.456273  5.140259 -5.621145
  N     5.285107  5.215982 -1.650654
  N     7.777783  8.750995 -4.511076
  N     5.719845  9.391147 -5.825841
  N     4.752991  9.146261 -2.068087
  S     7.099648  5.049888 -6.100284
  S     4.341803  5.373525 -3.056627
  S     6.878687  4.978422 -1.980044
  S     7.293694  8.945103 -6.128693
  S     4.121387  9.622144 -3.556157
  S     6.329334  8.651694 -2.044878
