16  
    
  C     5.395981  5.694336 -4.326325
  C     6.639814  5.442071 -3.654136
  C     5.375564 10.194532 -4.564766
  C     6.462261  9.439944 -3.945613
  N     7.681214  5.245062 -4.480967
  N     5.506923  5.799082 -5.649876
  N     4.939653  5.581995 -1.805109
  N     7.353421  9.065285 -4.834972
  N     5.482687 10.451875 -5.863383
  N     4.651587  9.660476 -2.205955
  S     7.079070  5.519922 -6.071397
  S     4.053966  5.557418 -3.213173
  S     6.620358  5.327807 -1.967630
  S     6.953709  9.718111 -6.304748
  S     4.017980 10.402767 -3.470455
  S     6.242225  9.118810 -2.270283
