16  
    
  C     5.675824  5.684874 -4.173910
  C     6.827698  5.239897 -3.465218
  C     5.517715  9.478381 -4.115025
  C     6.669079  8.917260 -3.429300
  N     7.949648  5.075596 -4.194140
  N     5.857539  5.801527 -5.475545
  N     4.880737  5.584924 -1.669696
  N     7.706866  8.610555 -4.228928
  N     5.694031  9.641210 -5.429869
  N     4.803570  8.944435 -1.661247
  S     7.380917  5.283669 -5.785521
  S     4.270527  6.035507 -3.194103
  S     6.451092  5.029604 -1.716863
  S     7.221894  9.097711 -5.789344
  S     4.117423  9.595108 -3.064659
  S     6.435353  8.569153 -1.767539
