16  
    
  C     5.609566  6.069285 -4.371775
  C     6.788586  5.626566 -3.658719
  C     5.336811  9.676216 -4.223570
  C     6.587817  9.304227 -3.614132
  N     7.796457  5.394593 -4.487738
  N     5.771415  6.319760 -5.648945
  N     4.932427  5.854754 -1.953572
  N     7.647736  9.254488 -4.451639
  N     5.449450  9.827994 -5.547342
  N     4.924830  9.305112 -1.660930
  S     7.383026  5.929342 -5.988179
  S     4.188469  6.395711 -3.407613
  S     6.478781  5.305782 -1.984604
  S     7.036364  9.499134 -5.948891
  S     4.069623  9.828384 -3.082866
  S     6.557983  9.066870 -1.871071
