16  
    
  C     5.716546  5.849105 -4.392042
  C     7.008902  5.440273 -3.897757
  C     5.804617  9.410826 -3.995662
  C     7.044252  8.865496 -3.518015
  N     7.985772  5.426538 -4.808559
  N     5.793945  6.225213 -5.670179
  N     5.261840  5.192494 -2.024640
  N     7.879968  8.659535 -4.501029
  N     5.776786  9.755346 -5.294081
  N     5.460898  8.858866 -1.508207
  S     7.255053  5.818827 -6.227255
  S     4.356216  5.794441 -3.305435
  S     6.874046  4.873036 -2.184227
  S     7.199405  9.303279 -5.883456
  S     4.579271  9.434610 -2.759080
  S     7.015744  8.360225 -1.836345
