16  
    
  C     5.250271  6.257071 -4.325766
  C     6.405197  5.708106 -3.600189
  C     5.502929  9.749421 -4.265829
  C     6.640094  9.112050 -3.536276
  N     7.400705  5.348628 -4.413915
  N     5.513871  6.423581 -5.610511
  N     4.567923  5.871298 -1.842288
  N     7.636084  8.858055 -4.330015
  N     5.690435  9.884019 -5.583838
  N     5.061305  9.751110 -1.617673
  S     7.055922  5.738017 -5.953228
  S     3.930688  6.569385 -3.272426
  S     6.180460  5.548219 -1.894150
  S     7.239322  9.282826 -5.852609
  S     4.151982 10.018502 -3.109201
  S     6.465576  8.939528 -1.840614
