16  
    
  C     5.584708  6.142509 -4.453512
  C     6.808700  5.739599 -3.738517
  C     5.578556  9.601267 -4.425834
  C     6.768815  9.200061 -3.698236
  N     7.921332  5.611462 -4.493962
  N     5.722902  6.152072 -5.773486
  N     4.936525  6.008135 -1.984391
  N     7.808899  9.043367 -4.502116
  N     5.785577  9.741977 -5.741234
  N     4.995372  9.572440 -1.891276
  S     7.318965  5.799123 -6.075842
  S     4.201793  6.484279 -3.411425
  S     6.564795  5.629404 -1.996064
  S     7.314413  9.325715 -6.084070
  S     4.190849  9.894834 -3.420470
  S     6.526181  8.979187 -2.000623
