16  
    
  C     5.546288  5.481020 -4.203737
  C     6.768574  5.086361 -3.545302
  C     5.387560  9.223529 -4.270359
  C     6.544843  8.609199 -3.710429
  N     7.863748  5.031572 -4.293380
  N     5.693068  5.489318 -5.525031
  N     5.003346  5.367799 -1.712306
  N     7.496048  8.362539 -4.591648
  N     5.411109  9.321458 -5.605314
  N     4.886478  9.076927 -1.774534
  S     7.351212  5.141559 -5.824868
  S     4.224686  5.789994 -3.083095
  S     6.579191  4.805710 -1.843525
  S     6.927424  8.888263 -6.059611
  S     4.205732  9.709352 -3.139142
  S     6.447658  8.465772 -1.972616
