16  
    
  C     5.502183  5.852252 -4.490158
  C     6.744005  5.545736 -3.831637
  C     5.661215  9.450192 -4.077699
  C     6.885037  8.999221 -3.466108
  N     7.774560  5.392014 -4.669349
  N     5.599804  6.009437 -5.830059
  N     4.973729  5.660662 -1.933289
  N     7.864645  8.700410 -4.326926
  N     5.740070  9.481848 -5.424566
  N     5.061882  8.793607 -1.664884
  S     7.227844  5.788731 -6.173302
  S     4.140148  5.925669 -3.390451
  S     6.604339  5.498769 -2.087965
  S     7.220528  9.054570 -5.870352
  S     4.267439  9.224787 -3.001050
  S     6.699821  8.735026 -1.766952
