16  
    
  C     5.338623  6.093466 -4.360544
  C     6.557235  5.449890 -3.797490
  C     5.416921  9.166282 -4.343276
  C     6.688547  8.912390 -3.646770
  N     7.518539  5.282225 -4.704632
  N     5.432484  6.337429 -5.667263
  N     4.753010  5.539564 -1.944321
  N     7.690344  8.730732 -4.481591
  N     5.553110  9.285590 -5.651088
  N     4.935392  9.301054 -1.861473
  S     6.995046  5.835252 -6.122424
  S     4.004988  6.184843 -3.226446
  S     6.385118  5.336939 -2.069983
  S     7.177385  9.096969 -5.984303
  S     4.036529  9.221072 -3.181258
  S     6.577856  8.756072 -1.956709
