16  
    
  C     5.238745  6.314972 -4.521921
  C     6.395019  5.744785 -3.811722
  C     5.397317  9.967785 -4.138572
  C     6.688920  9.651274 -3.547726
  N     7.478881  5.576472 -4.491229
  N     5.504832  6.556085 -5.807918
  N     4.515528  6.098226 -2.024405
  N     7.690605  9.632838 -4.437331
  N     5.452597 10.265440 -5.442803
  N     5.038245  9.380864 -1.606251
  S     7.099832  6.052537 -6.047474
  S     3.808643  6.495607 -3.486156
  S     6.052022  5.475827 -2.128606
  S     7.024104 10.084512 -5.863908
  S     4.145068  9.692370 -2.998421
  S     6.649238  9.290109 -1.889463
