16  
    
  C     5.472810  5.702924 -4.316381
  C     6.649735  5.092814 -3.636147
  C     5.490516  9.738001 -4.619829
  C     6.664897  9.161519 -3.985163
  N     7.656309  4.866113 -4.481840
  N     5.630439  5.915808 -5.611067
  N     4.782478  5.412772 -1.921056
  N     7.816218  9.188882 -4.701243
  N     5.787005 10.075916 -5.862460
  N     4.747021  9.253769 -2.204029
  S     7.192736  5.450291 -5.954796
  S     4.177012  6.140730 -3.242570
  S     6.309148  4.796904 -1.974774
  S     7.326253  9.791419 -6.192131
  S     4.126843 10.033007 -3.523385
  S     6.332444  8.685713 -2.324708
