16  
    
  C     5.811620  5.955595 -4.161174
  C     7.010586  5.259111 -3.715783
  C     5.732834  9.283787 -4.004833
  C     7.012292  8.887996 -3.490913
  N     7.886880  5.034096 -4.675616
  N     5.785882  6.241190 -5.456174
  N     5.243600  5.215440 -1.728149
  N     8.043641  8.836446 -4.326291
  N     5.790997  9.454199 -5.334503
  N     5.322169  8.797504 -1.491190
  S     7.206002  5.749953 -6.127674
  S     4.425592  5.950937 -2.989174
  S     6.830352  4.800466 -2.010182
  S     7.396948  9.140329 -5.807970
  S     4.444150  9.224118 -2.841595
  S     6.934782  8.428412 -1.834386
