16  
    
  C     5.631497  6.041355 -4.276330
  C     6.811096  5.514757 -3.655918
  C     5.869132  9.289550 -4.213330
  C     7.071539  8.911517 -3.512490
  N     7.827805  5.330639 -4.473791
  N     5.752404  6.111170 -5.566767
  N     4.941816  5.506907 -1.922516
  N     8.112063  8.838532 -4.335536
  N     6.004142  9.346786 -5.566688
  N     5.376492  9.133589 -1.666225
  S     7.325335  5.800035 -5.991846
  S     4.333803  6.332225 -3.217506
  S     6.570802  5.155333 -1.992864
  S     7.596145  9.094080 -5.845740
  S     4.562332  9.515566 -3.074025
  S     6.925179  8.608704 -1.818178
