16  
    
  C     5.533348  5.880043 -4.419412
  C     6.702823  5.470125 -3.609368
  C     5.762689  9.276043 -4.268233
  C     7.025702  9.033839 -3.646134
  N     7.818733  5.268268 -4.353578
  N     5.857788  6.068547 -5.724542
  N     4.712112  5.604723 -1.999264
  N     8.051272  9.144061 -4.475288
  N     5.882745  9.490317 -5.572094
  N     5.183818  8.967926 -1.767084
  S     7.383970  5.450382 -5.941723
  S     3.996817  5.948646 -3.483849
  S     6.393915  5.323417 -1.932082
  S     7.467302  9.478328 -5.937402
  S     4.412615  9.414696 -3.189823
  S     6.804959  8.794992 -1.908533
