16  
    
  C     5.474050  5.141490 -4.233032
  C     6.796268  5.051720 -3.604315
  C     5.390380  9.191910 -4.511759
  C     6.568778  8.674569 -3.861431
  N     7.771223  5.043903 -4.484167
  N     5.496550  5.248450 -5.575482
  N     5.138515  5.264421 -1.638295
  N     7.574881  8.415353 -4.690289
  N     5.538818  9.385083 -5.833671
  N     4.796800  9.087615 -1.958262
  S     7.083426  5.128113 -6.003974
  S     4.266453  5.146373 -2.995663
  S     6.805038  5.082579 -1.876922
  S     7.104509  8.888613 -6.189076
  S     4.074900  9.544729 -3.398101
  S     6.445816  8.736980 -2.085750
