16  
    
  C     5.493568  6.002887 -4.373214
  C     6.671571  5.443951 -3.633390
  C     5.682855  9.536560 -4.242186
  C     6.863153  9.039410 -3.635726
  N     7.719662  5.333533 -4.414230
  N     5.748066  6.271666 -5.624413
  N     4.757047  5.646165 -1.933605
  N     7.898032  8.859733 -4.513919
  N     5.731579  9.694071 -5.583904
  N     5.236306  9.465650 -1.700142
  S     7.348468  5.777368 -5.959793
  S     4.226595  6.425638 -3.298404
  S     6.325701  5.110837 -2.027910
  S     7.295199  9.336035 -6.005600
  S     4.455565  9.857546 -3.091900
  S     6.700748  8.859993 -1.883858
