16  
    
  C     5.553326  6.153868 -4.410006
  C     6.736242  5.610515 -3.793396
  C     5.450019  9.785858 -4.171460
  C     6.686215  9.313323 -3.611004
  N     7.797030  5.495388 -4.602734
  N     5.702816  6.488325 -5.694863
  N     4.958778  5.733520 -1.855406
  N     7.636544  9.017274 -4.460332
  N     5.505884  9.834717 -5.469941
  N     4.890161  9.432818 -1.650140
  S     7.286125  5.963004 -6.090595
  S     4.276307  6.355287 -3.273983
  S     6.476341  5.191079 -2.120256
  S     7.026000  9.437581 -5.967968
  S     4.146285  9.960368 -3.111850
  S     6.513526  9.060444 -1.810716
