16  
    
  C     5.632302  5.942205 -4.101544
  C     6.702073  5.093975 -3.558544
  C     5.797807  9.579032 -4.508872
  C     6.927191  8.888319 -3.887804
  N     7.715994  4.773606 -4.395679
  N     5.820865  6.202342 -5.394974
  N     5.056740  5.583339 -1.635072
  N     7.893849  8.587602 -4.725371
  N     5.867005  9.771558 -5.809024
  N     5.202963  9.370854 -1.987064
  S     7.247208  5.473168 -5.895145
  S     4.362099  6.353680 -3.016371
  S     6.525107  4.754998 -1.832792
  S     7.289148  9.126643 -6.278833
  S     4.435186  9.798247 -3.425265
  S     6.754865  8.785047 -2.156875
