16  
    
  C     5.331257  5.917755 -4.474766
  C     6.581217  5.523435 -3.872728
  C     5.229767  9.869041 -4.678751
  C     6.499966  9.569959 -4.047152
  N     7.643193  5.579956 -4.665369
  N     5.451900  6.091080 -5.804034
  N     4.937545  5.666518 -1.925613
  N     7.643285  9.587783 -4.787614
  N     5.423233 10.092487 -5.994620
  N     4.656199  9.593059 -2.180698
  S     7.082966  5.914549 -6.159414
  S     4.083093  5.923287 -3.307804
  S     6.511888  5.145647 -2.193071
  S     7.051716  9.956022 -6.291988
  S     3.934102 10.055982 -3.578717
  S     6.353208  9.259303 -2.377332
