16  
    
  C     5.679495  5.634627 -4.276674
  C     6.908338  5.223003 -3.656010
  C     5.712193  9.750899 -4.379248
  C     6.888528  9.200432 -3.785735
  N     7.935477  5.294024 -4.480625
  N     5.762934  6.013559 -5.557939
  N     5.198875  5.333633 -1.704796
  N     7.910909  8.907249 -4.631571
  N     5.877927 10.021826 -5.672065
  N     5.136385  8.999793 -1.965566
  S     7.342210  5.707518 -5.972163
  S     4.392406  5.666447 -3.090370
  S     6.843223  5.041026 -1.920906
  S     7.367387  9.455041 -6.149638
  S     4.412694  9.618525 -3.289526
  S     6.765867  8.810630 -2.064575
