16  
    
  C     5.415764  5.478837 -4.203085
  C     6.577475  5.025715 -3.487820
  C     5.680276  8.955575 -4.010951
  C     6.911398  8.545738 -3.373153
  N     7.666173  4.758155 -4.197816
  N     5.596068  5.587119 -5.518340
  N     4.706841  5.419061 -1.740097
  N     7.916868  8.350283 -4.225293
  N     5.714213  9.076447 -5.336182
  N     5.354835  8.934318 -1.445377
  S     7.233283  5.268884 -5.758200
  S     4.002900  5.830926 -3.207790
  S     6.399264  5.204394 -1.716545
  S     7.319216  8.663253 -5.753983
  S     4.422062  9.100206 -2.809713
  S     6.826460  8.270371 -1.697047
