16  
    
  C     5.455422  5.243633 -4.218083
  C     6.720114  5.047044 -3.620886
  C     5.413717  9.226780 -4.491846
  C     6.569659  8.632323 -3.824254
  N     7.796285  4.958472 -4.413230
  N     5.525825  5.236156 -5.545809
  N     5.158744  5.276392 -1.625983
  N     7.588689  8.420110 -4.655825
  N     5.513859  9.427291 -5.797653
  N     4.841984  9.087118 -1.940185
  S     7.115827  5.147612 -5.971607
  S     4.251699  5.097376 -2.993076
  S     6.763549  5.093574 -1.868802
  S     7.036747  8.862567 -6.224236
  S     4.076032  9.545065 -3.389516
  S     6.458779  8.715202 -2.080378
