16  
    
  C     5.639625  6.130131 -4.320820
  C     6.783526  5.517458 -3.746850
  C     5.632226  9.550844 -4.214563
  C     6.859957  9.144362 -3.662578
  N     7.751351  5.218158 -4.594409
  N     5.758081  6.381705 -5.593942
  N     4.954909  5.797842 -1.892210
  N     7.903350  9.029635 -4.510173
  N     5.665400  9.698668 -5.540273
  N     5.222578  9.300165 -1.774851
  S     7.276207  5.863393 -6.056183
  S     4.305740  6.389173 -3.272828
  S     6.471135  5.111124 -2.089438
  S     7.192020  9.309068 -6.032082
  S     4.282106  9.751400 -3.087429
  S     6.784890  8.860105 -2.001756
