16  
    
  C     5.594694  5.664298 -4.096257
  C     6.822488  5.209801 -3.520804
  C     5.531827  8.977265 -4.145578
  C     6.825953  8.965028 -3.533336
  N     7.723185  4.931016 -4.467223
  N     5.548567  5.744619 -5.442126
  N     5.205580  5.382819 -1.571296
  N     7.800954  8.988823 -4.442386
  N     5.566036  8.972462 -5.474471
  N     5.087879  9.089723 -1.650162
  S     7.099219  5.429516 -5.883054
  S     4.408796  5.900278 -2.930200
  S     6.816385  5.264976 -1.797954
  S     7.126007  8.963970 -5.905997
  S     4.221911  8.973522 -3.070935
  S     6.712087  8.769891 -1.744248
