16  
    
  C     5.264836  5.964252 -4.288956
  C     6.465632  5.454007 -3.688589
  C     5.387904  9.484485 -4.124952
  C     6.589234  8.917468 -3.545953
  N     7.444193  5.071906 -4.528730
  N     5.257503  5.996565 -5.620168
  N     4.712565  5.690403 -1.797609
  N     7.514203  8.486231 -4.406081
  N     5.514482  9.657683 -5.403632
  N     4.971316  9.206767 -1.612233
  S     6.808948  5.521654 -6.056286
  S     3.843729  6.056005 -3.177044
  S     6.324897  5.281893 -1.940077
  S     6.923097  8.923353 -5.896942
  S     4.102659  9.692970 -2.947339
  S     6.582232  8.916293 -1.806898
