16  
    
  C     5.588644  5.634393 -4.213951
  C     6.936644  5.215297 -3.698102
  C     5.544951  9.415123 -4.491019
  C     6.621969  8.734164 -3.781301
  N     7.945996  5.150594 -4.593504
  N     5.637675  5.901847 -5.539784
  N     5.287729  5.224720 -1.648389
  N     7.665260  8.465362 -4.557904
  N     5.796687  9.822454 -5.730209
  N     4.765146  9.097044 -2.048062
  S     7.172655  5.498296 -6.017857
  S     4.367682  5.520883 -2.977341
  S     6.954113  4.995620 -1.968624
  S     7.322064  9.196535 -6.056555
  S     4.124799  9.571742 -3.458588
  S     6.303262  8.414212 -2.143357
