16  
    
  C     5.644821  5.917825 -4.160589
  C     6.721024  5.083346 -3.541829
  C     5.784474  9.583536 -4.481917
  C     6.936422  8.939637 -3.872427
  N     7.714900  4.857059 -4.374587
  N     5.843211  6.231716 -5.433507
  N     5.040883  5.544061 -1.627226
  N     7.884573  8.639812 -4.728699
  N     5.800616  9.753157 -5.813820
  N     5.186509  9.333515 -1.997514
  S     7.260598  5.480835 -5.888788
  S     4.347427  6.327209 -3.023753
  S     6.559716  4.773703 -1.836076
  S     7.285566  9.110614 -6.275085
  S     4.456546  9.811202 -3.424398
  S     6.780470  8.800655 -2.117744
