16  
    
  C     5.766115  5.909750 -4.181101
  C     6.990947  5.293074 -3.757626
  C     5.784022  9.229824 -4.033440
  C     7.091128  8.896566 -3.476947
  N     7.865982  5.040782 -4.761758
  N     5.736184  6.277930 -5.447200
  N     5.283848  5.238557 -1.774515
  N     8.065425  8.849976 -4.401634
  N     5.745895  9.479250 -5.328844
  N     5.337782  8.783729 -1.518368
  S     7.240569  5.843683 -6.127955
  S     4.504715  5.910738 -3.051845
  S     6.823462  4.802463 -2.086847
  S     7.346297  9.129684 -5.909212
  S     4.444222  9.232576 -2.828144
  S     6.898283  8.366237 -1.826771
