16  
    
  C     5.494472  5.675798 -4.713134
  C     6.791266  5.595200 -4.077085
  C     5.411586  9.677992 -4.286561
  C     6.646550  9.299218 -3.610215
  N     7.882977  5.725673 -4.844420
  N     5.587988  5.951408 -6.031294
  N     5.046042  5.329616 -2.178492
  N     7.725062  9.331820 -4.355093
  N     5.502525  9.996305 -5.563414
  N     4.854719  9.199990 -1.797043
  S     7.233862  5.808882 -6.384017
  S     4.270469  5.637001 -3.570293
  S     6.702220  5.423986 -2.354040
  S     7.166470  9.847107 -5.890603
  S     4.127019  9.828915 -3.140876
  S     6.444714  8.768094 -1.953138
