16  
    
  C     5.640456  5.602622 -4.219578
  C     6.798253  5.085059 -3.565702
  C     5.392801  9.261953 -4.252219
  C     6.525660  8.606634 -3.636273
  N     7.840843  4.802150 -4.312284
  N     5.781375  5.735086 -5.519849
  N     4.971079  5.444204 -1.728530
  N     7.516792  8.301870 -4.476329
  N     5.514072  9.491924 -5.556123
  N     4.899331  9.128433 -1.703997
  S     7.301301  5.234360 -5.927121
  S     4.353871  5.932262 -3.176418
  S     6.567454  4.869337 -1.815512
  S     6.974536  8.805262 -6.032089
  S     4.112704  9.606833 -3.103702
  S     6.426406  8.474229 -1.919961
