16  
    
  C     5.416584  5.453269 -4.207773
  C     6.612035  5.072233 -3.451452
  C     5.740513  8.939745 -3.947207
  C     7.004984  8.502305 -3.405134
  N     7.689521  4.898608 -4.199625
  N     5.661935  5.572981 -5.505182
  N     4.732660  5.548139 -1.726856
  N     8.056011  8.436523 -4.231280
  N     5.801267  9.031132 -5.283831
  N     5.361488  8.883025 -1.440809
  S     7.208345  5.127154 -5.787492
  S     4.022466  5.834165 -3.209988
  S     6.305683  5.186689 -1.778229
  S     7.344946  8.776129 -5.743791
  S     4.439596  9.125772 -2.804868
  S     6.862279  8.169137 -1.698055
