16  
    
  C     5.688725  6.571387 -4.499305
  C     6.820929  5.979458 -3.879571
  C     5.559050 10.002747 -4.582652
  C     6.724631  9.578243 -3.943253
  N     7.853827  5.811717 -4.689472
  N     5.753648  6.689213 -5.850296
  N     5.052043  6.339217 -2.040217
  N     7.727354  9.340962 -4.809291
  N     5.610571 10.147110 -5.901189
  N     5.016834 10.127398 -2.103810
  S     7.230188  6.212762 -6.300377
  S     4.369494  6.883802 -3.463926
  S     6.573885  5.680486 -2.191651
  S     7.149348  9.612618 -6.345727
  S     4.208339 10.430593 -3.561673
  S     6.552927  9.423766 -2.266350
