16  
    
  C     5.432306  6.054761 -4.245625
  C     6.710161  5.441875 -3.653141
  C     5.345076  9.543087 -4.375973
  C     6.546569  9.075215 -3.747413
  N     7.659039  5.186435 -4.553252
  N     5.609335  6.433045 -5.513202
  N     4.944130  5.569570 -1.731023
  N     7.626886  9.020019 -4.526194
  N     5.502764  9.835927 -5.704926
  N     4.931788  9.168726 -1.873313
  S     7.072316  5.932101 -5.970138
  S     4.171872  6.168282 -3.089392
  S     6.562057  5.134539 -1.899772
  S     7.114309  9.442887 -6.064484
  S     4.101127  9.613584 -3.217336
  S     6.511094  8.867956 -2.054731
