16  
    
  C     5.418989  6.083108 -4.380316
  C     6.716271  5.790620 -3.784591
  C     5.507266  9.661361 -4.246228
  C     6.764195  9.212148 -3.642005
  N     7.698817  5.627067 -4.635837
  N     5.474109  6.054027 -5.692493
  N     4.970189  5.796559 -1.872499
  N     7.767134  9.121238 -4.543221
  N     5.570134  9.879045 -5.597684
  N     4.971220  9.549518 -1.738656
  S     7.115292  5.840883 -6.150327
  S     4.174440  6.247635 -3.236162
  S     6.582542  5.517658 -2.101886
  S     7.102122  9.462126 -6.045714
  S     4.118747  9.845516 -3.189571
  S     6.535230  8.900935 -1.955802
