16  
    
  C     5.200916  6.160397 -4.418875
  C     6.495282  5.719667 -3.755733
  C     5.514176  9.695695 -4.442975
  C     6.626234  9.201116 -3.705107
  N     7.507739  5.542464 -4.582621
  N     5.411690  6.375387 -5.707714
  N     4.795954  6.005050 -1.856174
  N     7.684390  8.988883 -4.499932
  N     5.681152  9.907945 -5.768451
  N     4.838865  9.608867 -1.957874
  S     6.919185  5.893814 -6.088724
  S     3.952304  6.450964 -3.252723
  S     6.431854  5.653186 -1.990009
  S     7.259459  9.516734 -6.048956
  S     4.105762  9.794350 -3.472742
  S     6.452074  9.095375 -2.025833
