16  
    
  C     5.589921  6.095075 -4.392354
  C     6.747300  5.427927 -3.682110
  C     5.600161  9.523911 -4.269810
  C     6.822911  9.122328 -3.672820
  N     7.780748  5.298287 -4.500481
  N     5.762110  6.307887 -5.688359
  N     4.879404  5.715442 -1.898291
  N     7.873954  9.000009 -4.525649
  N     5.673778  9.677546 -5.616337
  N     5.185682  9.363770 -1.692954
  S     7.305303  5.848704 -6.016117
  S     4.256833  6.456453 -3.304175
  S     6.410493  5.062244 -1.992134
  S     7.263935  9.307851 -6.004049
  S     4.366526  9.811784 -3.096828
  S     6.824476  8.828564 -1.947464
