16  
    
  C     5.615298  5.729845 -4.069447
  C     6.781513  5.167433 -3.421584
  C     5.554679  9.347584 -3.969300
  C     6.714434  8.801192 -3.322794
  N     7.839847  4.929244 -4.203467
  N     5.925954  6.147123 -5.298821
  N     4.918567  5.377555 -1.602353
  N     7.694389  8.616668 -4.197115
  N     5.690129  9.717596 -5.233042
  N     4.886215  9.250373 -1.470156
  S     7.527173  5.596933 -5.659254
  S     4.244408  5.889602 -3.018704
  S     6.562495  5.039042 -1.661687
  S     7.235792  9.246031 -5.661501
  S     4.182760  9.652853 -2.939823
  S     6.421639  8.570892 -1.587814
