16  
    
  C     5.279147  6.156104 -4.390627
  C     6.447491  5.567241 -3.739278
  C     5.424233  9.845375 -4.356420
  C     6.679132  9.411333 -3.775106
  N     7.468437  5.339040 -4.555318
  N     5.450474  6.316232 -5.698977
  N     4.760050  5.929967 -1.835669
  N     7.694109  9.175455 -4.645404
  N     5.482007  9.902277 -5.715692
  N     4.982637  9.352438 -1.863636
  S     6.911799  5.758916 -6.093698
  S     3.928586  6.466637 -3.270634
  S     6.284523  5.250795 -2.052215
  S     7.035008  9.544871 -6.153814
  S     4.209860 10.017492 -3.219495
  S     6.582666  9.023443 -2.038267
