16  
    
  C     5.588971  5.433402 -4.206644
  C     6.890565  5.277551 -3.559984
  C     5.666715  9.297470 -4.171120
  C     6.924818  9.087110 -3.539474
  N     7.916293  5.187092 -4.374899
  N     5.669418  5.371503 -5.511563
  N     5.148795  5.800124 -1.705969
  N     7.924396  9.123930 -4.445198
  N     5.730744  9.496026 -5.501178
  N     5.134484  8.809959 -1.713795
  S     7.252121  5.294419 -5.891228
  S     4.279658  5.743662 -3.105708
  S     6.761057  5.412375 -1.846621
  S     7.298127  9.383028 -5.906129
  S     4.278084  9.027426 -3.174110
  S     6.782564  8.923888 -1.802854
