16  
    
  C     5.624624  5.995613 -4.275576
  C     6.840800  5.481180 -3.652634
  C     5.891497  9.354652 -4.197094
  C     7.101661  8.925856 -3.538150
  N     7.883880  5.373596 -4.465515
  N     5.770736  6.136991 -5.585399
  N     4.980121  5.544861 -1.900067
  N     8.107922  8.812929 -4.365617
  N     5.986915  9.380092 -5.525592
  N     5.346397  9.167280 -1.699209
  S     7.345475  5.831198 -5.974707
  S     4.338438  6.322772 -3.226099
  S     6.564023  5.165652 -2.029976
  S     7.592428  9.067697 -5.871412
  S     4.542414  9.555171 -3.118013
  S     6.903400  8.634833 -1.841845
