16  
    
  C     5.502718  5.891567 -4.508689
  C     6.753770  5.576836 -3.817062
  C     5.341519  9.731347 -4.413221
  C     6.555475  9.343612 -3.740902
  N     7.811590  5.522738 -4.621707
  N     5.651767  5.996146 -5.807424
  N     4.930660  5.832058 -1.999244
  N     7.444482  8.835015 -4.579272
  N     5.390255  9.670546 -5.763833
  N     4.815870  9.549981 -1.898403
  S     7.227372  5.698160 -6.208485
  S     4.134041  5.927141 -3.507392
  S     6.545527  5.450675 -2.103840
  S     6.934966  8.968207 -6.104408
  S     4.002908  9.925062 -3.312621
  S     6.422372  9.297887 -1.981188
