16  
    
  C     5.440418  6.039323 -4.369528
  C     6.660791  5.503036 -3.814889
  C     5.697193  9.783215 -4.525119
  C     6.841085  9.186822 -3.926036
  N     7.644626  5.274381 -4.657906
  N     5.466048  6.191120 -5.700945
  N     4.954845  5.734056 -1.859545
  N     7.776537  8.849143 -4.819096
  N     5.729549  9.906637 -5.848683
  N     5.212238  9.628103 -2.022784
  S     6.975680  5.745510 -6.187954
  S     4.179937  6.228348 -3.222315
  S     6.575559  5.347807 -2.093498
  S     7.243262  9.335262 -6.329911
  S     4.515062 10.198389 -3.434267
  S     6.618348  8.872376 -2.171216
