16  
    
  C     5.338960  5.498084 -4.396162
  C     6.462789  4.838906 -3.754860
  C     5.570913  9.301719 -4.388832
  C     6.626487  8.484576 -3.813788
  N     7.537315  4.787360 -4.534702
  N     5.520594  5.854761 -5.674493
  N     4.693412  5.095603 -1.847592
  N     7.671971  8.283994 -4.623641
  N     5.759838  9.574422 -5.676247
  N     4.829843  8.560893 -1.965114
  S     7.057483  5.298089 -6.069548
  S     4.032603  5.641561 -3.232441
  S     6.293000  4.624373 -2.019444
  S     7.360016  9.012195 -6.044644
  S     4.308005  9.602642 -3.230348
  S     6.386548  7.972668 -2.143657
