16  
    
  C     5.513403  6.603057 -4.517377
  C     6.687932  6.051120 -3.886241
  C     5.594667 10.154817 -4.445780
  C     6.722909  9.540867 -3.799606
  N     7.691231  5.729524 -4.706726
  N     5.699441  6.787450 -5.798803
  N     4.961092  6.546937 -2.046651
  N     7.795201  9.273541 -4.574125
  N     5.802408 10.385077 -5.757295
  N     4.888417  9.881474 -2.071871
  S     7.160621  6.190305 -6.272294
  S     4.230446  7.054348 -3.468964
  S     6.494535  5.940211 -2.139261
  S     7.305612  9.751820 -6.126069
  S     4.229572 10.467767 -3.506014
  S     6.516120  9.592388 -2.002025
