16  
    
  C     5.326433  5.633645 -4.361331
  C     6.469292  5.074723 -3.692047
  C     5.483698  9.129794 -4.354488
  C     6.641063  8.554938 -3.684298
  N     7.498102  4.698516 -4.437668
  N     5.525305  5.758745 -5.669033
  N     4.604641  5.221483 -1.981660
  N     7.649365  8.324814 -4.509276
  N     5.666570  9.444643 -5.632508
  N     4.872914  8.807545 -1.858326
  S     7.092707  5.233758 -5.929870
  S     3.993675  5.921266 -3.363349
  S     6.228688  4.856413 -2.019440
  S     7.134022  8.888004 -6.044138
  S     4.130662  9.366705 -3.260313
  S     6.511801  8.404269 -1.981241
