16  
    
  C     5.454719  6.004554 -4.338284
  C     6.691845  5.516447 -3.686985
  C     5.300317  9.535035 -4.377577
  C     6.566740  9.243577 -3.737262
  N     7.763262  5.595698 -4.452038
  N     5.601179  6.275007 -5.637125
  N     4.849889  5.453547 -1.866645
  N     7.580921  9.152452 -4.620428
  N     5.344230  9.691914 -5.744888
  N     4.954808  9.368554 -1.764606
  S     7.196781  6.058883 -5.947822
  S     4.118596  6.014353 -3.237815
  S     6.466121  5.118219 -2.024217
  S     6.969808  9.419330 -6.106279
  S     4.087561  9.668802 -3.198336
  S     6.545963  8.950301 -2.064598
