16  
    
  C     5.444160  5.607268 -4.359563
  C     6.651141  5.104582 -3.806582
  C     5.730701  9.094595 -4.357027
  C     6.948478  8.784315 -3.631270
  N     7.652991  5.047018 -4.676158
  N     5.489285  5.877469 -5.638651
  N     5.107029  5.696482 -1.839534
  N     8.017009  8.582766 -4.439755
  N     5.885094  9.076304 -5.681092
  N     5.120920  9.260107 -1.821955
  S     7.018072  5.457922 -6.148952
  S     4.265642  6.165646 -3.241582
  S     6.635458  5.019836 -2.045663
  S     7.520877  8.844486 -5.973736
  S     4.382100  9.501598 -3.305929
  S     6.712310  8.765131 -1.918798
