16  
    
  C     5.279776  6.166089 -4.425050
  C     6.531622  5.747715 -3.784983
  C     5.630390  9.589471 -4.284814
  C     6.801624  9.206616 -3.617943
  N     7.576334  5.517988 -4.586612
  N     5.400157  6.351538 -5.755423
  N     4.891110  6.137453 -1.869339
  N     7.827830  9.133452 -4.474614
  N     5.661216  9.742942 -5.629722
  N     4.945979  9.281277 -1.840774
  S     6.919379  5.936348 -6.065106
  S     4.110597  6.518860 -3.254139
  S     6.422059  5.563782 -2.050519
  S     7.238617  9.449324 -6.032810
  S     4.256321  9.677457 -3.254792
  S     6.659799  8.939658 -1.905986
