16  
    
  C     5.485784  5.981546 -4.373800
  C     6.772867  5.603456 -3.773235
  C     5.499919  9.650125 -4.324176
  C     6.674995  9.096430 -3.693222
  N     7.749531  5.499328 -4.689007
  N     5.576403  6.229753 -5.673177
  N     5.013148  5.646847 -1.906189
  N     7.683695  8.947120 -4.511589
  N     5.575989  9.890367 -5.605544
  N     5.063211  9.491372 -1.714818
  S     7.114809  5.849315 -6.173031
  S     4.263985  6.331592 -3.239045
  S     6.671210  5.420476 -2.055975
  S     7.155742  9.516075 -6.000807
  S     4.223576  9.703507 -3.112907
  S     6.623142  8.947297 -1.984636
