16  
    
  C     5.521953  5.676389 -4.470001
  C     6.807342  5.470498 -3.865900
  C     5.445172  9.565317 -4.244423
  C     6.701554  9.142280 -3.640106
  N     7.877471  5.487665 -4.642682
  N     5.611156  5.894553 -5.773829
  N     5.134727  5.401388 -1.960812
  N     7.729331  8.987097 -4.480552
  N     5.536324  9.885521 -5.526074
  N     4.985444  9.340175 -1.721936
  S     7.261560  5.883372 -6.190336
  S     4.172420  5.510973 -3.332556
  S     6.770594  5.075795 -2.118126
  S     7.087866  9.531517 -5.995026
  S     4.111009  9.642358 -3.085000
  S     6.633798  9.050408 -1.932851
