16  
    
  C     5.502025  5.915738 -4.433949
  C     6.579900  5.288136 -3.754629
  C     5.413882  9.373754 -4.180691
  C     6.675066  8.912712 -3.623511
  N     7.649891  5.118698 -4.481945
  N     5.680333  6.110226 -5.710407
  N     4.800391  5.713048 -2.021868
  N     7.664585  8.771761 -4.494678
  N     5.453735  9.664855 -5.476484
  N     5.088817  9.136793 -1.607231
  S     7.189919  5.620309 -6.049192
  S     4.140486  6.168694 -3.458530
  S     6.329448  5.099765 -2.089873
  S     6.980520  9.237233 -5.980621
  S     4.230638  9.627287 -2.975700
  S     6.642583  8.795376 -1.829983
