16  
    
  C     5.209443  6.178627 -4.294900
  C     6.356263  5.548480 -3.678614
  C     5.391587  9.755609 -4.316931
  C     6.672987  9.269119 -3.770156
  N     7.346275  5.376232 -4.531694
  N     5.313766  6.298733 -5.620696
  N     4.672645  5.969789 -1.817988
  N     7.715479  9.069629 -4.590770
  N     5.543433  9.979406 -5.619130
  N     5.075094  9.441922 -1.738112
  S     6.909850  5.830528 -6.043104
  S     3.945806  6.494852 -3.184874
  S     6.117204  5.305958 -2.014694
  S     7.069766  9.440411 -6.070443
  S     4.162925 10.045887 -3.096448
  S     6.603396  9.038389 -2.043309
