16  
    
  C     5.306793  6.020350 -4.496637
  C     6.456776  5.504299 -3.718393
  C     5.352844  9.626561 -4.219522
  C     6.591123  9.241217 -3.502220
  N     7.553634  5.281753 -4.451921
  N     5.464863  6.016190 -5.846673
  N     4.589853  6.055549 -1.970411
  N     7.650908  9.164172 -4.249843
  N     5.510302  9.825060 -5.485354
  N     4.698139  9.358529 -1.718156
  S     7.020659  5.588661 -6.044742
  S     3.960278  6.499181 -3.442311
  S     6.165199  5.528526 -2.040913
  S     7.135314  9.531143 -5.835957
  S     4.001116  9.780849 -3.163776
  S     6.345977  8.826155 -1.803689
