16  
    
  C     5.751048  5.623628 -4.280115
  C     6.998616  5.159318 -3.618491
  C     5.483661  9.426236 -4.487482
  C     6.638363  8.849565 -3.849745
  N     8.044142  5.042916 -4.452142
  N     5.896575  5.786882 -5.589571
  N     5.151407  5.371426 -1.778319
  N     7.670477  8.621199 -4.664997
  N     5.658688  9.615754 -5.807322
  N     4.803972  9.210942 -1.987583
  S     7.438939  5.330242 -5.992800
  S     4.456332  5.964497 -3.137524
  S     6.754657  4.913706 -1.939950
  S     7.210029  9.045958 -6.159585
  S     4.101530  9.615517 -3.476020
  S     6.337983  8.575667 -2.108088
