16  
    
  C     5.451743  6.382190 -4.561913
  C     6.730287  5.988978 -3.933567
  C     5.698042  9.788137 -4.417473
  C     6.924456  9.423238 -3.732333
  N     7.638631  5.616332 -4.809272
  N     5.504337  6.427280 -5.880630
  N     4.893676  6.266149 -2.100288
  N     7.993612  9.290090 -4.520494
  N     5.807603  9.865125 -5.737490
  N     5.136837  9.742299 -1.903762
  S     7.032986  5.890460 -6.259817
  S     4.135148  6.787576 -3.516711
  S     6.517194  5.831796 -2.162237
  S     7.404958  9.454550 -6.107636
  S     4.334012  9.966787 -3.400662
  S     6.707836  9.256289 -1.902835
