16  
    
  C     5.549387  5.759619 -4.383987
  C     6.800576  5.335827 -3.827072
  C     5.400347  9.927250 -4.652869
  C     6.528142  9.237696 -4.027259
  N     7.756285  5.170346 -4.749375
  N     5.573035  5.995555 -5.689098
  N     5.194682  5.552809 -1.870700
  N     7.448739  8.875021 -4.883054
  N     5.445709  9.990485 -5.983957
  N     4.882271  9.817600 -2.079623
  S     7.120928  5.589255 -6.217751
  S     4.356151  6.083515 -3.165730
  S     6.707114  4.955094 -2.145703
  S     6.883748  9.305384 -6.369157
  S     4.153517 10.375611 -3.480277
  S     6.409802  9.079932 -2.336431
