16  
    
  C     5.710797  5.835817 -4.302257
  C     6.874344  5.202221 -3.737456
  C     5.554345  9.367179 -4.345353
  C     6.671033  8.719564 -3.677442
  N     7.822209  4.915379 -4.609276
  N     5.852760  6.035126 -5.602735
  N     5.211829  5.607319 -1.831451
  N     7.693300  8.449047 -4.458214
  N     5.788058  9.730712 -5.570043
  N     4.851439  9.226553 -1.905768
  S     7.319583  5.428095 -6.112839
  S     4.422398  6.080040 -3.225442
  S     6.746474  5.117386 -2.035737
  S     7.285548  9.084130 -5.973461
  S     4.223642  9.830394 -3.333571
  S     6.453987  8.687282 -1.990249
