16  
    
  C     5.311896  6.021127 -4.437045
  C     6.541902  5.571845 -3.755601
  C     5.357086  9.681982 -4.233538
  C     6.652122  9.290282 -3.604041
  N     7.623015  5.468542 -4.518196
  N     5.558602  6.244912 -5.733019
  N     4.690990  5.750530 -1.969473
  N     7.642584  9.083975 -4.448577
  N     5.449838  9.783055 -5.520013
  N     4.791639  9.351950 -1.761754
  S     7.136310  5.825431 -6.055746
  S     3.935910  6.079482 -3.442577
  S     6.314978  5.422411 -2.066913
  S     7.030985  9.469182 -5.931775
  S     3.946555  9.749112 -3.172026
  S     6.445727  9.073126 -1.839837
