16  
    
  C     5.562399  5.208892 -4.210124
  C     6.912811  5.122543 -3.652640
  C     5.424317  9.249342 -4.533978
  C     6.585795  8.766095 -3.828182
  N     7.854760  5.136167 -4.595046
  N     5.490639  5.069416 -5.514164
  N     5.235416  5.208713 -1.699836
  N     7.707664  8.578671 -4.531875
  N     5.611541  9.317997 -5.849845
  N     4.776520  9.120134 -2.057256
  S     6.992470  5.108945 -6.103031
  S     4.266506  5.295734 -3.052205
  S     6.861735  5.014802 -1.945166
  S     7.210641  8.921705 -6.107222
  S     4.079684  9.578638 -3.490144
  S     6.392458  8.710078 -2.130753
