16  
    
  C     5.263309  6.169478 -4.404555
  C     6.465479  5.754939 -3.737136
  C     5.461511  9.731499 -4.489585
  C     6.653689  9.220805 -3.781807
  N     7.497649  5.522447 -4.559314
  N     5.357706  6.430051 -5.728501
  N     4.751705  6.017762 -1.870189
  N     7.704102  9.026759 -4.539251
  N     5.701096  9.886214 -5.768488
  N     4.876694  9.650173 -1.984722
  S     6.898273  5.874389 -6.089354
  S     3.981063  6.511189 -3.241327
  S     6.393590  5.629198 -1.995904
  S     7.305930  9.499790 -6.055056
  S     4.077889  9.762645 -3.449946
  S     6.447381  9.060332 -1.995279
