16  
    
  C     5.509098  5.962684 -4.454068
  C     6.730580  5.487819 -3.791607
  C     5.645221  9.370707 -4.224226
  C     6.875762  9.054576 -3.553211
  N     7.724882  5.125289 -4.588073
  N     5.610437  5.963060 -5.780928
  N     4.877425  5.843330 -1.997026
  N     7.970755  9.084214 -4.341241
  N     5.812850  9.508614 -5.534342
  N     5.152183  9.526985 -1.687246
  S     7.164284  5.478103 -6.089450
  S     4.162962  6.390522 -3.377488
  S     6.474241  5.409320 -2.089561
  S     7.367592  9.329650 -5.919867
  S     4.364576  9.744440 -3.116919
  S     6.681327  8.933469 -1.790893
