16  
    
  C     5.823291  5.483726 -4.250397
  C     6.954558  5.014732 -3.516999
  C     5.666007  9.584742 -4.384011
  C     6.829781  8.951146 -3.782903
  N     8.053039  4.802056 -4.237271
  N     6.012796  5.494111 -5.569476
  N     5.119911  5.289735 -1.753324
  N     7.905210  8.875475 -4.568670
  N     5.889381  9.930411 -5.642824
  N     4.984972  9.088519 -2.002091
  S     7.606935  5.138329 -5.794310
  S     4.416734  5.677727 -3.195311
  S     6.707023  4.776760 -1.861715
  S     7.416996  9.492681 -6.022977
  S     4.257512  9.683433 -3.385948
  S     6.564027  8.620453 -2.042412
