16  
    
  C     5.584051  5.224045 -4.219235
  C     6.905788  5.139189 -3.656355
  C     5.425179  9.257468 -4.534359
  C     6.598295  8.775918 -3.832851
  N     7.845619  5.126110 -4.596464
  N     5.485841  5.052491 -5.531194
  N     5.228354  5.209022 -1.707553
  N     7.724986  8.613089 -4.542785
  N     5.627713  9.326038 -5.839142
  N     4.762363  9.128366 -2.060152
  S     6.993650  5.108112 -6.104715
  S     4.283622  5.305706 -3.047169
  S     6.863216  5.007618 -1.956476
  S     7.220702  8.918235 -6.099444
  S     4.081684  9.583951 -3.502289
  S     6.390394  8.699818 -2.118252
