16  
    
  C     5.472322  5.282323 -3.881219
  C     6.707630  4.958743 -3.203012
  C     5.401105  9.370376 -4.132883
  C     6.507739  8.740739 -3.451112
  N     7.765823  4.831596 -3.970226
  N     5.566271  5.339127 -5.186717
  N     4.827130  5.114479 -1.386538
  N     7.549277  8.565156 -4.291305
  N     5.529674  9.675812 -5.411062
  N     4.660962  9.095793 -1.735022
  S     7.179767  5.208278 -5.503685
  S     4.104836  5.274661 -2.878073
  S     6.488372  4.859859 -1.477490
  S     7.126609  9.127388 -5.787391
  S     4.005126  9.685265 -3.164395
  S     6.295205  8.746255 -1.733601
