16  
    
  C     5.588742  5.577332 -4.409127
  C     6.835779  5.355838 -3.719829
  C     5.696293  9.548553 -4.169274
  C     6.822958  8.914589 -3.545322
  N     7.907042  5.117640 -4.478895
  N     5.774422  5.459883 -5.715062
  N     5.043628  5.725072 -1.875451
  N     7.834771  8.784281 -4.411933
  N     5.855902  9.876649 -5.451646
  N     5.079672  9.191666 -1.641724
  S     7.347518  5.054604 -6.011678
  S     4.197589  5.811748 -3.340472
  S     6.665276  5.269786 -1.957089
  S     7.335181  9.403692 -5.871704
  S     4.306399  9.555679 -3.066586
  S     6.684102  8.647984 -1.822884
