16  
    
  C     5.611789  5.891358 -4.181147
  C     6.790986  5.250064 -3.588808
  C     5.701771  9.536053 -4.461505
  C     6.920845  9.136236 -3.827792
  N     7.794883  4.990569 -4.386731
  N     5.788625  6.141819 -5.455804
  N     5.037933  5.421222 -1.728834
  N     7.904930  8.871057 -4.686849
  N     5.759332  9.552884 -5.813208
  N     5.191906  9.199006 -1.946495
  S     7.320012  5.581150 -5.872001
  S     4.370328  6.116408 -3.032936
  S     6.564575  4.909275 -1.926083
  S     7.253191  9.098203 -6.220590
  S     4.441533  9.882177 -3.283529
  S     6.789066  8.889621 -2.112869
