16  
    
  C     5.683912  5.465262 -4.267170
  C     6.892307  5.291182 -3.559158
  C     5.179908  9.866540 -4.649856
  C     6.278853  9.266989 -3.952587
  N     7.973761  5.189423 -4.340936
  N     5.802827  5.483000 -5.596265
  N     5.106916  5.646023 -1.736204
  N     7.340554  8.958611 -4.727917
  N     5.367709 10.011710 -5.968853
  N     4.590312  9.814108 -2.154813
  S     7.438430  5.252565 -5.919541
  S     4.347954  5.709846 -3.193460
  S     6.716517  5.306392 -1.847515
  S     6.853003  9.397763 -6.250624
  S     3.824272 10.286537 -3.586575
  S     6.017806  9.138412 -2.241626
