16  
    
  C     5.141381  6.337734 -4.500919
  C     6.368035  5.845733 -3.902786
  C     5.404728  9.517263 -4.094261
  C     6.661027  9.277453 -3.483276
  N     7.413466  5.820736 -4.779271
  N     5.222641  6.482451 -5.807603
  N     4.528962  5.943642 -2.019317
  N     7.702196  9.282687 -4.346349
  N     5.398825  9.741270 -5.441871
  N     4.947252  9.102780 -1.600739
  S     6.824895  6.224133 -6.229283
  S     3.805513  6.500151 -3.400622
  S     6.143450  5.514674 -2.191599
  S     6.988320  9.612846 -5.828863
  S     4.115868  9.500815 -3.027512
  S     6.566924  8.959333 -1.706170
