16  
    
  C     5.462590  5.669670 -4.407527
  C     6.660544  5.204053 -3.782167
  C     5.759610  9.073485 -4.273165
  C     6.985067  8.815995 -3.551903
  N     7.655998  4.899469 -4.607321
  N     5.554486  5.840859 -5.743602
  N     5.016345  5.727977 -1.851326
  N     8.038670  8.626582 -4.355483
  N     5.881560  9.097428 -5.604114
  N     5.145754  9.278873 -1.840525
  S     7.082388  5.421811 -6.117926
  S     4.200766  6.063987 -3.219315
  S     6.580306  5.149780 -2.033331
  S     7.426127  8.757337 -5.915664
  S     4.458214  9.518672 -3.318689
  S     6.741678  8.859632 -1.807222
