16  
    
  C     5.829612  5.796221 -4.535421
  C     7.034357  5.373818 -3.808207
  C     5.468047  9.572634 -4.322754
  C     6.738907  9.201551 -3.716536
  N     8.112357  5.139541 -4.576288
  N     5.945360  5.789783 -5.861212
  N     5.214374  6.009820 -2.001702
  N     7.746926  9.223451 -4.559493
  N     5.506867  9.880136 -5.657736
  N     5.118954  9.003573 -1.798651
  S     7.552041  5.460944 -6.125026
  S     4.484124  6.169227 -3.464140
  S     6.742339  5.283423 -2.045995
  S     7.183093  9.632377 -6.083711
  S     4.208969  9.418236 -3.139248
  S     6.749310  8.886321 -1.985553
