16  
    
  C     5.400948  6.033981 -4.240211
  C     6.567278  5.464472 -3.649468
  C     5.510346  9.606330 -4.258657
  C     6.624421  9.090182 -3.584594
  N     7.523622  5.262875 -4.518830
  N     5.401680  6.113495 -5.552705
  N     4.876068  5.709398 -1.748032
  N     7.772197  8.917531 -4.296585
  N     5.790313  9.919114 -5.548939
  N     4.807696  9.388336 -1.771594
  S     6.991593  5.658349 -6.047252
  S     4.075612  6.286505 -3.145226
  S     6.439659  5.184867 -1.926905
  S     7.345798  9.385931 -5.834962
  S     4.135363  9.794307 -3.255550
  S     6.403750  8.726711 -1.905183
