16  
    
  C     5.364497  6.007449 -4.488723
  C     6.511333  5.601648 -3.742864
  C     5.303732  9.684570 -4.233203
  C     6.545603  9.310166 -3.559731
  N     7.561178  5.378597 -4.514523
  N     5.500759  6.153843 -5.818393
  N     4.643318  5.917045 -2.001948
  N     7.620258  9.183954 -4.306770
  N     5.523227  9.821797 -5.522467
  N     4.740639  9.303641 -1.701638
  S     7.110518  5.732323 -6.087698
  S     3.907348  6.216240 -3.442708
  S     6.258985  5.464101 -2.015639
  S     7.098797  9.454001 -5.873080
  S     3.983056  9.767847 -3.115301
  S     6.385593  9.001108 -1.890085
