16  
    
  C     5.525020  5.890466 -4.340545
  C     6.725330  5.286058 -3.763047
  C     5.684840  9.262882 -4.416537
  C     6.862068  8.829173 -3.746579
  N     7.625946  5.018347 -4.683814
  N     5.522535  5.941941 -5.685836
  N     5.042841  5.461145 -1.794880
  N     7.922946  8.610871 -4.532779
  N     5.833261  9.356073 -5.742415
  N     5.106872  9.077053 -1.889263
  S     7.043007  5.376066 -6.187640
  S     4.290814  6.175845 -3.116246
  S     6.621116  4.922167 -2.082889
  S     7.415433  8.875393 -6.037444
  S     4.365334  9.398020 -3.358998
  S     6.712351  8.715919 -2.009112
