16  
    
  C     5.511302  5.887457 -4.514823
  C     6.748761  5.572064 -3.821397
  C     5.332667  9.734834 -4.417279
  C     6.549061  9.352523 -3.748980
  N     7.814874  5.526674 -4.619081
  N     5.647885  5.997450 -5.818282
  N     4.925196  5.830391 -1.997316
  N     7.441682  8.837105 -4.572734
  N     5.389726  9.669586 -5.770573
  N     4.812748  9.556596 -1.896893
  S     7.228002  5.700111 -6.206461
  S     4.132220  5.928810 -3.508883
  S     6.544440  5.449465 -2.102077
  S     6.935746  8.956775 -6.104656
  S     3.996780  9.928992 -3.314390
  S     6.414393  9.297902 -1.978827
