16  
    
  C     5.547854  5.733165 -4.401800
  C     6.741571  5.200824 -3.725143
  C     5.686620  9.533857 -4.233823
  C     6.866153  8.999596 -3.590865
  N     7.773624  5.052865 -4.529698
  N     5.746141  5.891486 -5.705323
  N     4.846968  5.450876 -1.962698
  N     7.893002  8.789336 -4.398128
  N     5.809734  9.634622 -5.544602
  N     5.101851  9.307274 -1.769215
  S     7.266503  5.399457 -6.104042
  S     4.282083  6.277964 -3.335896
  S     6.424967  4.975944 -2.055754
  S     7.389884  9.045988 -5.902680
  S     4.344100  9.718330 -3.182365
  S     6.668548  8.703438 -1.884176
