16  
    
  C     5.133113  5.980894 -4.300467
  C     6.303127  5.712700 -3.605817
  C     5.537875  9.573950 -4.070604
  C     6.742229  9.028838 -3.463286
  N     7.341693  5.574479 -4.393234
  N     5.276119  6.086283 -5.612716
  N     4.460453  5.820045 -1.837371
  N     7.709952  8.731411 -4.313677
  N     5.571004  9.550990 -5.413273
  N     5.245209  9.545075 -1.471885
  S     6.855754  5.662923 -5.928362
  S     3.831972  6.426530 -3.228725
  S     6.104205  5.588083 -1.884012
  S     7.087466  9.006610 -5.839893
  S     4.371099  9.990426 -2.867902
  S     6.699977  8.751229 -1.695128
