16  
    
  C     5.118367  5.906971 -4.265989
  C     6.342741  5.569076 -3.619271
  C     5.455593  9.417662 -4.022110
  C     6.687492  8.889610 -3.495601
  N     7.333033  5.284159 -4.484822
  N     5.193517  5.936641 -5.595195
  N     4.543069  5.885764 -1.781289
  N     7.706477  8.689970 -4.352262
  N     5.456700  9.469181 -5.329402
  N     5.201345  9.603595 -1.426639
  S     6.809140  5.697559 -5.999355
  S     3.763334  6.286364 -3.225260
  S     6.181629  5.516471 -1.912833
  S     6.992960  8.994606 -5.803112
  S     4.319045  9.967830 -2.838604
  S     6.562607  8.731846 -1.756032
