16  
    
  C     5.446140  5.615365 -4.261242
  C     6.658110  5.112153 -3.593724
  C     5.512533  9.256649 -4.188971
  C     6.728764  8.904855 -3.479580
  N     7.715779  4.990290 -4.380420
  N     5.633108  5.847606 -5.546081
  N     4.883552  5.516173 -1.780285
  N     7.791347  8.797840 -4.283704
  N     5.612001  9.461304 -5.502872
  N     4.920268  9.146365 -1.680830
  S     7.165141  5.348123 -5.941394
  S     4.282066  6.084411 -3.148656
  S     6.421351  4.815421 -1.889342
  S     7.242972  9.173493 -5.840514
  S     4.129509  9.431577 -3.111288
  S     6.514693  8.596301 -1.782120
