16  
    
  C     5.250837  6.303420 -4.534432
  C     6.379988  5.732443 -3.815319
  C     5.468613  9.829889 -4.061000
  C     6.781149  9.517273 -3.488421
  N     7.395409  5.500815 -4.555568
  N     5.493720  6.589379 -5.814189
  N     4.526969  6.116423 -2.049909
  N     7.729694  9.593787 -4.448857
  N     5.437252 10.113729 -5.357314
  N     5.013266  9.222116 -1.603357
  S     7.028546  6.116102 -6.130040
  S     3.825900  6.384992 -3.501956
  S     6.083553  5.469503 -2.134617
  S     7.027091 10.055022 -5.904301
  S     4.099901  9.643106 -2.956669
  S     6.667875  9.139585 -1.815155
