16  
    
  C     5.700810  5.742090 -3.993823
  C     6.824857  5.100933 -3.407105
  C     5.544853  9.426676 -3.950905
  C     6.709064  8.793413 -3.342369
  N     7.940851  5.110794 -4.132216
  N     5.896271  6.176953 -5.227689
  N     4.982295  5.352042 -1.565115
  N     7.758358  8.664755 -4.141240
  N     5.675989  9.655831 -5.248934
  N     4.988340  9.227417 -1.484072
  S     7.391524  5.746755 -5.640236
  S     4.291884  5.883102 -2.989380
  S     6.555941  4.882798 -1.711749
  S     7.232222  9.306153 -5.625684
  S     4.203274  9.700500 -2.874185
  S     6.491617  8.560859 -1.627126
