16  
    
  C     5.383739  6.046192 -4.213924
  C     6.543109  5.474352 -3.668291
  C     5.516691  9.617603 -4.298722
  C     6.670687  9.079975 -3.570980
  N     7.528292  5.261829 -4.531018
  N     5.430640  6.172334 -5.533250
  N     4.886702  5.670512 -1.762038
  N     7.702194  8.925206 -4.359711
  N     5.731413  9.922889 -5.579844
  N     4.813620  9.391948 -1.805375
  S     6.999308  5.664174 -6.026537
  S     4.110977  6.277750 -3.113620
  S     6.459421  5.184776 -1.936467
  S     7.296534  9.411037 -5.833330
  S     4.167764  9.740064 -3.284097
  S     6.387507  8.737628 -1.893697
