16  
    
  C     5.491922  5.909389 -4.435908
  C     6.609744  5.279839 -3.746706
  C     5.420523  9.403135 -4.152402
  C     6.686186  8.920553 -3.617698
  N     7.671209  5.088998 -4.486035
  N     5.696067  6.130822 -5.725902
  N     4.780191  5.719864 -2.014687
  N     7.666294  8.754717 -4.518242
  N     5.459563  9.662474 -5.453667
  N     5.059875  9.152557 -1.621750
  S     7.193778  5.612602 -6.054172
  S     4.149009  6.159279 -3.456375
  S     6.331248  5.105896 -2.088965
  S     6.975682  9.264414 -5.993281
  S     4.241451  9.633672 -2.981718
  S     6.656573  8.794042 -1.821725
