16  
    
  C     5.610025  6.075087 -4.153666
  C     6.763381  5.517336 -3.562844
  C     5.830554  9.554415 -4.251070
  C     7.055040  9.079807 -3.653060
  N     7.766230  5.298021 -4.392514
  N     5.720459  6.134318 -5.482884
  N     5.003873  5.940605 -1.686726
  N     8.048322  8.902363 -4.492219
  N     5.886637  9.681581 -5.543096
  N     5.503446  9.653341 -1.680380
  S     7.290900  5.749149 -5.937502
  S     4.381507  6.608124 -3.085314
  S     6.549139  5.310997 -1.871886
  S     7.493346  9.393861 -5.965304
  S     4.611483  9.998761 -3.045505
  S     6.965721  8.970258 -1.942573
