16  
    
  C     5.710207  5.727264 -4.012602
  C     6.816038  5.093029 -3.401588
  C     5.538215  9.419198 -3.937618
  C     6.714803  8.788539 -3.351784
  N     7.925040  5.089053 -4.122712
  N     5.917390  6.181135 -5.239094
  N     4.983321  5.357470 -1.572378
  N     7.759299  8.650093 -4.167465
  N     5.684789  9.652942 -5.246398
  N     4.971971  9.239449 -1.486058
  S     7.404387  5.727069 -5.648839
  S     4.284569  5.880531 -2.985389
  S     6.545004  4.915238 -1.711375
  S     7.231985  9.301208 -5.625494
  S     4.195109  9.695793 -2.882104
  S     6.479361  8.561327 -1.610635
