16  
    
  C     5.474301  6.018120 -4.299279
  C     6.655154  5.541434 -3.712866
  C     5.328787  9.517799 -4.387699
  C     6.593331  9.228170 -3.758229
  N     7.729713  5.587406 -4.468167
  N     5.589111  6.264850 -5.595795
  N     4.856768  5.477773 -1.848830
  N     7.577793  9.178539 -4.644775
  N     5.347130  9.699865 -5.746182
  N     4.956293  9.343025 -1.759371
  S     7.226541  6.058354 -5.954237
  S     4.125734  6.019942 -3.228391
  S     6.481449  5.092430 -2.012139
  S     6.950091  9.413318 -6.109057
  S     4.111410  9.665546 -3.210081
  S     6.530615  8.938135 -2.054435
