16  
    
  C     5.604656  5.571461 -4.230007
  C     6.789595  5.100112 -3.559554
  C     5.391935  9.238666 -4.260729
  C     6.541109  8.612215 -3.643290
  N     7.848227  4.834141 -4.294263
  N     5.784156  5.719890 -5.528299
  N     4.983948  5.433394 -1.712911
  N     7.508943  8.299079 -4.490950
  N     5.495365  9.487009 -5.573937
  N     4.914320  9.122294 -1.710796
  S     7.296781  5.221767 -5.914706
  S     4.359250  5.917755 -3.174082
  S     6.561253  4.859270 -1.817387
  S     6.970265  8.815971 -6.036002
  S     4.115584  9.623025 -3.106933
  S     6.426966  8.470249 -1.915888
