16  
    
  C     5.580103  5.751151 -4.496722
  C     6.836047  5.372629 -3.839479
  C     5.176592  9.796434 -4.390920
  C     6.346234  9.272942 -3.709196
  N     7.839240  5.195338 -4.692959
  N     5.666959  5.956232 -5.816778
  N     5.172544  5.741959 -1.965171
  N     7.264058  8.764289 -4.515392
  N     5.237942  9.779531 -5.696540
  N     4.579839  9.664629 -1.887158
  S     7.239721  5.543608 -6.207982
  S     4.288974  5.822308 -3.306554
  S     6.793018  5.331913 -2.116754
  S     6.755676  9.038476 -6.067725
  S     3.842166 10.033319 -3.335624
  S     6.182989  9.149522 -1.947369
