16  
    
  C     5.392960  6.055427 -4.587697
  C     6.651577  5.604601 -4.048856
  C     5.744305  9.425438 -4.129816
  C     6.999776  9.079111 -3.595286
  N     7.727657  5.613153 -4.819057
  N     5.493286  6.377529 -5.837845
  N     5.066202  5.714802 -2.064887
  N     7.977424  8.929226 -4.437988
  N     5.818748  9.607014 -5.448202
  N     5.250576  8.955499 -1.667731
  S     7.050242  6.188123 -6.331194
  S     4.138269  5.999449 -3.425567
  S     6.662699  5.453684 -2.351755
  S     7.386450  9.332897 -5.904196
  S     4.470072  9.517988 -3.018714
  S     6.917279  8.726283 -1.862988
