16  
    
  C     5.734746  5.843759 -4.330106
  C     6.896423  5.195868 -3.860654
  C     5.765168  9.229213 -4.047849
  C     7.045147  8.827812 -3.545070
  N     7.854244  5.181083 -4.791559
  N     5.759015  6.340576 -5.567684
  N     5.344540  5.252813 -1.832149
  N     8.025374  8.817883 -4.479899
  N     5.774673  9.439008 -5.362987
  N     5.365086  8.799891 -1.525022
  S     7.250810  5.947002 -6.076282
  S     4.511184  5.888420 -3.112509
  S     6.902029  4.786771 -2.182033
  S     7.237164  9.169601 -5.938474
  S     4.516781  9.262889 -2.871578
  S     6.922938  8.295622 -1.807075
