16  
    
  C     5.590255  5.933822 -4.720043
  C     6.793821  5.689256 -3.991788
  C     5.527950  9.766003 -4.337518
  C     6.736034  9.218428 -3.725979
  N     7.830542  5.608007 -4.818901
  N     5.669352  6.064263 -6.072890
  N     4.883508  5.620020 -2.238974
  N     7.781316  9.099794 -4.538404
  N     5.693668 10.200044 -5.574652
  N     4.891008  9.180870 -1.926177
  S     7.275133  5.890817 -6.368978
  S     4.160325  5.945670 -3.713497
  S     6.560166  5.363210 -2.269221
  S     7.305698  9.788797 -5.984490
  S     4.139836  9.823258 -3.298751
  S     6.472514  8.859845 -2.020230
