16  
    
  C     5.595196  5.996169 -4.431069
  C     6.768331  5.662742 -3.722938
  C     5.571143  9.443887 -4.366025
  C     6.810851  9.153244 -3.697493
  N     7.847754  5.476292 -4.480024
  N     5.703420  6.059049 -5.756978
  N     4.857743  5.863008 -1.949833
  N     7.890829  9.055235 -4.449530
  N     5.785000  9.665169 -5.651046
  N     5.029432  9.502350 -1.864153
  S     7.359742  5.722867 -6.042217
  S     4.155230  6.234924 -3.454792
  S     6.473615  5.671584 -1.929552
  S     7.372688  9.288540 -6.032321
  S     4.166969  9.597647 -3.353200
  S     6.588241  9.084776 -1.918824
