16  
    
  C     5.615765  5.720354 -4.063395
  C     6.786534  5.148599 -3.404491
  C     5.556509  9.351392 -3.963579
  C     6.716412  8.802341 -3.330282
  N     7.857059  4.957345 -4.193323
  N     5.933075  6.162059 -5.281218
  N     4.931256  5.376564 -1.602902
  N     7.706303  8.619366 -4.216382
  N     5.690251  9.700663 -5.224536
  N     4.894610  9.257421 -1.472743
  S     7.511549  5.619238 -5.663410
  S     4.253973  5.884500 -3.004931
  S     6.552449  5.023549 -1.672015
  S     7.238180  9.257227 -5.651055
  S     4.181264  9.662413 -2.928160
  S     6.430334  8.567738 -1.582474
