16  
    
  C     5.451253  5.683729 -4.287094
  C     6.701452  5.397852 -3.641978
  C     5.456507  9.283681 -4.296669
  C     6.679683  8.924444 -3.646221
  N     7.771632  5.216068 -4.427309
  N     5.530683  5.821168 -5.619413
  N     4.930197  5.589504 -1.722021
  N     7.712959  8.962600 -4.462080
  N     5.542539  9.418604 -5.658406
  N     5.024225  9.329290 -1.737942
  S     7.135445  5.537551 -5.968610
  S     4.160017  5.923341 -3.155609
  S     6.544377  5.183450 -1.899516
  S     7.139583  9.232387 -6.040490
  S     4.158360  9.600696 -3.174516
  S     6.581804  8.657311 -1.958835
