16  
    
  C     5.177366  6.354931 -4.304079
  C     6.349984  5.821563 -3.686424
  C     5.899474  9.597677 -4.133271
  C     7.104262  9.017966 -3.571850
  N     7.391654  5.543293 -4.462344
  N     5.365251  6.558871 -5.591542
  N     4.436229  5.896357 -1.922915
  N     8.031862  8.726348 -4.509666
  N     5.890361  9.757478 -5.486081
  N     5.451110  9.646617 -1.625952
  S     6.880159  6.007083 -6.019683
  S     3.798635  6.701042 -3.224152
  S     6.053599  5.461666 -1.949856
  S     7.358643  9.212148 -5.994649
  S     4.557867  9.873115 -3.069214
  S     6.919081  8.910332 -1.840893
