16  
    
  C     5.772874  5.592013 -4.295686
  C     6.967485  5.056933 -3.663920
  C     5.570289  9.523462 -4.335114
  C     6.684622  8.900987 -3.684500
  N     8.036403  5.062294 -4.427993
  N     6.024713  5.945567 -5.527016
  N     5.149980  5.256233 -1.889574
  N     7.743805  8.774251 -4.451349
  N     5.743166  9.798193 -5.625962
  N     4.785635  8.576244 -2.040395
  S     7.584841  5.585383 -5.950873
  S     4.418046  5.805604 -3.292129
  S     6.635105  4.660458 -2.025043
  S     7.305036  9.388031 -5.950080
  S     4.191570  9.602582 -3.269979
  S     6.422348  8.297153 -2.105697
