16  
    
  C     5.507935  5.799432 -4.543519
  C     6.697096  5.586293 -3.844616
  C     5.208048  9.599678 -4.441017
  C     6.397809  9.212113 -3.752561
  N     7.773154  5.481490 -4.586551
  N     5.660808  5.839321 -5.862306
  N     4.911967  5.661892 -2.045625
  N     7.439930  8.837143 -4.516883
  N     5.322567  9.457139 -5.728318
  N     4.650246  9.868101 -1.990443
  S     7.311325  5.749066 -6.186283
  S     4.106357  5.972735 -3.487662
  S     6.507690  5.401281 -2.175003
  S     6.868327  8.908619 -6.017011
  S     3.888636 10.117346 -3.453246
  S     6.176963  9.297619 -2.067733
