16  
    
  C     5.352949  5.511177 -4.452418
  C     6.544110  5.168034 -3.677017
  C     5.528197  9.016557 -4.187972
  C     6.808160  8.911746 -3.547912
  N     7.640663  5.121924 -4.396748
  N     5.571453  5.618517 -5.764130
  N     4.690608  5.676519 -1.981610
  N     7.833464  8.737475 -4.359910
  N     5.562402  8.859999 -5.513280
  N     5.150039  9.324518 -1.599823
  S     7.240029  5.241429 -5.971577
  S     4.004178  5.975080 -3.462247
  S     6.324294  5.179736 -1.956302
  S     7.153608  8.722595 -5.937423
  S     4.288114  9.320963 -3.039463
  S     6.777816  9.014166 -1.806522
