16  
    
  C     5.606130  6.100845 -4.470500
  C     6.790359  5.774271 -3.757730
  C     5.515481  9.611498 -4.461227
  C     6.690282  9.176819 -3.732674
  N     7.904441  5.597865 -4.447117
  N     5.747199  6.146521 -5.773979
  N     4.940962  5.990584 -1.934777
  N     7.793829  9.098057 -4.457349
  N     5.781973  9.788821 -5.741616
  N     4.984583  9.539547 -1.910128
  S     7.338050  5.801954 -6.107041
  S     4.238483  6.454001 -3.401993
  S     6.539020  5.612441 -2.028256
  S     7.343400  9.317316 -6.061087
  S     4.188266  9.898449 -3.411080
  S     6.538658  8.965954 -2.015333
