16  
    
  C     5.621818  5.519231 -4.195665
  C     6.851306  5.371491 -3.550285
  C     5.600769  9.236938 -4.204194
  C     6.890192  9.046993 -3.554847
  N     7.903224  5.123426 -4.349942
  N     5.598396  5.412490 -5.542550
  N     5.193118  5.784358 -1.645186
  N     7.909646  9.048842 -4.376503
  N     5.678374  9.476336 -5.506985
  N     5.112694  8.795428 -1.724789
  S     7.230528  5.264738 -5.894094
  S     4.362485  5.705504 -3.071842
  S     6.766419  5.390680 -1.842707
  S     7.298889  9.369538 -5.912255
  S     4.269981  8.997602 -3.151717
  S     6.805574  8.959149 -1.801659
