16  
    
  C     5.572256  6.209953 -4.359000
  C     6.699696  5.660560 -3.642718
  C     5.448421  9.607733 -4.285780
  C     6.688825  9.294403 -3.605059
  N     7.722169  5.392775 -4.427631
  N     5.708740  6.262552 -5.668241
  N     4.840196  5.856582 -1.931212
  N     7.690043  9.285462 -4.511989
  N     5.453398  9.935393 -5.608805
  N     4.878053  9.533782 -1.811037
  S     7.255104  5.748930 -6.005336
  S     4.161105  6.386346 -3.397308
  S     6.499990  5.627969 -1.950772
  S     7.067965  9.670814 -5.997958
  S     4.061313  9.574954 -3.231919
  S     6.528890  9.002565 -1.865092
