16  
    
  C     5.528800  6.097019 -4.710921
  C     6.698782  5.581684 -3.993832
  C     5.655089  9.827466 -4.367021
  C     6.835761  9.249442 -3.770459
  N     7.798761  5.412467 -4.714650
  N     5.820554  6.335729 -5.967162
  N     4.748490  5.736233 -2.253773
  N     7.871245  9.001359 -4.578140
  N     5.832503 10.191733 -5.645666
  N     4.954915  9.253477 -2.004846
  S     7.390535  5.959278 -6.236138
  S     4.035137  6.304884 -3.719069
  S     6.379166  5.304126 -2.314697
  S     7.367073  9.606897 -6.075708
  S     4.214573  9.740500 -3.415483
  S     6.521457  8.847244 -2.106779
