16  
    
  C     5.365856  5.648977 -4.355959
  C     6.484727  5.042323 -3.691278
  C     5.469649  9.153870 -4.347206
  C     6.623463  8.511654 -3.730911
  N     7.514560  4.678367 -4.435412
  N     5.535777  5.725030 -5.680663
  N     4.609836  5.182188 -1.972568
  N     7.642975  8.310632 -4.527437
  N     5.694841  9.480308 -5.625274
  N     4.859356  8.818877 -1.856767
  S     7.068428  5.250806 -5.948237
  S     3.975516  5.941268 -3.341720
  S     6.222639  4.829603 -2.014828
  S     7.156831  8.900863 -6.028154
  S     4.123629  9.361740 -3.266401
  S     6.491328  8.347688 -2.028137
