16  
    
  C     5.426561  5.557921 -4.235866
  C     6.625031  5.236737 -3.467787
  C     5.815677  8.845014 -3.946701
  C     7.091514  8.519383 -3.365525
  N     7.721201  4.976016 -4.215520
  N     5.601523  5.526300 -5.562370
  N     4.718298  5.708249 -1.736557
  N     8.038918  8.508020 -4.267071
  N     5.825547  9.092018 -5.256404
  N     5.357202  8.686609 -1.438362
  S     7.192764  5.039698 -5.795727
  S     4.088954  5.873565 -3.236293
  S     6.290382  5.111156 -1.757183
  S     7.412552  8.893491 -5.740208
  S     4.526788  9.147922 -2.835522
  S     6.917021  8.148051 -1.647478
