16  
    
  C     5.537154  5.669317 -4.740065
  C     6.788007  5.576942 -4.046864
  C     5.414301  9.681101 -4.226428
  C     6.652069  9.309918 -3.584542
  N     7.836490  5.698752 -4.820404
  N     5.561491  5.922065 -6.028611
  N     5.079641  5.309272 -2.128584
  N     7.742384  9.354562 -4.367454
  N     5.523042  9.981784 -5.539026
  N     4.821706  9.220790 -1.794873
  S     7.241327  5.821727 -6.405611
  S     4.251659  5.595439 -3.560106
  S     6.739256  5.410168 -2.329669
  S     7.112979  9.831865 -5.901722
  S     4.126593  9.806741 -3.140990
  S     6.446230  8.759829 -1.918138
