16  
    
  C     5.841360  5.701547 -4.386918
  C     6.965695  5.136902 -3.748736
  C     5.709494  9.466660 -4.290750
  C     6.906132  8.892382 -3.744419
  N     8.077143  4.933085 -4.494899
  N     6.059286  6.129660 -5.627273
  N     5.054617  5.278175 -1.975444
  N     7.902193  8.928445 -4.601741
  N     5.751118  9.918842 -5.557460
  N     5.133954  8.992367 -1.850330
  S     7.589441  5.577876 -5.984622
  S     4.383458  5.806365 -3.374163
  S     6.665448  4.854864 -2.014289
  S     7.366469  9.701916 -5.961982
  S     4.354127  9.392723 -3.237713
  S     6.695310  8.375874 -2.056735
