16  
    
  C     5.478583  5.317881 -4.243304
  C     6.736509  5.055007 -3.612829
  C     5.680984  9.284089 -4.171945
  C     6.857446  8.691794 -3.562730
  N     7.786504  4.993475 -4.432225
  N     5.555313  5.381420 -5.570781
  N     4.970173  5.311020 -1.705581
  N     7.872005  8.483223 -4.391857
  N     5.803326  9.540543 -5.472315
  N     5.260563  9.233061 -1.573582
  S     7.199868  5.267914 -5.973850
  S     4.117500  5.451919 -3.125765
  S     6.595285  4.941632 -1.879986
  S     7.394219  8.985252 -5.891095
  S     4.363430  9.474043 -2.997353
  S     6.727853  8.537972 -1.845411
