16  
    
  C     5.478691  5.965562 -4.425342
  C     6.692962  5.718388 -3.621088
  C     5.550968  9.653959 -4.335219
  C     6.705288  9.205123 -3.589574
  N     7.771145  5.556461 -4.376232
  N     5.736169  6.051495 -5.725851
  N     4.803429  6.099530 -1.927996
  N     7.820263  8.892268 -4.287852
  N     5.807209  9.627571 -5.656982
  N     4.905490  9.425549 -1.766057
  S     7.381099  5.734119 -5.936106
  S     4.108048  6.363574 -3.493655
  S     6.387631  5.602072 -1.963634
  S     7.431645  9.236207 -5.831086
  S     4.210346  9.753267 -3.298813
  S     6.490824  9.064047 -1.861792
