16  
    
  C     5.664773  5.766507 -4.343237
  C     6.934453  5.327267 -3.759540
  C     5.714380  9.613141 -4.306848
  C     6.970811  9.147006 -3.750355
  N     7.941345  5.253795 -4.622401
  N     5.780827  5.902618 -5.653318
  N     5.238867  5.517445 -1.814159
  N     7.936058  9.006167 -4.648023
  N     5.806699  9.984727 -5.591961
  N     5.311043  8.808683 -1.880633
  S     7.343584  5.561964 -6.115962
  S     4.382267  5.910618 -3.199348
  S     6.836547  5.049551 -2.099872
  S     7.342526  9.690272 -6.070801
  S     4.450433  9.437357 -3.140925
  S     6.938870  8.740969 -2.080752
