16  
    
  C     5.660681  5.700308 -4.178981
  C     6.812132  5.243707 -3.480768
  C     5.532770  9.470051 -4.131657
  C     6.672579  8.889677 -3.438404
  N     7.948008  5.078849 -4.200659
  N     5.856833  5.762106 -5.488578
  N     4.880709  5.603530 -1.668130
  N     7.710549  8.630732 -4.254388
  N     5.687341  9.630224 -5.445465
  N     4.801801  8.942422 -1.679798
  S     7.379303  5.285192 -5.807644
  S     4.268264  6.043569 -3.197959
  S     6.451472  5.016057 -1.713756
  S     7.214146  9.098184 -5.797300
  S     4.131171  9.592709 -3.071196
  S     6.432183  8.569306 -1.768098
