16  
    
  C     5.682332  5.863490 -3.908122
  C     6.845364  5.150612 -3.425720
  C     5.635288  9.626841 -4.002172
  C     6.849595  9.040148 -3.494285
  N     7.828254  5.046245 -4.317260
  N     5.861165  6.395725 -5.114346
  N     5.144013  4.907970 -1.607882
  N     7.832885  8.923868 -4.378853
  N     5.690971  9.991862 -5.276350
  N     5.100959  8.883039 -1.607685
  S     7.308927  5.937872 -5.685237
  S     4.372649  5.841689 -2.753915
  S     6.743570  4.522716 -1.818961
  S     7.168641  9.534528 -5.793061
  S     4.364705  9.674081 -2.899655
  S     6.704936  8.511908 -1.833407
