16  
    
  C     5.433680  5.450829 -4.205704
  C     6.615417  5.098901 -3.463192
  C     5.755935  8.920709 -3.940465
  C     7.017678  8.502955 -3.392970
  N     7.679122  4.926572 -4.200276
  N     5.663016  5.571905 -5.502162
  N     4.734925  5.574955 -1.725386
  N     8.060000  8.455187 -4.256097
  N     5.822500  9.030498 -5.270992
  N     5.356845  8.860894 -1.440868
  S     7.205616  5.102130 -5.790412
  S     4.036366  5.837269 -3.210285
  S     6.289752  5.178650 -1.785360
  S     7.353967  8.797198 -5.740352
  S     4.448654  9.131559 -2.807697
  S     6.871565  8.156312 -1.692779
