16  
    
  C     5.406683  5.568333 -4.397340
  C     6.595399  5.198371 -3.636931
  C     5.465463  9.037210 -4.207845
  C     6.763161  8.894583 -3.604371
  N     7.613379  4.865817 -4.446785
  N     5.561134  5.669755 -5.697473
  N     4.669534  5.717584 -1.972917
  N     7.805024  8.701557 -4.415331
  N     5.518521  9.014849 -5.531452
  N     5.072255  9.087963 -1.696384
  S     7.202231  5.295459 -5.996301
  S     3.968334  5.841756 -3.461349
  S     6.188141  5.050481 -1.971971
  S     7.121893  8.703218 -5.948932
  S     4.177092  9.375199 -3.095055
  S     6.691110  8.843907 -1.896898
