16  
    
  C     5.437817  5.947361 -4.420887
  C     6.673884  5.551349 -3.858581
  C     5.436303  9.641990 -4.602162
  C     6.559774  9.109983 -3.861759
  N     7.639177  5.143453 -4.710343
  N     5.409595  5.999434 -5.768705
  N     5.010347  5.709923 -1.835598
  N     7.528568  8.798059 -4.694672
  N     5.559087  9.781465 -5.898359
  N     4.794188  9.442545 -2.085122
  S     6.955788  5.483565 -6.222973
  S     4.167503  5.995992 -3.261408
  S     6.602191  5.280990 -2.087868
  S     7.033276  9.193693 -6.255172
  S     4.013557  9.824687 -3.542756
  S     6.505564  9.243768 -2.163304
