16  
    
  C     5.300399  6.022527 -4.498759
  C     6.457331  5.497365 -3.713214
  C     5.353660  9.623103 -4.208460
  C     6.589182  9.241949 -3.503679
  N     7.555462  5.279447 -4.450614
  N     5.464513  6.014994 -5.846096
  N     4.586012  6.059626 -1.974163
  N     7.658897  9.156018 -4.252725
  N     5.516104  9.820904 -5.475376
  N     4.698816  9.360971 -1.715858
  S     7.017003  5.582463 -6.041837
  S     3.959378  6.510342 -3.441649
  S     6.165258  5.529476 -2.040203
  S     7.135470  9.535961 -5.837448
  S     3.998318  9.781524 -3.169241
  S     6.346286  8.820805 -1.802359
