16  
    
  C     5.440975  6.000125 -4.216006
  C     6.624708  5.302086 -3.626308
  C     5.724579  9.868265 -4.480933
  C     6.739733  9.067532 -3.815037
  N     7.535628  4.965276 -4.552105
  N     5.577305  6.331624 -5.517759
  N     4.991094  5.876746 -1.657330
  N     7.814052  8.873859 -4.579237
  N     6.049680 10.253060 -5.708224
  N     4.692207  9.181595 -2.232583
  S     7.038542  5.669838 -5.951278
  S     4.189513  6.247266 -3.072533
  S     6.473980  5.097028 -1.903091
  S     7.501223  9.681057 -6.040978
  S     4.227471  9.928345 -3.601813
  S     6.303099  8.756266 -2.147744
