16  
    
  C     5.539946  5.983056 -4.489527
  C     6.605122  5.419255 -3.676042
  C     5.789407  9.398930 -4.311687
  C     7.026949  9.028795 -3.656687
  N     7.680153  5.114890 -4.384361
  N     5.786915  6.171038 -5.790535
  N     4.609049  5.632561 -2.098457
  N     8.072980  8.933379 -4.462028
  N     5.912652  9.683930 -5.599163
  N     5.209503  9.038699 -1.853406
  S     7.427640  5.755146 -5.934641
  S     4.122629  6.192323 -3.576636
  S     6.210596  5.212685 -2.038814
  S     7.470498  9.408973 -6.007788
  S     4.421880  9.433269 -3.286677
  S     6.842626  8.834331 -1.890989
