16  
    
  C     5.505945  5.667283 -4.323263
  C     6.689334  5.054342 -3.684268
  C     5.533224  9.246324 -4.375017
  C     6.704040  8.783449 -3.699572
  N     7.714439  4.844361 -4.535145
  N     5.701954  5.952890 -5.591777
  N     4.992185  5.539704 -1.797581
  N     7.764026  8.653621 -4.490845
  N     5.651890  9.427087 -5.693036
  N     5.080477  9.152599 -1.812467
  S     7.253250  5.360086 -6.028559
  S     4.238732  6.022314 -3.207476
  S     6.556411  5.015475 -1.892362
  S     7.294545  9.108481 -6.002363
  S     4.234388  9.522600 -3.198608
  S     6.594655  8.602272 -2.020372
