16  
    
  C     5.544531  6.246707 -4.628939
  C     6.514570  5.523878 -3.864063
  C     5.778327  9.504843 -4.392433
  C     6.976190  9.110578 -3.728818
  N     7.621069  5.259617 -4.502507
  N     5.932635  6.560365 -5.853045
  N     4.607882  5.881483 -2.163176
  N     8.015457  8.986530 -4.583466
  N     5.944921  9.704941 -5.703348
  N     5.146046  9.254259 -1.937159
  S     7.461343  5.944694 -5.948868
  S     4.168067  6.499849 -3.626279
  S     6.022324  5.029055 -2.273093
  S     7.520254  9.346587 -6.060457
  S     4.398780  9.563609 -3.344923
  S     6.743931  8.750102 -2.005382
