16  
    
  C     5.392836  6.368903 -4.495043
  C     6.573661  5.897369 -3.833112
  C     5.733319  9.555709 -4.427039
  C     6.991583  9.193712 -3.782926
  N     7.550490  5.657247 -4.682608
  N     5.456955  6.431880 -5.805598
  N     4.892589  6.422731 -1.992597
  N     7.966169  9.028562 -4.691652
  N     5.707698  9.721817 -5.748435
  N     5.251120  9.502093 -1.872829
  S     7.008079  6.015205 -6.215057
  S     4.098588  6.688290 -3.422603
  S     6.403230  5.888065 -2.127178
  S     7.270766  9.300967 -6.211613
  S     4.446297  9.818371 -3.342321
  S     6.842285  9.109715 -1.993460
