16  
    
  C     5.663212  5.776503 -3.947922
  C     6.870870  5.189914 -3.376276
  C     5.525910  9.419526 -3.966439
  C     6.681815  8.868849 -3.333787
  N     7.927050  5.168332 -4.219113
  N     5.795232  6.164895 -5.195477
  N     4.983722  5.316760 -1.564208
  N     7.741048  8.743904 -4.111250
  N     5.658723  9.700113 -5.261053
  N     5.007329  9.178563 -1.471854
  S     7.383529  5.808541 -5.617758
  S     4.305512  5.898039 -2.987570
  S     6.606536  4.755119 -1.702944
  S     7.248584  9.305179 -5.625791
  S     4.250259  9.709622 -2.848998
  S     6.541427  8.551919 -1.681857
