16  
    
  C     5.453312  5.973547 -4.414567
  C     6.700717  5.505673 -3.841225
  C     5.683689  9.773756 -4.588461
  C     6.821463  9.106669 -3.948312
  N     7.621943  5.233338 -4.787778
  N     5.457240  6.243080 -5.711460
  N     5.019239  5.647163 -1.865115
  N     7.749770  8.880401 -4.838093
  N     5.712807  9.957084 -5.904175
  N     5.211136  9.664065 -1.996546
  S     6.994780  5.721232 -6.189487
  S     4.166746  6.209779 -3.184240
  S     6.592350  5.343405 -2.087795
  S     7.196196  9.330622 -6.368486
  S     4.469227 10.261071 -3.411035
  S     6.662061  8.903892 -2.262364
