16  
    
  C     5.471705  6.020154 -4.273572
  C     6.645591  5.565421 -3.680641
  C     5.360300  9.510494 -4.400009
  C     6.615293  9.205652 -3.801241
  N     7.705772  5.563466 -4.490097
  N     5.583483  6.271457 -5.567475
  N     4.874189  5.505130 -1.823300
  N     7.597586  9.199234 -4.659457
  N     5.364666  9.694790 -5.696159
  N     4.941042  9.318162 -1.787854
  S     7.251235  6.057068 -5.967215
  S     4.124360  6.030758 -3.215631
  S     6.496929  5.066194 -2.002291
  S     6.931870  9.410994 -6.131395
  S     4.124230  9.662371 -3.211237
  S     6.520180  8.923941 -2.039119
