16  
    
  C     5.531229  6.051932 -4.431386
  C     6.768820  5.628230 -3.763390
  C     5.605270  9.414814 -4.431802
  C     6.847890  9.202229 -3.753749
  N     7.849527  5.448927 -4.521335
  N     5.621545  6.129658 -5.755410
  N     4.954895  5.734643 -1.936125
  N     7.880955  9.066210 -4.579891
  N     5.688722  9.498160 -5.755606
  N     5.066347  9.403453 -1.929569
  S     7.213172  5.731854 -6.078866
  S     4.171389  6.159965 -3.352552
  S     6.561631  5.663315 -2.020317
  S     7.277322  9.401103 -6.133898
  S     4.245049  9.472200 -3.404513
  S     6.611658  9.001850 -2.022155
