16  
    
  C     5.604918  6.402818 -4.526536
  C     6.764485  5.747859 -3.894488
  C     5.404477  9.928932 -4.690220
  C     6.654806  9.559820 -4.005569
  N     7.785111  5.544940 -4.701981
  N     5.779653  6.650737 -5.796017
  N     5.021884  6.022392 -2.003985
  N     7.619927  9.362144 -4.892095
  N     5.515353 10.081250 -6.017830
  N     4.951019  9.839787 -2.131766
  S     7.279992  6.166849 -6.240691
  S     4.235093  6.631444 -3.388073
  S     6.643964  5.612225 -2.189590
  S     7.135394  9.744185 -6.419657
  S     4.129500 10.185992 -3.568726
  S     6.559770  9.545402 -2.282914
