16  
    
  C     5.660207  5.677105 -4.255616
  C     6.904970  5.233746 -3.621892
  C     5.684950  9.711369 -4.359240
  C     6.894474  9.187630 -3.786676
  N     7.901881  5.291055 -4.486374
  N     5.778869  5.991818 -5.551550
  N     5.205637  5.355483 -1.709705
  N     7.903731  8.901483 -4.635478
  N     5.855122 10.008021 -5.675048
  N     5.129183  8.982008 -1.985680
  S     7.340609  5.692127 -5.963354
  S     4.399883  5.665446 -3.100362
  S     6.818185  5.062140 -1.919844
  S     7.354900  9.435946 -6.139106
  S     4.395624  9.615145 -3.292167
  S     6.764201  8.810675 -2.043373
