16  
    
  C     5.573407  5.352925 -4.099880
  C     6.928768  5.096496 -3.523675
  C     5.537996  9.494501 -4.726921
  C     6.658761  8.921037 -4.010225
  N     7.941630  5.020700 -4.426351
  N     5.565548  5.493469 -5.435971
  N     5.200316  4.992493 -1.552358
  N     7.645142  8.514099 -4.768174
  N     5.713897  9.593893 -6.058885
  N     4.867085  9.448428 -2.165980
  S     7.128755  5.207505 -5.879213
  S     4.290147  5.237187 -2.928312
  S     6.818777  4.920917 -1.761745
  S     7.164383  8.861178 -6.364889
  S     4.124544  9.697166 -3.618743
  S     6.457513  8.882786 -2.294889
