16  
    
  C     5.472559  5.820275 -4.134894
  C     6.485782  4.954576 -3.620663
  C     5.689960  9.408344 -4.502497
  C     6.846609  8.873410 -3.859030
  N     7.407266  4.565198 -4.477948
  N     5.699988  6.086260 -5.398906
  N     5.058610  5.655989 -1.628130
  N     7.851093  8.680648 -4.710163
  N     5.828168  9.647101 -5.820061
  N     5.046247  9.278209 -2.048885
  S     7.017111  5.216094 -5.903815
  S     4.342800  6.437940 -2.913786
  S     6.345682  4.603170 -1.865371
  S     7.381154  9.178883 -6.177620
  S     4.418366  9.911706 -3.441090
  S     6.586920  8.618066 -2.187686
