16  
    
  C     5.566587  5.971999 -4.444247
  C     6.763902  5.670981 -3.696900
  C     5.630179  9.460277 -4.411954
  C     6.853831  9.147634 -3.733984
  N     7.803842  5.462092 -4.512807
  N     5.744542  6.123190 -5.761984
  N     4.840096  5.759008 -1.942827
  N     7.888444  9.057073 -4.556505
  N     5.666325  9.542934 -5.752814
  N     4.944397  9.488035 -1.921796
  S     7.279437  5.717292 -6.125080
  S     4.173596  6.175960 -3.381315
  S     6.546285  5.685233 -1.952254
  S     7.276251  9.384054 -6.079927
  S     4.310548  9.513545 -3.395333
  S     6.610659  9.044698 -1.950736
