16  
    
  C     5.808430  5.518559 -4.224023
  C     6.985065  5.064750 -3.477003
  C     5.667771  9.608235 -4.376646
  C     6.811338  9.006225 -3.747797
  N     8.075274  4.860945 -4.204378
  N     6.017748  5.492207 -5.545073
  N     5.127774  5.237318 -1.756154
  N     7.865792  8.995498 -4.538611
  N     5.846564  9.999565 -5.644465
  N     5.017351  9.024909 -1.950094
  S     7.675020  5.198905 -5.750681
  S     4.457895  5.758830 -3.222042
  S     6.662533  4.702288 -1.782870
  S     7.414143  9.542033 -6.016148
  S     4.275116  9.701834 -3.318152
  S     6.624746  8.571511 -2.090540
