16  
    
  C     5.326860  5.490075 -4.379715
  C     6.479563  4.949585 -3.707859
  C     5.485953  9.205277 -4.427113
  C     6.564641  8.480184 -3.792341
  N     7.516781  4.805665 -4.534240
  N     5.499947  5.842163 -5.639876
  N     4.589506  5.169759 -1.881355
  N     7.596320  8.196583 -4.596713
  N     5.761308  9.602190 -5.669369
  N     4.948046  8.943030 -1.902256
  S     7.051028  5.225194 -6.065747
  S     4.057040  5.919879 -3.254621
  S     6.170060  4.646124 -1.954870
  S     7.274210  9.036533 -6.042996
  S     4.145937  9.353860 -3.279108
  S     6.288587  7.976115 -2.141849
