16  
    
  C     5.434337  5.983158 -4.174345
  C     6.567258  5.329881 -3.635857
  C     5.664510  9.747378 -4.536874
  C     6.703297  9.079936 -3.819550
  N     7.546232  5.125377 -4.494781
  N     5.552941  6.290089 -5.449747
  N     5.013594  5.792204 -1.672217
  N     7.781228  8.848591 -4.535643
  N     5.972633 10.175822 -5.776434
  N     4.762668  9.236317 -2.126040
  S     7.048177  5.730722 -6.000734
  S     4.207617  6.304918 -3.018208
  S     6.518476  5.181158 -1.883456
  S     7.600267  9.613507 -5.971316
  S     4.242213  9.903779 -3.564166
  S     6.353592  8.807713 -2.126397
