16  
    
  C     5.380719  5.750547 -4.115088
  C     6.430346  4.905693 -3.605512
  C     5.676315  9.550964 -4.469440
  C     6.834220  9.020283 -3.781942
  N     7.317604  4.449501 -4.527489
  N     5.495484  5.905353 -5.447499
  N     4.869792  5.518043 -1.622498
  N     7.828514  8.819051 -4.640942
  N     5.753309  9.570683 -5.776313
  N     4.914670  9.116381 -2.036521
  S     6.860688  5.122729 -5.946981
  S     4.233475  6.166090 -2.978820
  S     6.262981  4.651780 -1.867760
  S     7.270370  9.108709 -6.178882
  S     4.340834  9.878673 -3.375625
  S     6.562570  8.722188 -2.045712
