16  
    
  C     5.387197  5.489081 -4.313807
  C     6.620966  5.034868 -3.685109
  C     5.753114  9.387503 -4.203178
  C     6.829196  8.611458 -3.639844
  N     7.652815  4.927087 -4.506787
  N     5.495871  5.652145 -5.615805
  N     4.901300  5.343558 -1.831756
  N     7.789812  8.317171 -4.528113
  N     5.828407  9.657778 -5.491987
  N     5.026082  8.856098 -1.791666
  S     7.121827  5.265776 -6.024393
  S     4.031420  5.398477 -3.262489
  S     6.483370  4.760093 -1.986288
  S     7.259810  8.939298 -6.003742
  S     4.335659  9.508796 -3.233710
  S     6.607152  8.316841 -1.968452
