16  
    
  C     5.390664  6.204894 -4.344443
  C     6.598930  5.720803 -3.609256
  C     5.577962  9.633914 -4.195615
  C     6.713125  9.112255 -3.450230
  N     7.643399  5.393375 -4.360895
  N     5.557308  6.279624 -5.654815
  N     4.606368  6.012656 -1.915644
  N     7.729892  8.847736 -4.260244
  N     5.745269  9.732437 -5.499473
  N     4.852653  9.521113 -1.720960
  S     7.124163  5.749174 -5.889485
  S     4.016405  6.514333 -3.404288
  S     6.246279  5.590358 -1.930082
  S     7.288446  9.264069 -5.834089
  S     4.230985 10.011000 -3.205918
  S     6.424075  8.986568 -1.800236
