16  
    
  C     5.461034  6.594726 -4.482128
  C     6.573558  5.995296 -3.852757
  C     5.523868 10.207813 -4.416214
  C     6.743203  9.758895 -3.730156
  N     7.526397  5.582654 -4.664827
  N     5.655231  6.806328 -5.811491
  N     4.856864  6.553888 -2.007570
  N     7.840768  9.572777 -4.455664
  N     5.681998 10.290663 -5.700627
  N     4.901522  9.891715 -1.885273
  S     7.141222  6.104718 -6.139260
  S     4.130668  6.868247 -3.475337
  S     6.352895  5.887612 -2.109968
  S     7.319851  9.952333 -6.013947
  S     4.137423 10.266108 -3.296649
  S     6.496284  9.502549 -2.023560
