16  
    
  C     5.134064  6.262339 -4.336072
  C     6.210740  5.489730 -3.630932
  C     5.720947  9.594830 -4.196791
  C     6.944920  9.133109 -3.613641
  N     7.312232  5.241306 -4.350487
  N     5.434215  6.425252 -5.624170
  N     4.452546  6.250624 -1.811512
  N     7.951101  8.931331 -4.437930
  N     5.838954  9.731907 -5.502581
  N     5.277527  9.423286 -1.677603
  S     6.949270  5.825514 -5.888282
  S     3.795895  6.784804 -3.293525
  S     5.878196  5.379765 -1.898466
  S     7.372570  9.351955 -5.976811
  S     4.445646 10.000400 -3.018480
  S     6.800959  8.820649 -1.898263
