16  
    
  C     5.545425  5.932447 -4.696269
  C     6.836240  5.721040 -4.031650
  C     5.491138  9.732219 -4.332541
  C     6.688608  9.200598 -3.705465
  N     7.889029  5.599095 -4.831846
  N     5.643547  5.964052 -5.987254
  N     4.895894  5.559664 -2.232913
  N     7.800101  9.135332 -4.459194
  N     5.690299 10.149701 -5.598697
  N     4.860946  9.178185 -1.902563
  S     7.272007  5.888373 -6.414589
  S     4.133467  5.878649 -3.711719
  S     6.630501  5.373497 -2.276109
  S     7.287586  9.826628 -5.959931
  S     4.103258  9.844352 -3.215637
  S     6.480999  8.853817 -2.053913
