16  
    
  C     5.653963  5.854681 -4.420779
  C     6.887446  5.417095 -3.867247
  C     5.867800  9.596864 -3.889917
  C     7.079112  8.948298 -3.453704
  N     7.884099  5.252367 -4.703183
  N     5.727181  6.001843 -5.721943
  N     5.175991  5.307652 -1.896991
  N     7.987583  8.821574 -4.417957
  N     5.798295  9.875612 -5.186569
  N     5.399037  8.809528 -1.489831
  S     7.350847  5.680097 -6.190925
  S     4.395887  5.790142 -3.249398
  S     6.790719  5.079167 -2.169504
  S     7.231513  9.284189 -5.826836
  S     4.522883  9.535373 -2.776236
  S     6.976028  8.391503 -1.848049
