16  
    
  C     5.485738  5.928944 -4.469019
  C     6.694721  5.559781 -3.806640
  C     5.649306  9.278070 -4.157443
  C     6.892294  9.031648 -3.517222
  N     7.719654  5.302526 -4.603903
  N     5.597987  5.853680 -5.785299
  N     4.901905  5.794314 -1.967000
  N     7.926880  8.949446 -4.370077
  N     5.681590  9.401728 -5.503571
  N     5.118895  9.523363 -1.638755
  S     7.183387  5.504159 -6.203467
  S     4.177453  6.318210 -3.388818
  S     6.490320  5.370826 -2.096439
  S     7.355833  9.363098 -5.861636
  S     4.321425  9.654036 -3.099298
  S     6.665756  8.872711 -1.817006
