16  
    
  C     5.581947  6.015972 -4.346105
  C     6.777763  5.577960 -3.803321
  C     5.486088  9.612754 -4.253462
  C     6.678350  9.093699 -3.731235
  N     7.730955  5.429144 -4.676073
  N     5.554880  6.248870 -5.632098
  N     5.009150  5.643693 -1.915237
  N     7.733695  8.932720 -4.541662
  N     5.597155  9.909020 -5.576734
  N     5.085505  9.462000 -1.695592
  S     7.131636  5.863662 -6.170383
  S     4.286528  6.331084 -3.229393
  S     6.662240  5.403591 -2.085703
  S     7.153747  9.494945 -5.972231
  S     4.207186  9.691769 -3.128545
  S     6.650780  8.957166 -2.013750
