16  
    
  C     5.805971  5.579528 -4.319269
  C     6.923683  5.080695 -3.676716
  C     5.589626  9.544159 -4.310212
  C     6.716149  8.930897 -3.683104
  N     8.039778  5.028198 -4.396229
  N     6.064463  5.980126 -5.554278
  N     5.122519  5.293818 -1.928163
  N     7.778498  8.891526 -4.484205
  N     5.735836  9.821140 -5.603401
  N     4.817325  8.613293 -1.987585
  S     7.629183  5.584496 -5.951755
  S     4.420560  5.814309 -3.318021
  S     6.625938  4.638781 -2.021812
  S     7.334365  9.383572 -5.928956
  S     4.199208  9.566886 -3.236816
  S     6.436707  8.281091 -2.137698
