16  
    
  C     5.337958  6.045323 -4.365748
  C     6.593856  5.494426 -3.806899
  C     5.522212  9.162850 -4.436921
  C     6.762843  8.883251 -3.766792
  N     7.558206  5.407665 -4.699662
  N     5.344727  6.251385 -5.667415
  N     4.936737  5.788617 -1.912519
  N     7.809870  8.877177 -4.588775
  N     5.654924  9.527890 -5.692907
  N     4.887464  9.131470 -1.971170
  S     6.951034  5.882586 -6.113937
  S     4.073142  6.272558 -3.226015
  S     6.565589  5.358125 -2.057940
  S     7.211895  9.180441 -6.124215
  S     4.119916  9.181981 -3.410533
  S     6.536140  8.796008 -2.014300
