16  
    
  C     5.352225  5.912441 -4.305242
  C     6.644496  5.423159 -3.692446
  C     5.398838  9.413548 -4.411582
  C     6.659163  9.061893 -3.792157
  N     7.669943  5.361480 -4.543761
  N     5.488319  6.210428 -5.598932
  N     4.902649  5.575107 -1.802149
  N     7.644094  8.826043 -4.679845
  N     5.475667  9.600315 -5.731036
  N     5.001949  9.699638 -1.869148
  S     7.020771  5.833338 -5.991677
  S     4.044206  6.060090 -3.125486
  S     6.520413  5.377611 -1.959044
  S     7.071458  9.245147 -6.181508
  S     4.105578  9.653756 -3.265103
  S     6.614212  9.236560 -2.034512
