16  
    
  C     5.387670  5.961903 -4.347648
  C     6.678194  5.573025 -3.785829
  C     5.554103  9.403626 -4.484102
  C     6.819003  9.127744 -3.794193
  N     7.627510  5.504398 -4.720679
  N     5.443994  6.149188 -5.664404
  N     4.966263  5.917482 -1.816205
  N     7.841396  8.963984 -4.640196
  N     5.630421  9.475424 -5.809762
  N     4.883669  9.084213 -2.024521
  S     7.003725  5.860306 -6.184867
  S     4.189030  6.258913 -3.189735
  S     6.542680  5.424263 -2.076985
  S     7.251544  9.270826 -6.148142
  S     4.195037  9.248328 -3.455360
  S     6.578495  8.794167 -2.094715
