16  
    
  C     5.573612  5.786089 -4.445622
  C     6.828571  5.465690 -3.845652
  C     5.175777  9.775435 -4.381683
  C     6.314129  9.207658 -3.681641
  N     7.802641  5.206020 -4.681176
  N     5.689774  5.935202 -5.738391
  N     5.144280  5.740233 -1.971196
  N     7.256613  8.762904 -4.505961
  N     5.273421  9.694149 -5.729556
  N     4.623007  9.766314 -1.890667
  S     7.260595  5.556586 -6.232081
  S     4.260074  5.821644 -3.355660
  S     6.732749  5.329807 -2.129438
  S     6.773269  9.020851 -6.015337
  S     3.755994 10.055929 -3.353816
  S     6.162261  9.156261 -2.013430
