16  
    
  C     5.597651  5.722980 -4.395653
  C     6.946787  5.416409 -3.783480
  C     5.731167  9.709472 -4.256370
  C     7.031402  9.277795 -3.756144
  N     7.929418  5.320721 -4.703854
  N     5.608879  5.860132 -5.741907
  N     5.289161  5.623100 -1.833459
  N     8.016001  9.289669 -4.634335
  N     5.714204  9.927301 -5.576334
  N     5.279432  9.013396 -1.793697
  S     7.182871  5.593194 -6.159395
  S     4.382711  5.948095 -3.191616
  S     6.847186  5.174919 -2.021710
  S     7.198051  9.548850 -6.165450
  S     4.413969  9.539479 -3.148406
  S     6.906368  8.727347 -2.051891
