16  
    
  C     5.549730  5.614398 -4.301477
  C     6.664244  5.031450 -3.655728
  C     5.510944  9.273085 -4.304407
  C     6.726729  8.755329 -3.694779
  N     7.755188  4.943636 -4.386646
  N     5.734245  5.867410 -5.609403
  N     4.978850  5.617679 -1.776008
  N     7.773223  8.654723 -4.505706
  N     5.652373  9.392898 -5.623195
  N     4.993837  9.128241 -1.792942
  S     7.265786  5.337578 -5.931171
  S     4.241728  6.039838 -3.207005
  S     6.545458  5.006436 -1.953648
  S     7.264710  9.144791 -5.959831
  S     4.200640  9.560418 -3.187104
  S     6.561950  8.574887 -1.958396
