16  
    
  C     5.550942  5.303791 -4.158596
  C     6.813015  5.125563 -3.500800
  C     5.703479  9.153406 -4.068721
  C     6.944108  8.795258 -3.416486
  N     7.858993  4.993688 -4.332491
  N     5.614204  5.418640 -5.480459
  N     5.026243  5.239708 -1.667902
  N     7.960702  8.652628 -4.280746
  N     5.812563  9.346608 -5.368905
  N     5.310658  9.224501 -1.540263
  S     7.148610  5.192689 -5.852483
  S     4.246765  5.533781 -3.086799
  S     6.696353  5.049586 -1.761852
  S     7.382047  9.055299 -5.755626
  S     4.431378  9.587797 -2.920358
  S     6.859950  8.704251 -1.698456
