16  
    
  C     5.211724  6.161199 -4.403280
  C     6.490322  5.714066 -3.761276
  C     5.521248  9.684049 -4.435628
  C     6.631438  9.200835 -3.706651
  N     7.504878  5.546399 -4.587323
  N     5.412633  6.359619 -5.699234
  N     4.807318  6.002317 -1.853710
  N     7.685383  8.984481 -4.493407
  N     5.676328  9.913614 -5.761509
  N     4.829337  9.596780 -1.956293
  S     6.928249  5.897934 -6.091452
  S     3.948446  6.438575 -3.255520
  S     6.434827  5.658226 -1.993824
  S     7.250909  9.516596 -6.045284
  S     4.110786  9.803198 -3.470018
  S     6.449604  9.102182 -2.032222
