16  
    
  C     5.504113  5.917035 -4.432942
  C     6.570551  5.292321 -3.757104
  C     5.413923  9.364431 -4.189516
  C     6.671784  8.910047 -3.624295
  N     7.643996  5.128123 -4.483533
  N     5.674486  6.104137 -5.706585
  N     4.806720  5.710585 -2.023415
  N     7.662765  8.778001 -4.487601
  N     5.452042  9.665019 -5.484335
  N     5.095972  9.132394 -1.603012
  S     7.189603  5.622525 -6.047453
  S     4.136657  6.172215 -3.458950
  S     6.328944  5.097439 -2.089192
  S     6.982569  9.228162 -5.976246
  S     4.226266  9.625182 -2.973125
  S     6.638944  8.795537 -1.833695
