16  
    
  C     5.688810  5.665460 -4.150394
  C     6.860558  5.232182 -3.408074
  C     5.496907  9.486086 -4.084022
  C     6.672406  8.957861 -3.436348
  N     7.925174  5.055730 -4.186914
  N     5.855262  5.874091 -5.458681
  N     4.885078  5.548205 -1.692021
  N     7.686872  8.586058 -4.192471
  N     5.704047  9.664232 -5.390707
  N     4.811734  8.959105 -1.631389
  S     7.393448  5.289146 -5.741312
  S     4.276336  6.016017 -3.181685
  S     6.457339  5.057668 -1.731071
  S     7.237408  9.095817 -5.763512
  S     4.097047  9.598162 -3.050935
  S     6.437898  8.569919 -1.762459
