16  
    
  C     5.206052  6.181508 -4.294035
  C     6.350524  5.544193 -3.676516
  C     5.387988  9.755896 -4.319619
  C     6.674657  9.268377 -3.772878
  N     7.346621  5.377304 -4.526822
  N     5.316988  6.298848 -5.620712
  N     4.671344  5.968086 -1.817063
  N     7.714133  9.060649 -4.587274
  N     5.546113  9.978540 -5.613660
  N     5.077159  9.450499 -1.732647
  S     6.903801  5.833438 -6.039645
  S     3.945577  6.497642 -3.188407
  S     6.116891  5.307582 -2.009739
  S     7.069899  9.440469 -6.071922
  S     4.163448 10.045198 -3.096475
  S     6.603248  9.035774 -2.033958
