16  
    
  C     5.634075  5.774649 -4.344165
  C     6.845754  5.225142 -3.802674
  C     5.256711  9.839896 -4.683975
  C     6.400609  9.263313 -3.965541
  N     7.837362  5.063428 -4.692479
  N     5.665401  5.918118 -5.717696
  N     5.198648  5.488217 -1.811909
  N     7.353388  8.896832 -4.806429
  N     5.376235  9.930002 -6.012813
  N     4.712057  9.753725 -2.154827
  S     7.231444  5.487219 -6.103021
  S     4.333329  6.030570 -3.179617
  S     6.767745  4.998233 -2.090028
  S     6.923593  9.322023 -6.344922
  S     4.030822 10.375078 -3.474977
  S     6.267105  9.116610 -2.281367
