16  
    
  C     5.520442  5.340421 -4.168479
  C     6.815050  5.077935 -3.542540
  C     5.670885  9.227730 -4.109355
  C     6.868814  8.682884 -3.538994
  N     7.802551  4.967372 -4.415351
  N     5.556991  5.315628 -5.483949
  N     5.024451  5.265408 -1.704853
  N     7.951837  8.564081 -4.313218
  N     5.830370  9.451239 -5.412554
  N     5.247532  9.277523 -1.547879
  S     7.196630  5.260974 -5.925164
  S     4.120749  5.490485 -3.140799
  S     6.659440  4.992175 -1.836024
  S     7.396074  9.015737 -5.847916
  S     4.388081  9.517170 -2.928659
  S     6.781192  8.614176 -1.829659
