16  
    
  C     5.067786  6.260791 -4.575136
  C     6.319024  5.955635 -3.888003
  C     5.422084  9.613089 -4.074988
  C     6.685838  9.296912 -3.513052
  N     7.369288  5.914338 -4.695006
  N     5.198093  6.520278 -5.847851
  N     4.593881  6.007671 -2.039013
  N     7.658236  9.242907 -4.443897
  N     5.420297  9.770307 -5.434691
  N     4.967095  9.129433 -1.607957
  S     6.764069  6.308831 -6.272422
  S     3.756883  6.455784 -3.407145
  S     6.187811  5.585541 -2.204236
  S     7.001932  9.669897 -5.909049
  S     4.060381  9.486403 -2.962247
  S     6.626258  8.981529 -1.830418
