16  
    
  C     5.661195  5.959565 -4.382657
  C     6.837156  5.472884 -3.687599
  C     5.929425  9.484377 -4.293711
  C     7.099147  8.993710 -3.608632
  N     7.914995  5.472789 -4.458637
  N     5.899905  6.264105 -5.674614
  N     5.077660  5.812697 -1.862638
  N     8.091535  8.673984 -4.448284
  N     6.059798  9.629152 -5.591264
  N     5.234053  9.321199 -1.781195
  S     7.518397  5.942070 -6.002636
  S     4.348678  6.188045 -3.303769
  S     6.638172  5.163118 -1.981096
  S     7.479349  9.008948 -5.999544
  S     4.520306  9.691457 -3.241646
  S     6.777124  8.769164 -1.902377
