16  
    
  C     5.555800  5.696124 -4.346824
  C     6.851077  5.315965 -3.691643
  C     5.526048  9.471534 -4.363877
  C     6.768062  9.131427 -3.711477
  N     7.896301  5.420909 -4.478876
  N     5.657310  6.053677 -5.604684
  N     5.082241  5.303574 -1.858727
  N     7.823897  9.031014 -4.556043
  N     5.570677  9.591024 -5.696644
  N     5.136388  9.460600 -1.788434
  S     7.259439  5.758061 -6.032770
  S     4.279229  5.772548 -3.238561
  S     6.678234  4.991885 -1.981992
  S     7.143877  9.327136 -6.109200
  S     4.309332  9.738192 -3.194850
  S     6.750922  8.977195 -1.961842
