16  
    
  C     5.135814  6.213196 -4.312388
  C     6.210730  5.604379 -3.593893
  C     5.736242  9.643267 -4.192081
  C     6.962741  9.135543 -3.618723
  N     7.260905  5.420966 -4.348836
  N     5.363068  6.465486 -5.582719
  N     4.456794  6.194451 -1.871538
  N     7.996606  8.889975 -4.451888
  N     5.815092  9.692751 -5.554670
  N     5.322963  9.504352 -1.629526
  S     6.935242  5.895122 -5.880370
  S     3.833938  6.768230 -3.304412
  S     5.899238  5.347443 -1.939815
  S     7.410688  9.289390 -5.916801
  S     4.546515  9.988904 -2.986437
  S     6.869092  8.838259 -1.953819
