16  
    
  C     5.630079  5.711639 -4.440607
  C     6.968564  5.387337 -3.847646
  C     5.200588  9.608314 -4.367963
  C     6.435418  9.128190 -3.746538
  N     7.974273  5.246901 -4.745310
  N     5.648224  5.737484 -5.780635
  N     5.268308  5.691389 -1.875791
  N     7.385988  8.846855 -4.616388
  N     5.266178  9.767415 -5.680916
  N     4.759519  9.535980 -1.873511
  S     7.194666  5.481493 -6.207986
  S     4.360799  5.878717 -3.273307
  S     6.818565  5.188618 -2.071210
  S     6.794000  9.320565 -6.126725
  S     3.955379 10.164861 -3.208477
  S     6.394459  9.129603 -2.066462
