16  
    
  C     5.357799  5.632212 -4.451249
  C     6.493806  5.047854 -3.713721
  C     5.542601  9.155539 -4.266135
  C     6.753971  8.775773 -3.618952
  N     7.618732  4.863485 -4.425389
  N     5.655874  5.789595 -5.737805
  N     4.625509  5.553520 -1.904348
  N     7.735518  8.549021 -4.505819
  N     5.536809  9.112237 -5.609475
  N     4.931994  8.909597 -1.729309
  S     7.158871  5.236009 -6.027721
  S     3.921040  5.838197 -3.421013
  S     6.195736  4.974794 -1.921126
  S     7.085208  8.767337 -6.026292
  S     4.206723  9.363870 -3.158569
  S     6.572561  8.709496 -1.868498
