16  
    
  C     5.264473  6.295143 -4.379048
  C     6.375886  5.684440 -3.737674
  C     5.623210  9.525259 -4.283166
  C     6.802732  9.062664 -3.653358
  N     7.381719  5.244872 -4.490925
  N     5.435100  6.521484 -5.657483
  N     4.654037  6.245804 -1.846587
  N     7.867727  9.002122 -4.508283
  N     5.687235  9.694548 -5.629358
  N     5.020189  9.475917 -1.720826
  S     6.969713  5.911224 -5.999320
  S     3.974665  6.764323 -3.274613
  S     6.134154  5.549616 -2.009299
  S     7.275459  9.319302 -6.012468
  S     4.272642  9.834402 -3.152993
  S     6.602202  8.919255 -1.964515
