16  
    
  C     5.446209  5.826974 -4.114460
  C     6.495637  4.957936 -3.611881
  C     5.686765  9.402355 -4.485077
  C     6.885881  8.898300 -3.849753
  N     7.400847  4.488999 -4.480677
  N     5.643156  6.042353 -5.413330
  N     5.035868  5.625869 -1.613644
  N     7.899970  8.710451 -4.682689
  N     5.779193  9.633950 -5.769539
  N     5.012001  9.224960 -2.052106
  S     6.987400  5.207079 -5.898161
  S     4.329289  6.402018 -2.925172
  S     6.325925  4.617126 -1.894989
  S     7.355542  9.166548 -6.184385
  S     4.419317  9.928585 -3.443042
  S     6.559943  8.632493 -2.176663
