16  
    
  C     5.475278  5.795790 -4.251971
  C     6.581013  5.117650 -3.664346
  C     5.541869  9.763360 -4.611771
  C     6.684967  9.216554 -3.926349
  N     7.604788  4.882455 -4.458509
  N     5.626965  5.936614 -5.553686
  N     4.786635  5.413463 -1.875490
  N     7.768228  9.171864 -4.668815
  N     5.763337 10.130730 -5.883176
  N     4.726115  9.189896 -2.207146
  S     7.184093  5.453890 -5.997538
  S     4.201002  6.166811 -3.224226
  S     6.306159  4.822547 -1.974669
  S     7.397974  9.767088 -6.154422
  S     4.117986 10.040283 -3.514521
  S     6.317077  8.662378 -2.371205
