16  
    
  C     5.533138  5.663247 -4.505292
  C     6.829897  5.444970 -3.861188
  C     5.423532  9.594646 -4.237794
  C     6.657031  9.149791 -3.628401
  N     7.858201  5.523634 -4.661852
  N     5.604649  5.914670 -5.799303
  N     5.126996  5.412372 -1.986989
  N     7.706303  9.007868 -4.466751
  N     5.506359  9.913519 -5.534101
  N     4.975895  9.312206 -1.711509
  S     7.246547  5.877752 -6.203237
  S     4.184378  5.494530 -3.345718
  S     6.774618  5.088769 -2.120510
  S     7.102579  9.543733 -5.977655
  S     4.101853  9.642872 -3.080047
  S     6.634153  9.045225 -1.927459
