16  
    
  C     5.522171  6.206316 -4.433735
  C     6.738514  5.534871 -3.991397
  C     5.506919  9.825847 -4.297910
  C     6.617143  9.250605 -3.647656
  N     7.644219  5.403199 -4.929655
  N     5.480582  6.464764 -5.743681
  N     5.173243  5.660911 -1.842827
  N     7.564316  8.935458 -4.559143
  N     5.625855 10.101319 -5.608277
  N     4.914408  9.751415 -1.815408
  S     6.995238  5.962719 -6.355348
  S     4.286113  6.383405 -3.148360
  S     6.754709  5.291394 -2.208657
  S     7.123970  9.542303 -6.062366
  S     4.198040 10.199978 -3.270513
  S     6.411520  9.010054 -1.896457
