16  
    
  C     5.183858  6.250575 -4.588724
  C     6.420206  5.848568 -3.960612
  C     5.508469  9.577889 -4.052138
  C     6.797126  9.236562 -3.461534
  N     7.445300  5.739598 -4.825248
  N     5.250021  6.461378 -5.944013
  N     4.712020  5.814983 -2.045372
  N     7.811661  9.343796 -4.316355
  N     5.563618  9.838544 -5.380697
  N     5.033262  9.003538 -1.575997
  S     6.888555  6.184590 -6.317110
  S     3.917366  6.478666 -3.360231
  S     6.323454  5.547842 -2.269104
  S     7.166914  9.819215 -5.773351
  S     4.130084  9.396255 -2.869312
  S     6.691860  8.660190 -1.850046
