16  
    
  C     5.486697  6.058334 -4.396398
  C     6.760509  5.645368 -3.746484
  C     5.599507  9.383434 -4.439155
  C     6.864942  9.188649 -3.744645
  N     7.801223  5.452470 -4.578934
  N     5.584530  6.124432 -5.719683
  N     4.979037  5.742591 -1.932387
  N     7.866931  9.110465 -4.603780
  N     5.686870  9.512198 -5.786025
  N     5.072067  9.359428 -1.950317
  S     7.195791  5.742105 -6.063624
  S     4.172310  6.162116 -3.342476
  S     6.587393  5.636923 -2.061506
  S     7.307083  9.379506 -6.152907
  S     4.173482  9.453961 -3.381870
  S     6.641132  8.970167 -2.073301
