16  
    
  C     5.114955  6.329949 -4.501419
  C     6.355696  5.876376 -3.932046
  C     5.373942  9.561321 -4.111578
  C     6.682372  9.305460 -3.495924
  N     7.413723  5.868336 -4.807283
  N     5.187192  6.488800 -5.861724
  N     4.533965  5.964843 -1.998833
  N     7.680173  9.246864 -4.368409
  N     5.370641  9.728241 -5.410287
  N     4.919529  9.107975 -1.652947
  S     6.813613  6.254266 -6.231234
  S     3.771424  6.493121 -3.402394
  S     6.161282  5.524885 -2.177627
  S     6.994711  9.644012 -5.863543
  S     4.119220  9.494282 -3.004625
  S     6.599403  8.963610 -1.717369
