16  
    
  C     5.316892  6.348478 -4.485744
  C     6.461441  5.861717 -3.734571
  C     5.442713 10.060589 -4.175961
  C     6.745846  9.761704 -3.629202
  N     7.598368  5.622673 -4.449212
  N     5.562088  6.490588 -5.763140
  N     4.505416  6.116946 -2.071329
  N     7.758911  9.795185 -4.512541
  N     5.523976 10.234440 -5.509556
  N     4.947766  9.746728 -1.709092
  S     7.091005  6.074148 -6.078572
  S     4.014161  6.780275 -3.470519
  S     6.112845  5.645141 -2.039343
  S     7.116306 10.212974 -5.966466
  S     4.160654  9.970794 -3.129482
  S     6.554478  9.420754 -1.909498
