16  
    
  C     5.530420  5.242232 -4.056443
  C     6.876266  5.245639 -3.613927
  C     5.541522  9.344903 -4.625296
  C     6.664531  8.826258 -3.891878
  N     7.786223  5.358177 -4.563203
  N     5.414319  5.328382 -5.374161
  N     5.374632  5.161330 -1.538334
  N     7.738251  8.636802 -4.658651
  N     5.676825  9.354432 -5.940846
  N     4.712527  9.151553 -2.208960
  S     6.976159  5.341615 -5.993121
  S     4.357641  5.312783 -2.780938
  S     7.002927  5.076821 -1.917975
  S     7.244839  8.950119 -6.257708
  S     4.266511  9.927177 -3.617232
  S     6.345359  8.690857 -2.160158
