16  
    
  C     5.761426  6.089748 -4.385556
  C     6.973932  5.560993 -3.699615
  C     5.829191  9.562692 -4.384212
  C     6.941310  8.937710 -3.678271
  N     8.044011  5.342723 -4.485097
  N     5.968275  6.310300 -5.707190
  N     5.111582  5.829732 -1.918503
  N     7.923078  8.632910 -4.495339
  N     5.951840  9.718996 -5.674387
  N     5.189669  9.334266 -1.869292
  S     7.561146  5.921410 -5.957384
  S     4.346082  6.109314 -3.374537
  S     6.667820  5.250563 -1.990811
  S     7.515343  9.076768 -6.046328
  S     4.495032  9.799376 -3.294565
  S     6.804440  8.855558 -1.934761
