16  
    
  C     5.518399  5.341365 -4.172985
  C     6.809920  5.074014 -3.544932
  C     5.671130  9.234537 -4.115956
  C     6.863920  8.680369 -3.542063
  N     7.799866  4.968831 -4.419390
  N     5.553728  5.316263 -5.488088
  N     5.021675  5.268967 -1.704788
  N     7.949077  8.557208 -4.319318
  N     5.826288  9.459224 -5.415130
  N     5.247824  9.276220 -1.547379
  S     7.199627  5.263066 -5.930689
  S     4.117050  5.487132 -3.140890
  S     6.654561  4.988023 -1.840803
  S     7.397425  9.012603 -5.853060
  S     4.385761  9.512596 -2.933488
  S     6.775994  8.607913 -1.833568
