16  
    
  C     5.130202  5.263295 -4.125707
  C     6.347800  4.774160 -3.442010
  C     5.404591  9.313169 -4.277211
  C     6.623376  8.917470 -3.645755
  N     7.340061  4.703740 -4.318743
  N     5.291264  5.483083 -5.418883
  N     4.532300  5.076681 -1.591453
  N     7.634731  8.773491 -4.515535
  N     5.488256  9.442686 -5.622357
  N     4.864882  9.424676 -1.778192
  S     6.830135  5.014386 -5.845088
  S     3.763345  5.563681 -3.032636
  S     6.205962  4.696211 -1.689290
  S     7.025673  9.180859 -6.013164
  S     4.085696  9.623058 -3.220289
  S     6.488247  9.027497 -1.869294
