16  
    
  C     5.260843  6.246318 -4.513277
  C     6.435368  5.653408 -3.888848
  C     5.431967  9.613842 -4.125288
  C     6.757237  9.367276 -3.480276
  N     7.434119  5.598834 -4.776879
  N     5.364555  6.583412 -5.777683
  N     4.593655  5.996346 -2.073654
  N     7.766209  9.559230 -4.325865
  N     5.417141 10.011446 -5.388515
  N     4.988798  9.073369 -1.617202
  S     6.926348  6.147153 -6.174943
  S     3.844782  6.413008 -3.520795
  S     6.181456  5.505517 -2.166081
  S     7.043747  9.935555 -5.786901
  S     4.183348  9.574327 -2.922947
  S     6.701099  8.928567 -1.822453
