16  
    
  C     5.391340  5.935763 -4.519910
  C     6.485995  5.385686 -3.826772
  C     5.319283  9.388073 -4.383444
  C     6.437343  8.808684 -3.701526
  N     7.541741  5.066923 -4.555265
  N     5.604080  5.953796 -5.813472
  N     4.665401  5.683687 -2.105206
  N     7.461650  8.509322 -4.505344
  N     5.512310  9.723710 -5.678588
  N     4.731001  9.494505 -1.857100
  S     7.149385  5.358962 -6.147175
  S     3.990227  6.167167 -3.538482
  S     6.244672  5.262518 -2.086718
  S     7.059026  9.097630 -6.006203
  S     3.958098  9.767413 -3.306045
  S     6.285101  8.913326 -2.059265
