16  
    
  C     5.521097  6.359311 -4.517924
  C     6.696249  5.867809 -3.848615
  C     5.639883  9.841401 -4.430180
  C     6.859758  9.483814 -3.747875
  N     7.700695  5.505134 -4.670022
  N     5.681836  6.514450 -5.851002
  N     4.881992  6.224149 -1.998347
  N     7.938526  9.170531 -4.496661
  N     5.797453  9.813864 -5.771004
  N     5.094718  9.749442 -1.870288
  S     7.217474  5.888686 -6.150940
  S     4.220037  6.723269 -3.412181
  S     6.479641  5.875887 -2.069635
  S     7.432395  9.530120 -6.052591
  S     4.260239  9.908413 -3.367826
  S     6.673859  9.353859 -2.082176
