16  
    
  C     5.463049  6.065661 -4.409928
  C     6.718322  5.695918 -3.773398
  C     5.479194  9.646284 -4.314243
  C     6.726004  9.225749 -3.712595
  N     7.740127  5.625453 -4.635531
  N     5.472854  6.096296 -5.755373
  N     4.992992  5.739031 -1.885257
  N     7.715201  9.055158 -4.570602
  N     5.572185  9.879559 -5.586411
  N     5.033209  9.543395 -1.736358
  S     7.113356  5.835716 -6.160778
  S     4.190274  6.280425 -3.228020
  S     6.630583  5.484760 -2.060529
  S     7.139492  9.490647 -6.050244
  S     4.142867  9.799061 -3.156209
  S     6.553508  8.898169 -1.896605
