16  
    
  C     5.701924  5.876382 -4.449732
  C     6.913532  5.475027 -3.858375
  C     5.528079  9.455554 -4.288138
  C     6.800453  9.206851 -3.674812
  N     7.860311  5.162331 -4.709573
  N     5.769578  5.948368 -5.766528
  N     5.109575  5.483598 -2.006754
  N     7.812808  9.230466 -4.541610
  N     5.589781  9.716720 -5.619720
  N     5.141265  9.067259 -1.710958
  S     7.331540  5.547303 -6.249883
  S     4.356429  6.026537 -3.366570
  S     6.735902  5.292002 -2.166072
  S     7.244299  9.591353 -6.009299
  S     4.243826  9.333609 -3.119323
  S     6.778441  8.759981 -1.960595
