16  
    
  C     5.730096  5.840429 -4.336579
  C     6.889162  5.187813 -3.865072
  C     5.763246  9.231177 -4.050311
  C     7.039606  8.819015 -3.546756
  N     7.860385  5.188673 -4.788885
  N     5.761325  6.342883 -5.575371
  N     5.349227  5.251877 -1.835964
  N     8.020232  8.813449 -4.483152
  N     5.769248  9.436340 -5.362659
  N     5.365149  8.802162 -1.524371
  S     7.252332  5.953477 -6.078124
  S     4.505786  5.888811 -3.114596
  S     6.908584  4.785398 -2.187293
  S     7.233774  9.172963 -5.936703
  S     4.522153  9.265528 -2.875342
  S     6.927940  8.293276 -1.809217
