16  
    
  C     5.546528  6.345418 -4.426736
  C     6.658604  5.833982 -3.739141
  C     5.631589  9.762194 -4.450771
  C     6.862162  9.414779 -3.738523
  N     7.702902  5.508472 -4.523621
  N     5.708048  6.456748 -5.745661
  N     4.876863  6.252814 -1.985301
  N     7.889671  9.240035 -4.570404
  N     5.788707  9.891061 -5.763292
  N     5.015695  9.670474 -1.994343
  S     7.229514  5.979403 -6.141011
  S     4.174268  6.710265 -3.456179
  S     6.530557  5.843824 -2.027244
  S     7.375305  9.544277 -6.106284
  S     4.268825  9.881887 -3.384460
  S     6.687114  9.336271 -1.942161
