16  
    
  C     5.551593  6.016477 -4.440297
  C     6.759705  5.662098 -3.656811
  C     5.589236  9.530773 -4.377743
  C     6.775647  9.178011 -3.601925
  N     7.866027  5.497041 -4.367162
  N     5.753320  6.010217 -5.755219
  N     4.807881  5.995191 -2.012599
  N     7.870750  8.981192 -4.334436
  N     5.822291  9.670888 -5.677999
  N     4.920979  9.493148 -1.869958
  S     7.331280  5.746126 -5.954349
  S     4.162772  6.281029 -3.461424
  S     6.444427  5.643203 -1.995262
  S     7.422375  9.247443 -5.922198
  S     4.128420  9.668327 -3.272343
  S     6.585147  9.078642 -1.947869
