16  
    
  C     5.227568  6.136616 -4.340561
  C     6.401746  5.618738 -3.737905
  C     5.478259  9.771948 -4.322442
  C     6.670015  9.279498 -3.746767
  N     7.411949  5.334777 -4.559378
  N     5.314572  6.314913 -5.641809
  N     4.671406  5.982740 -1.802878
  N     7.674082  9.151523 -4.596303
  N     5.511236  9.961992 -5.659185
  N     4.989768  9.395987 -1.816538
  S     6.937859  5.804415 -6.064405
  S     3.931356  6.481341 -3.176782
  S     6.158436  5.276113 -2.041206
  S     7.060970  9.458159 -6.071906
  S     4.181860 10.037483 -3.098932
  S     6.616329  9.052101 -2.114782
