16  
    
  C     5.318230  5.988458 -4.417529
  C     6.566947  5.502016 -3.731276
  C     5.490062  9.190525 -4.232534
  C     6.737940  8.852030 -3.563761
  N     7.571347  5.253372 -4.572862
  N     5.459932  6.253523 -5.690987
  N     4.719800  5.536883 -1.989592
  N     7.714134  8.904600 -4.449300
  N     5.481906  9.360430 -5.545822
  N     4.936991  9.279394 -1.680940
  S     6.979193  5.800098 -6.077577
  S     4.010358  6.220890 -3.362923
  S     6.389041  5.210160 -2.046211
  S     7.012235  9.012326 -6.013641
  S     4.150241  9.320238 -3.184919
  S     6.498099  8.739992 -1.839319
