16  
    
  C     5.494123  5.619980 -4.359791
  C     6.626707  5.082508 -3.696134
  C     5.513051  9.709669 -4.599843
  C     6.669518  9.119998 -3.975972
  N     7.718336  4.872261 -4.448569
  N     5.675548  5.908365 -5.663208
  N     4.792517  5.450548 -1.868728
  N     7.756694  9.173512 -4.726142
  N     5.666752 10.079280 -5.878369
  N     4.803958  9.308805 -2.186959
  S     7.209456  5.437882 -5.937062
  S     4.154739  6.083435 -3.298498
  S     6.331668  4.761620 -1.973158
  S     7.265543  9.803520 -6.226592
  S     4.183787 10.011269 -3.552857
  S     6.347876  8.740515 -2.272623
