16  
    
  C     5.434530  5.605672 -4.257120
  C     6.632228  5.142490 -3.581480
  C     5.518708  9.254711 -4.170831
  C     6.746948  8.921293 -3.492368
  N     7.702543  4.948443 -4.365933
  N     5.629514  5.850162 -5.535893
  N     4.873852  5.454695 -1.758692
  N     7.804555  8.808461 -4.279770
  N     5.645352  9.531095 -5.467571
  N     4.925621  9.150757 -1.692701
  S     7.163523  5.374895 -5.938359
  S     4.231170  6.082585 -3.132359
  S     6.440905  4.819167 -1.893639
  S     7.241381  9.186073 -5.860629
  S     4.150518  9.423660 -3.096935
  S     6.520701  8.622491 -1.794948
