16  
    
  C     5.659938  5.818744 -4.138698
  C     6.872798  5.249927 -3.608877
  C     5.728537  9.199818 -4.023491
  C     6.985466  8.857675 -3.398243
  N     7.803912  5.093110 -4.496816
  N     5.712271  6.186915 -5.412303
  N     5.236287  5.214278 -1.677806
  N     8.005121  8.738021 -4.206028
  N     5.821058  9.473359 -5.343825
  N     5.349594  8.911231 -1.512886
  S     7.215895  5.512887 -5.946054
  S     4.455535  5.996929 -2.937110
  S     6.831017  4.830963 -1.941035
  S     7.458822  9.224468 -5.681145
  S     4.475453  9.249273 -2.855614
  S     6.969813  8.576875 -1.680100
