16  
    
  C     5.499780  6.171250 -4.455878
  C     6.740535  5.596184 -3.964066
  C     5.414023  9.996707 -4.419211
  C     6.607158  9.433929 -3.780486
  N     7.700039  5.464320 -4.869705
  N     5.436622  6.320090 -5.790343
  N     5.275593  5.847450 -1.906528
  N     7.613020  9.083275 -4.545011
  N     5.669208 10.114588 -5.681507
  N     4.775097  9.430241 -2.006552
  S     6.949683  5.813217 -6.280695
  S     4.338183  6.352553 -3.208671
  S     6.759885  5.293643 -2.287932
  S     7.188963  9.521134 -6.090052
  S     4.113692 10.254983 -3.283878
  S     6.378958  9.007953 -2.105185
