16  
    
  C     5.313135  6.324605 -4.523047
  C     6.569143  5.984964 -3.887882
  C     5.720667  9.542710 -4.405520
  C     6.973027  9.164051 -3.819654
  N     7.612440  5.703361 -4.701018
  N     5.427937  6.423036 -5.867454
  N     4.789618  6.433235 -1.991132
  N     7.961520  9.144846 -4.688084
  N     5.798744  9.730509 -5.709917
  N     5.291993  9.484000 -1.935905
  S     6.970550  6.027867 -6.312773
  S     4.027048  6.763794 -3.417230
  S     6.413040  5.889297 -2.123345
  S     7.275748  9.323570 -6.221648
  S     4.437260  9.816411 -3.330849
  S     6.910600  9.083326 -1.986723
