16  
    
  C     5.480559  6.055345 -4.231218
  C     6.703016  5.456234 -3.681685
  C     5.413478  9.514290 -4.329364
  C     6.694613  9.190970 -3.785187
  N     7.760172  5.434449 -4.504159
  N     5.647476  6.396947 -5.513172
  N     4.938117  5.601384 -1.769432
  N     7.680436  9.070543 -4.694587
  N     5.411148  9.657967 -5.652508
  N     4.926309  9.170720 -1.829896
  S     7.166948  5.992755 -5.947614
  S     4.146386  6.077629 -3.119637
  S     6.507667  5.066548 -1.986375
  S     6.972503  9.455057 -6.161660
  S     4.031703  9.673396 -3.230406
  S     6.553184  8.878847 -2.052050
