16  
    
  C     5.583033  6.004673 -4.252809
  C     6.702435  5.368607 -3.637083
  C     5.933395  9.136374 -4.013939
  C     7.208731  8.755085 -3.461300
  N     7.719050  5.137541 -4.462174
  N     5.782542  6.253682 -5.544772
  N     4.891130  5.592793 -1.841838
  N     8.209326  8.799755 -4.310609
  N     6.005792  9.330045 -5.316052
  N     5.463142  9.037971 -1.532792
  S     7.208351  5.513244 -5.994171
  S     4.248218  6.231449 -3.191445
  S     6.498175  5.190425 -1.957617
  S     7.559799  9.194850 -5.767797
  S     4.555822  9.193131 -2.922579
  S     7.010764  8.473021 -1.721839
