16  
    
  C     5.828518  5.797616 -4.535808
  C     7.042783  5.369643 -3.811491
  C     5.470335  9.573591 -4.318940
  C     6.737289  9.193402 -3.714361
  N     8.115167  5.132416 -4.579354
  N     5.942672  5.791182 -5.863092
  N     5.213544  6.008841 -2.004462
  N     7.750872  9.218127 -4.559115
  N     5.507239  9.876075 -5.657423
  N     5.118891  8.998969 -1.798299
  S     7.545860  5.459992 -6.123594
  S     4.480789  6.166962 -3.461835
  S     6.740543  5.284190 -2.051262
  S     7.179047  9.638698 -6.084820
  S     4.207458  9.415605 -3.138068
  S     6.748576  8.889313 -1.983183
