16  
    
  C     5.335808  5.926938 -4.375012
  C     6.509635  5.453491 -3.642146
  C     5.691742  9.661699 -4.159998
  C     6.800999  8.960369 -3.494000
  N     7.513331  5.129780 -4.449791
  N     5.544800  6.141507 -5.673191
  N     4.702233  5.780496 -1.858035
  N     7.872326  8.761703 -4.320625
  N     5.921135  9.923484 -5.461173
  N     4.893383  9.340127 -1.840620
  S     7.120330  5.651372 -5.971383
  S     3.946679  6.229418 -3.306426
  S     6.312656  5.309083 -1.932165
  S     7.401603  9.278732 -5.791632
  S     4.336123 10.044162 -3.194609
  S     6.471329  8.789698 -1.760462
