16  
    
  C     5.489575  5.903782 -4.472140
  C     6.776918  5.616148 -3.809470
  C     5.387306  9.707571 -4.397808
  C     6.586970  9.273332 -3.711059
  N     7.797252  5.490273 -4.640590
  N     5.660482  5.989184 -5.770085
  N     4.953799  5.837074 -2.021720
  N     7.484942  8.822106 -4.599716
  N     5.405122  9.668764 -5.715325
  N     4.829308  9.515756 -1.901416
  S     7.223119  5.687716 -6.208805
  S     4.141009  5.919099 -3.483679
  S     6.556394  5.456428 -2.113111
  S     6.920524  9.046548 -6.103906
  S     4.042367  9.904125 -3.302295
  S     6.471648  9.295842 -1.999892
