16  
    
  C     5.179187  6.265263 -4.481022
  C     6.373359  5.840547 -3.836989
  C     5.411044  9.486720 -4.079446
  C     6.695950  9.202886 -3.458099
  N     7.440874  5.665312 -4.633475
  N     5.324149  6.537360 -5.786002
  N     4.577821  5.899618 -2.079923
  N     7.709149  9.336793 -4.306002
  N     5.480755  9.738544 -5.371550
  N     4.860251  9.175961 -1.576294
  S     6.836814  6.149620 -6.212234
  S     3.862257  6.506790 -3.419978
  S     6.143211  5.503594 -2.202583
  S     7.059798  9.550648 -5.805246
  S     4.075658  9.494617 -2.990091
  S     6.540945  8.949310 -1.771903
