16  
    
  C     5.450546  6.281979 -4.440185
  C     6.617851  5.852824 -3.769086
  C     5.642502  9.672811 -4.431649
  C     6.847132  9.204657 -3.788045
  N     7.647240  5.502446 -4.539277
  N     5.630559  6.507148 -5.751417
  N     4.897050  6.274870 -1.935708
  N     7.846884  8.886015 -4.589183
  N     5.781142  9.681952 -5.762690
  N     5.225096  9.520442 -1.875731
  S     7.133109  5.929661 -6.159643
  S     4.074317  6.606069 -3.396170
  S     6.539668  5.842274 -2.062763
  S     7.336294  9.232658 -6.142699
  S     4.294153  9.848897 -3.271663
  S     6.770386  9.151471 -2.110770
