16  
    
  C     5.616813  5.852687 -4.459620
  C     6.866431  5.443720 -3.875150
  C     5.669618  9.500176 -4.223640
  C     6.929416  9.175878 -3.640035
  N     7.869714  5.420849 -4.711489
  N     5.671672  6.055663 -5.771373
  N     5.136467  5.424964 -1.994620
  N     7.999608  9.223588 -4.487806
  N     5.743974  9.631513 -5.555531
  N     5.191034  9.203714 -1.767077
  S     7.222593  5.685261 -6.218835
  S     4.325812  6.069410 -3.326022
  S     6.760151  5.182112 -2.122164
  S     7.263880  9.473979 -5.979782
  S     4.310172  9.344456 -3.116812
  S     6.752308  8.669342 -2.034024
