16  
    
  C     5.607363  5.652076 -4.379494
  C     6.807409  5.219127 -3.755350
  C     5.478247  9.898193 -4.387388
  C     6.688984  9.311577 -3.852864
  N     7.835900  5.022402 -4.566046
  N     5.733895  5.802500 -5.683029
  N     5.030354  5.408285 -1.889579
  N     7.557887  9.067876 -4.825824
  N     5.376546 10.020221 -5.702016
  N     4.949873  9.593578 -1.930458
  S     7.320270  5.419673 -6.141139
  S     4.301794  5.874791 -3.319351
  S     6.677362  5.080165 -2.032159
  S     6.876101  9.477385 -6.267556
  S     4.133049 10.101303 -3.293874
  S     6.522379  9.021775 -2.138315
