16  
    
  C     5.194424  5.558039 -4.148175
  C     6.374607  4.841645 -3.603175
  C     5.521159  9.525365 -4.396904
  C     6.692187  9.013345 -3.762663
  N     7.346498  4.513140 -4.447740
  N     5.346675  5.739794 -5.442225
  N     4.687459  5.305353 -1.640878
  N     7.747700  8.727719 -4.524762
  N     5.703246  9.642243 -5.742474
  N     4.939654  9.244140 -1.903999
  S     6.779860  5.007697 -5.949740
  S     3.960970  5.936543 -3.025534
  S     6.257483  4.653396 -1.867883
  S     7.183634  9.102280 -6.064451
  S     4.171374  9.689751 -3.284101
  S     6.577798  8.937184 -2.079261
