16  
    
  C     5.722913  5.354102 -4.278861
  C     6.915611  4.922183 -3.638963
  C     5.625812  9.441595 -4.517667
  C     6.731167  8.857257 -3.753117
  N     7.916836  4.678493 -4.491304
  N     5.764381  5.430694 -5.595715
  N     5.167990  5.340331 -1.767870
  N     7.846169  8.750237 -4.452864
  N     5.913460  9.713494 -5.801076
  N     4.832904  9.102101 -2.091516
  S     7.309954  5.101590 -6.024719
  S     4.404029  5.468204 -3.198614
  S     6.837919  4.966242 -1.863712
  S     7.488516  9.234290 -6.002649
  S     4.202971  9.693641 -3.494006
  S     6.460715  8.724698 -2.041478
