16  
    
  C     5.470397  5.749578 -4.402377
  C     6.719065  5.263452 -3.841581
  C     5.481251  9.707308 -4.604212
  C     6.674646  9.386830 -3.899578
  N     7.767939  5.146676 -4.655752
  N     5.548136  5.931239 -5.701792
  N     5.080303  5.681701 -1.898099
  N     7.663832  9.086208 -4.723109
  N     5.553697  9.720265 -5.968776
  N     4.800174  9.348605 -2.096152
  S     7.082885  5.497159 -6.172049
  S     4.179059  6.064785 -3.242660
  S     6.695122  5.306222 -2.053709
  S     7.112146  9.234087 -6.272422
  S     4.048898  9.696551 -3.523887
  S     6.434352  9.114637 -2.250401
