16  
    
  C     5.530486  5.737496 -4.438548
  C     6.825231  5.471963 -3.862759
  C     5.489107  9.545258 -4.389712
  C     6.746511  9.113220 -3.790220
  N     7.868429  5.356723 -4.715638
  N     5.575765  5.939710 -5.767879
  N     5.172376  5.636537 -1.903448
  N     7.761063  9.062539 -4.612203
  N     5.533076  9.706248 -5.743990
  N     5.230801  9.365433 -1.731504
  S     7.154581  5.615183 -6.177729
  S     4.262118  5.960788 -3.229428
  S     6.786370  5.427037 -2.076096
  S     7.133014  9.530653 -6.141484
  S     4.291469  9.725404 -3.081844
  S     6.809851  8.958380 -2.076645
