16  
    
  C     5.466207  5.960950 -4.195217
  C     6.577127  5.326886 -3.619289
  C     5.667815  9.821443 -4.513507
  C     6.695202  9.088558 -3.852936
  N     7.508296  5.056962 -4.509176
  N     5.554392  6.316996 -5.460034
  N     5.023419  5.827488 -1.667405
  N     7.803070  8.845897 -4.565734
  N     6.009097 10.201243 -5.733219
  N     4.725422  9.215044 -2.173795
  S     7.052746  5.707493 -5.994714
  S     4.204155  6.281034 -3.043072
  S     6.491333  5.151969 -1.889740
  S     7.560144  9.646826 -5.996997
  S     4.256928  9.903410 -3.584133
  S     6.324546  8.784642 -2.125682
