16  
    
  C     5.535519  6.209114 -4.489944
  C     6.717713  5.694267 -3.867661
  C     5.367678  9.965088 -4.677673
  C     6.622122  9.678564 -4.093643
  N     7.770024  5.509969 -4.695070
  N     5.642926  6.484399 -5.772303
  N     4.960555  5.802155 -1.978912
  N     7.653248  9.521800 -4.858505
  N     5.474230 10.077585 -5.976940
  N     4.866641  9.589174 -2.233650
  S     7.166770  6.072323 -6.206984
  S     4.221403  6.304420 -3.399308
  S     6.567294  5.398843 -2.146398
  S     7.069178  9.799862 -6.377441
  S     4.015616 10.012595 -3.596054
  S     6.441964  9.500998 -2.349600
