16  
    
  C     5.231481  6.426052 -4.650650
  C     6.482866  6.112168 -4.002146
  C     5.724401  9.679254 -4.442276
  C     6.950958  9.291661 -3.827864
  N     7.492736  5.804060 -4.849185
  N     5.285158  6.458609 -6.014138
  N     4.739694  6.321813 -2.102869
  N     7.975254  9.179844 -4.673384
  N     5.814621  9.821731 -5.765328
  N     5.338265  9.445324 -1.903411
  S     6.851921  6.045149 -6.322960
  S     3.938060  6.761435 -3.532924
  S     6.364156  5.977102 -2.286428
  S     7.388547  9.429129 -6.180533
  S     4.462069  9.789147 -3.205093
  S     6.978691  9.058075 -2.076499
