16  
    
  C     5.528396  6.028825 -4.463150
  C     6.724306  5.523440 -3.873200
  C     5.405239  9.818324 -4.470547
  C     6.612305  9.282871 -3.882766
  N     7.657337  5.320664 -4.769027
  N     5.535942  6.138553 -5.756278
  N     5.074625  5.851076 -1.931018
  N     7.705194  9.133665 -4.679733
  N     5.617524 10.167373 -5.765098
  N     4.803474  9.598707 -2.003815
  S     7.085785  5.695400 -6.254284
  S     4.312062  6.346012 -3.323233
  S     6.678259  5.351936 -2.213112
  S     7.180120  9.706252 -6.153963
  S     4.041401 10.014539 -3.450240
  S     6.366393  9.059771 -2.145352
