16  
    
  C     5.813736  5.687109 -4.417479
  C     6.985406  5.063261 -3.668732
  C     5.576086  9.525422 -4.283967
  C     6.794512  9.003563 -3.691212
  N     8.065597  4.958640 -4.421476
  N     6.071882  6.026738 -5.686299
  N     5.068819  5.324052 -1.910727
  N     7.903483  8.976265 -4.437694
  N     5.762549  9.867299 -5.550339
  N     4.904915  8.746407 -1.931835
  S     7.664333  5.583259 -5.907703
  S     4.400100  5.813429 -3.357154
  S     6.631129  4.644198 -2.013189
  S     7.343146  9.425826 -5.968002
  S     4.203385  9.504825 -3.209467
  S     6.483588  8.249444 -2.146380
