16  
    
  C     5.492394  5.729576 -4.270308
  C     6.560408  5.153114 -3.572249
  C     5.906744  9.211111 -3.962811
  C     7.131281  8.684712 -3.416436
  N     7.568012  4.849922 -4.391999
  N     5.680970  5.930110 -5.579533
  N     4.908691  5.839250 -1.793202
  N     8.117004  8.587630 -4.275855
  N     6.025508  9.514760 -5.262745
  N     5.432526  8.580192 -1.464439
  S     7.234667  5.410086 -5.913676
  S     4.174249  6.129381 -3.228514
  S     6.456137  5.183329 -1.819142
  S     7.527275  9.082097 -5.715941
  S     4.593190  8.971587 -2.831866
  S     7.096591  8.423183 -1.670018
