16  
    
  C     5.634789  5.723472 -4.351841
  C     6.828261  5.103830 -3.871113
  C     5.762659  9.904851 -4.499558
  C     6.913505  9.456600 -3.786355
  N     7.884054  5.023185 -4.695358
  N     5.705466  6.152922 -5.604345
  N     5.284536  5.446533 -1.804379
  N     7.945693  9.300687 -4.631369
  N     5.891094 10.189500 -5.791968
  N     4.988544  8.937987 -2.232891
  S     7.215441  5.647939 -6.155548
  S     4.353644  5.915759 -3.140047
  S     6.842024  4.903677 -2.058432
  S     7.434046  9.753502 -6.164815
  S     4.290021  9.569913 -3.558718
  S     6.615799  8.854343 -2.233916
