16  
    
  C     5.498208  5.833975 -4.483566
  C     6.716154  5.537468 -3.822106
  C     5.642335  9.404841 -4.067548
  C     6.871408  8.988264 -3.467817
  N     7.729543  5.427752 -4.638978
  N     5.614567  6.046085 -5.799423
  N     4.975145  5.669561 -1.941678
  N     7.864221  8.684033 -4.341082
  N     5.707211  9.464781 -5.394930
  N     5.065825  8.773475 -1.667388
  S     7.242602  5.794416 -6.185810
  S     4.161779  5.899836 -3.391563
  S     6.594195  5.504002 -2.077995
  S     7.227147  9.052313 -5.858651
  S     4.276132  9.203168 -3.028920
  S     6.723744  8.708048 -1.755934
