16  
    
  C     5.881782  5.862880 -4.466454
  C     7.092253  5.449229 -3.735342
  C     5.618632  9.651052 -4.274826
  C     6.906276  9.272291 -3.744285
  N     8.195958  5.278789 -4.464304
  N     6.053001  5.920903 -5.773970
  N     5.127933  5.739053 -2.019175
  N     7.926216  9.186846 -4.611459
  N     5.616223  9.721396 -5.620123
  N     5.113863  9.204134 -1.873939
  S     7.636988  5.545673 -6.014053
  S     4.478097  6.227299 -3.460691
  S     6.763407  5.383846 -2.058683
  S     7.236189  9.481198 -6.105469
  S     4.258638  9.618973 -3.233463
  S     6.704119  8.826837 -2.069821
