16  
    
  C     5.517095  6.212447 -4.454061
  C     6.739443  5.656618 -3.857328
  C     5.350520  9.973291 -4.674892
  C     6.617981  9.716014 -4.004046
  N     7.751319  5.538387 -4.666716
  N     5.634377  6.398257 -5.755589
  N     4.930147  5.785298 -1.973917
  N     7.649028  9.540062 -4.865001
  N     5.423056 10.060299 -5.996368
  N     4.815347  9.548063 -2.205019
  S     7.142380  6.054223 -6.239811
  S     4.183557  6.239488 -3.395449
  S     6.563451  5.335083 -2.144975
  S     7.060021  9.830086 -6.405374
  S     4.019745  9.998605 -3.641779
  S     6.426189  9.463169 -2.312426
