16  
    
  C     5.492597  5.269816 -4.196275
  C     6.803013  5.082778 -3.560562
  C     5.387694  9.248738 -4.430107
  C     6.581997  8.692306 -3.842004
  N     7.773474  4.895728 -4.427180
  N     5.522604  5.265609 -5.528905
  N     5.102878  5.271420 -1.634859
  N     7.584284  8.413931 -4.662284
  N     5.516097  9.436470 -5.741753
  N     4.874448  9.098371 -1.955116
  S     7.157446  5.150974 -5.921815
  S     4.191642  5.081311 -2.991307
  S     6.751816  5.089835 -1.866894
  S     6.980722  8.836047 -6.213560
  S     4.101332  9.548164 -3.366938
  S     6.460488  8.676761 -2.088650
