16  
    
  C     5.540114  5.659508 -4.385235
  C     6.643959  5.081135 -3.691185
  C     5.475843  9.780279 -4.575105
  C     6.653343  9.223845 -3.994216
  N     7.717417  4.904490 -4.456880
  N     5.736397  5.908404 -5.682239
  N     4.919175  5.617669 -1.907073
  N     7.681874  9.063345 -4.814703
  N     5.639667 10.103535 -5.861652
  N     4.844615  9.339239 -2.106581
  S     7.320293  5.401497 -5.977608
  S     4.149075  5.893116 -3.310259
  S     6.347727  4.781828 -1.995048
  S     7.139039  9.733334 -6.247039
  S     4.176861  9.997395 -3.466710
  S     6.451867  8.890298 -2.251874
