16  
    
  C     5.470502  5.664993 -4.353016
  C     6.592316  5.024730 -3.663101
  C     5.499574  9.715940 -4.608013
  C     6.660133  9.175171 -3.938908
  N     7.668932  4.929890 -4.413197
  N     5.717319  5.883077 -5.623347
  N     4.848171  5.533109 -1.842405
  N     7.687012  9.117596 -4.807504
  N     5.575145 10.100618 -5.866440
  N     4.822202  9.343789 -2.152046
  S     7.288585  5.414961 -5.989603
  S     4.164670  5.983037 -3.339222
  S     6.346617  4.758512 -1.998191
  S     7.209070  9.781413 -6.225354
  S     4.236364  9.986718 -3.547102
  S     6.388063  8.812728 -2.247858
