16  
    
  C     5.476479  5.910845 -4.511415
  C     6.710996  5.553249 -3.823155
  C     5.630240  9.300491 -4.167554
  C     6.880633  9.013222 -3.512908
  N     7.745628  5.359713 -4.612392
  N     5.577115  5.862796 -5.842504
  N     4.884507  5.786194 -1.956373
  N     7.919736  8.924722 -4.367461
  N     5.664091  9.391835 -5.486465
  N     5.129740  9.483508 -1.649540
  S     7.172565  5.510512 -6.199534
  S     4.185533  6.290564 -3.388331
  S     6.509862  5.361860 -2.083128
  S     7.345939  9.348616 -5.841952
  S     4.304563  9.624099 -3.094234
  S     6.674204  8.859206 -1.810924
