16  
    
  C     5.429232  6.054332 -4.403242
  C     6.706129  5.856232 -3.767323
  C     5.497972  9.724828 -4.272189
  C     6.718931  9.263737 -3.686717
  N     7.737744  5.636531 -4.616512
  N     5.492910  6.081261 -5.749078
  N     4.961976  5.861420 -1.853690
  N     7.770440  9.153469 -4.462162
  N     5.568293  9.838746 -5.541625
  N     4.924813  9.509953 -1.809600
  S     7.047524  5.846841 -6.120217
  S     4.101580  6.228019 -3.255667
  S     6.551065  5.556786 -2.093295
  S     7.084108  9.437048 -6.013936
  S     4.157592  9.885240 -3.217895
  S     6.499514  8.925919 -2.010649
