16  
    
  C     5.787355  5.498668 -3.967313
  C     7.050193  5.192568 -3.391969
  C     5.501629  9.339484 -4.220836
  C     6.602332  8.777920 -3.491431
  N     7.996599  4.960928 -4.274093
  N     5.846355  5.583408 -5.284871
  N     5.361630  5.162000 -1.470382
  N     7.627333  8.513834 -4.317818
  N     5.695536  9.537949 -5.528113
  N     4.784957  9.323216 -1.744896
  S     7.415313  5.333223 -5.740520
  S     4.474858  5.506747 -2.851620
  S     6.985554  4.860453 -1.610554
  S     7.171793  8.906502 -5.849652
  S     4.126439  9.780178 -3.235681
  S     6.198829  8.397917 -1.813219
