16  
    
  C     5.526909  5.897377 -4.379125
  C     6.761787  5.340423 -3.865275
  C     5.538798  9.879390 -4.626836
  C     6.647660  9.221333 -4.044436
  N     7.702592  5.185181 -4.752451
  N     5.520830  6.073639 -5.669019
  N     5.132098  5.569317 -1.865814
  N     7.516812  8.848073 -4.985648
  N     5.531813 10.068421 -5.953756
  N     5.093741  9.832602 -2.055701
  S     7.001261  5.688022 -6.293169
  S     4.291908  6.121302 -3.181999
  S     6.713912  5.037838 -2.180363
  S     6.916266  9.329612 -6.481718
  S     4.294461 10.343559 -3.474763
  S     6.541268  9.053220 -2.307456
