16  
    
  C     5.404167  5.963595 -4.496293
  C     6.617571  5.617077 -3.840970
  C     5.332234  9.849582 -4.678165
  C     6.592620  9.590966 -4.006351
  N     7.721918  5.605308 -4.634123
  N     5.507853  6.208064 -5.801697
  N     4.951902  5.704375 -1.937236
  N     7.609413  9.673809 -4.813581
  N     5.402168 10.090737 -5.973038
  N     4.764671  9.525527 -2.247131
  S     7.078210  5.944834 -6.192853
  S     4.104640  6.004895 -3.325373
  S     6.503718  5.164922 -2.216456
  S     7.041817  9.911494 -6.358856
  S     3.943883 10.024389 -3.616379
  S     6.321932  9.328859 -2.325212
