16  
    
  C     5.534623  5.791963 -4.550190
  C     6.751781  5.544540 -3.890960
  C     5.152594  9.421300 -4.476516
  C     6.312209  9.076817 -3.684294
  N     7.868258  5.493328 -4.638110
  N     5.642454  5.865497 -5.888793
  N     4.871719  5.605863 -2.045265
  N     7.357015  8.760495 -4.459498
  N     5.265767  9.349239 -5.786222
  N     4.588596 10.014841 -2.033838
  S     7.269929  5.662682 -6.159923
  S     4.130056  5.954272 -3.483873
  S     6.560626  5.346643 -2.125194
  S     6.829469  9.032323 -6.072765
  S     3.879149 10.207856 -3.515668
  S     6.118928  9.279898 -1.957292
