16  
    
  C     5.522591  5.796665 -4.371342
  C     6.684050  5.280125 -3.732124
  C     5.731188  9.174033 -4.222750
  C     6.982825  8.866485 -3.543908
  N     7.634778  4.938485 -4.577473
  N     5.572058  5.849763 -5.702121
  N     4.923235  5.643252 -1.823878
  N     8.036929  8.606061 -4.330645
  N     5.866682  9.084944 -5.549391
  N     5.141293  9.285962 -1.734917
  S     7.157673  5.288827 -6.113638
  S     4.136914  5.985678 -3.283698
  S     6.510395  5.263349 -2.033366
  S     7.460251  8.679623 -5.915678
  S     4.356651  9.481863 -3.187754
  S     6.799157  8.954801 -1.817953
