16  
    
  C     5.525388  5.892433 -4.330026
  C     6.730536  5.274672 -3.772397
  C     5.674376  9.248796 -4.418723
  C     6.861971  8.800727 -3.754063
  N     7.623887  5.017383 -4.703883
  N     5.488047  5.904490 -5.684268
  N     5.054913  5.482730 -1.775693
  N     7.935561  8.621643 -4.498949
  N     5.843044  9.336252 -5.744822
  N     5.114667  9.091411 -1.897053
  S     7.050347  5.393240 -6.193181
  S     4.303452  6.176043 -3.119639
  S     6.599952  4.932906 -2.089662
  S     7.440726  8.865164 -6.034192
  S     4.358259  9.406386 -3.342270
  S     6.714895  8.719583 -2.008245
