16  
    
  C     5.370024  5.536101 -4.465137
  C     6.541352  5.144430 -3.661873
  C     5.493970  9.040427 -4.196153
  C     6.768816  8.894536 -3.566202
  N     7.639460  5.093296 -4.372850
  N     5.575974  5.613532 -5.781259
  N     4.688804  5.701643 -1.985730
  N     7.818960  8.760020 -4.361001
  N     5.564621  8.863991 -5.533434
  N     5.148263  9.300024 -1.618903
  S     7.207686  5.260012 -5.951331
  S     4.012668  5.948543 -3.474408
  S     6.311899  5.158770 -1.966210
  S     7.147490  8.715634 -5.927164
  S     4.267689  9.330126 -3.043626
  S     6.783233  8.988911 -1.815994
