16  
    
  C     5.582799  6.139967 -4.341518
  C     6.766507  5.603455 -3.698008
  C     5.445992  9.665227 -4.184469
  C     6.718703  9.276463 -3.598539
  N     7.814399  5.430504 -4.497587
  N     5.774490  6.324012 -5.630944
  N     4.934140  5.859968 -1.973823
  N     7.708846  9.196545 -4.456224
  N     5.429398  9.854815 -5.485932
  N     4.850002  9.332962 -1.739001
  S     7.339569  5.965453 -6.022813
  S     4.202808  6.387678 -3.379580
  S     6.498027  5.225236 -2.031471
  S     6.990849  9.454935 -5.940791
  S     4.111901  9.874257 -3.057086
  S     6.510673  9.081323 -1.869651
