16  
    
  C     5.612913  5.689237 -4.419792
  C     6.879771  5.368057 -3.829015
  C     5.259438  9.718032 -4.334931
  C     6.425712  9.134298 -3.722506
  N     7.835929  5.195472 -4.728538
  N     5.664514  5.821411 -5.727591
  N     5.237143  5.727291 -1.889244
  N     7.365424  8.827223 -4.627512
  N     5.273687  9.796264 -5.656627
  N     4.640042  9.490138 -1.861470
  S     7.239477  5.533099 -6.260833
  S     4.353088  5.850434 -3.278677
  S     6.824983  5.285102 -2.114504
  S     6.714975  9.178081 -6.115616
  S     3.941205 10.084600 -3.270680
  S     6.230865  9.181210 -1.962140
