16  
    
  C     5.636453  5.473527 -4.266086
  C     6.899821  5.314624 -3.563580
  C     5.234913  9.917969 -4.600228
  C     6.364113  9.253083 -3.933512
  N     7.926083  5.278068 -4.418137
  N     5.673711  5.361386 -5.566687
  N     4.996844  5.518850 -1.762102
  N     7.312559  8.912261 -4.816974
  N     5.387992 10.112832 -5.933181
  N     4.565592  9.810021 -2.131046
  S     7.310580  5.306747 -5.910642
  S     4.221689  5.683371 -3.233269
  S     6.700229  5.359363 -1.798303
  S     6.853309  9.522186 -6.301206
  S     3.953814 10.435499 -3.575238
  S     6.097753  9.112586 -2.207860
