16  
    
  C     5.261557  6.266237 -4.338749
  C     6.488025  5.682025 -3.790657
  C     5.737524  9.530264 -4.236075
  C     6.943316  9.138398 -3.618701
  N     7.456574  5.535073 -4.694663
  N     5.367051  6.506445 -5.642129
  N     4.760487  6.112773 -1.842766
  N     7.931503  8.963037 -4.514855
  N     5.764297  9.671876 -5.587443
  N     5.167458  9.402055 -1.779774
  S     6.929604  6.003617 -6.163973
  S     3.954486  6.532279 -3.221105
  S     6.350516  5.576004 -2.028505
  S     7.313216  9.342414 -6.013743
  S     4.345434  9.741184 -3.157866
  S     6.711285  8.944578 -1.943479
