16  
    
  C     5.334518  6.168920 -4.352087
  C     6.443487  5.526105 -3.757689
  C     5.513660  9.810927 -4.420346
  C     6.752956  9.425225 -3.771281
  N     7.449832  5.354064 -4.591995
  N     5.442590  6.320750 -5.658270
  N     4.792733  5.898604 -1.931875
  N     7.661132  9.205929 -4.672767
  N     5.453174  9.924249 -5.731347
  N     4.976533  9.379341 -1.869835
  S     6.940362  5.724267 -6.109121
  S     3.991139  6.437914 -3.317333
  S     6.328781  5.267104 -2.056563
  S     7.034120  9.582031 -6.187722
  S     4.169542 10.008484 -3.267219
  S     6.556026  9.009570 -2.013060
