16  
    
  C     5.361413  5.891186 -4.250575
  C     6.593447  5.470476 -3.651178
  C     5.415173  9.570572 -4.457491
  C     6.612281  9.125635 -3.784724
  N     7.552642  5.339002 -4.537028
  N     5.443397  6.238223 -5.527564
  N     4.926436  5.637239 -1.685589
  N     7.672234  8.869187 -4.578376
  N     5.563040  9.677669 -5.775415
  N     5.063713  9.743874 -1.883011
  S     7.047225  5.916719 -6.015988
  S     4.097545  6.058490 -3.091108
  S     6.583835  5.375764 -1.944547
  S     7.186341  9.228568 -6.110480
  S     4.173209  9.663657 -3.267448
  S     6.612810  9.221416 -2.042338
