16  
    
  C     5.777741  5.495727 -3.964589
  C     7.044823  5.190702 -3.391285
  C     5.502307  9.338224 -4.223930
  C     6.598218  8.776652 -3.483891
  N     7.999835  4.958305 -4.267247
  N     5.847192  5.580161 -5.281435
  N     5.359164  5.158464 -1.465558
  N     7.627245  8.513763 -4.312776
  N     5.702926  9.540500 -5.528408
  N     4.789477  9.326825 -1.745595
  S     7.414783  5.328302 -5.733288
  S     4.472739  5.503149 -2.847429
  S     6.975372  4.862481 -1.610788
  S     7.169366  8.913149 -5.845783
  S     4.120988  9.778419 -3.233453
  S     6.201111  8.398190 -1.812451
