16  
    
  C     5.096834  5.917215 -4.339856
  C     6.321788  5.363242 -3.668644
  C     5.408453  9.449991 -4.036899
  C     6.620189  8.908383 -3.479219
  N     7.364050  5.215966 -4.487204
  N     5.203115  6.137358 -5.662249
  N     4.631728  5.835586 -1.762248
  N     7.541291  8.515425 -4.400848
  N     5.448126  9.553557 -5.394383
  N     5.045496  9.400918 -1.513274
  S     6.757213  5.578116 -6.020022
  S     3.842042  6.125936 -3.192955
  S     6.219316  5.440087 -1.946569
  S     6.929784  8.958260 -5.881265
  S     4.235514  9.859396 -2.887996
  S     6.588060  8.820435 -1.659954
