16  
    
  C     5.364034  5.870749 -4.245679
  C     6.567626  5.474102 -3.681068
  C     5.434549  9.536372 -4.463695
  C     6.625897  9.098028 -3.768080
  N     7.568855  5.338647 -4.540115
  N     5.462224  6.233508 -5.518223
  N     4.910028  5.623121 -1.715685
  N     7.639940  8.858637 -4.601176
  N     5.511689  9.669694 -5.780679
  N     5.063791  9.743737 -1.884465
  S     7.048589  5.904064 -6.019443
  S     4.090001  6.056859 -3.097137
  S     6.576303  5.379915 -1.946270
  S     7.173008  9.232273 -6.130072
  S     4.160632  9.654605 -3.259965
  S     6.609185  9.231225 -2.036028
