16  
    
  C     5.503309  6.071432 -4.309214
  C     6.593413  5.495480 -3.619762
  C     5.687882  9.679772 -4.234865
  C     6.809137  9.025269 -3.565574
  N     7.606604  5.220499 -4.398254
  N     5.684083  6.281737 -5.589978
  N     4.687032  5.668750 -1.944020
  N     7.821878  8.713170 -4.373820
  N     5.900087  9.915560 -5.534560
  N     5.215141  9.572407 -1.725016
  S     7.244188  5.672708 -5.966257
  S     4.051981  6.282474 -3.385286
  S     6.273426  5.189781 -1.910895
  S     7.380503  9.251251 -5.882161
  S     4.401302  9.923458 -3.140718
  S     6.663824  8.818079 -1.843290
