16  
    
  C     5.370482  5.511381 -4.447790
  C     6.582564  5.280403 -3.694404
  C     5.612303  8.969161 -4.121829
  C     6.922467  8.915747 -3.528548
  N     7.690490  5.105997 -4.414550
  N     5.616094  5.586907 -5.749535
  N     4.710022  5.599655 -1.938857
  N     7.883287  8.683308 -4.436555
  N     5.573903  8.894119 -5.458413
  N     5.156679  9.355927 -1.622528
  S     7.252190  5.224292 -6.028396
  S     3.997723  6.018467 -3.419494
  S     6.320507  5.240690 -1.955607
  S     7.181857  8.729729 -5.923876
  S     4.307787  9.308751 -3.032220
  S     6.769550  9.071473 -1.778223
