16  
    
  C     5.568888  5.445769 -4.164055
  C     6.916484  5.270894 -3.667025
  C     5.505498  9.349841 -4.586312
  C     6.653246  8.826799 -3.887898
  N     7.844573  5.225226 -4.631080
  N     5.393714  5.501759 -5.490548
  N     5.394051  5.239538 -1.544474
  N     7.766020  8.589355 -4.587740
  N     5.748252  9.542998 -5.882253
  N     4.781518  9.285828 -2.108104
  S     6.953169  5.452488 -6.031801
  S     4.393786  5.353564 -2.842184
  S     7.045790  5.126720 -1.870442
  S     7.300979  9.013518 -6.166885
  S     4.178434  9.770471 -3.547472
  S     6.296976  8.526497 -2.188863
