16  
    
  C     5.804037  5.583397 -4.178985
  C     7.082987  5.213912 -3.639592
  C     5.456755  9.320576 -4.398177
  C     6.518729  8.644962 -3.660069
  N     8.131011  5.085507 -4.484490
  N     5.836773  5.718604 -5.509005
  N     5.448612  5.199537 -1.622388
  N     7.527761  8.316057 -4.432300
  N     5.618365  9.459729 -5.696015
  N     4.766112  9.123920 -1.909721
  S     7.443818  5.507832 -5.985729
  S     4.546834  5.607679 -2.983605
  S     7.093212  4.898521 -1.894369
  S     7.151312  8.742078 -5.991004
  S     4.174532  9.890688 -3.313908
  S     6.375147  8.620239 -1.947406
