16  
    
  C     5.576535  6.019206 -4.444021
  C     6.762418  5.639019 -3.759623
  C     5.603069  9.440397 -4.433595
  C     6.834831  9.192609 -3.774758
  N     7.843088  5.452346 -4.494925
  N     5.667630  6.131518 -5.770889
  N     4.909108  5.739159 -1.941358
  N     7.895311  9.050652 -4.567479
  N     5.682332  9.502228 -5.733217
  N     5.017094  9.439764 -1.925425
  S     7.230664  5.725947 -6.098513
  S     4.169795  6.163029 -3.358278
  S     6.555484  5.675730 -1.990385
  S     7.266331  9.403270 -6.111834
  S     4.291861  9.486200 -3.408939
  S     6.607611  9.019590 -1.986925
