16  
    
  C     5.379013  5.721178 -4.552603
  C     6.565029  5.246824 -3.776529
  C     5.276562  9.446557 -4.366350
  C     6.454842  8.853087 -3.762956
  N     7.662340  5.021883 -4.537466
  N     5.617460  5.959105 -5.849753
  N     4.631990  5.712996 -2.072603
  N     7.486653  8.545723 -4.561359
  N     5.511685  9.614753 -5.666930
  N     4.762994  9.494423 -1.866717
  S     7.149145  5.422681 -6.077221
  S     3.987269  6.189539 -3.544290
  S     6.238664  5.301940 -2.110954
  S     7.013489  9.136856 -6.084466
  S     3.934756  9.704792 -3.273354
  S     6.287609  8.910883 -1.943552
