16  
    
  C     5.452866  6.152772 -4.413067
  C     6.734208  5.672270 -3.952608
  C     5.499025  9.925175 -4.374562
  C     6.631940  9.239880 -3.750899
  N     7.606125  5.386922 -4.903301
  N     5.487420  6.376190 -5.714212
  N     5.206912  5.761371 -1.909746
  N     7.673009  9.049033 -4.542733
  N     5.633560 10.159399 -5.654554
  N     4.801285  9.611048 -1.858786
  S     6.987677  5.911727 -6.346679
  S     4.291301  6.379434 -3.152031
  S     6.803423  5.278238 -2.284174
  S     7.123434  9.497871 -6.030537
  S     4.175590 10.232900 -3.255968
  S     6.377864  9.023397 -2.046746
