16  
    
  C     5.436423  6.072855 -4.381488
  C     6.702938  5.822314 -3.806199
  C     5.514576  9.672711 -4.233975
  C     6.755866  9.213991 -3.635128
  N     7.698314  5.625348 -4.628273
  N     5.479582  6.053025 -5.686966
  N     4.970248  5.812709 -1.865479
  N     7.778858  9.134970 -4.523585
  N     5.570199  9.872421 -5.590706
  N     4.952614  9.545969 -1.750747
  S     7.104030  5.842867 -6.142513
  S     4.159913  6.241103 -3.239868
  S     6.570712  5.525948 -2.105066
  S     7.092360  9.455225 -6.041826
  S     4.122417  9.857129 -3.197567
  S     6.529213  8.905360 -1.975410
