16  
    
  C     5.512829  5.964584 -4.755639
  C     6.717325  5.593146 -4.038050
  C     5.631011  9.838814 -4.310598
  C     6.761576  9.210969 -3.724139
  N     7.822920  5.617573 -4.770554
  N     5.706656  6.222585 -6.024831
  N     4.876504  5.693753 -2.257979
  N     7.750206  9.073547 -4.612576
  N     5.788264 10.214656 -5.596158
  N     4.844858  9.222114 -1.961606
  S     7.313373  5.885474 -6.297921
  S     4.200970  6.055136 -3.703861
  S     6.435371  5.359801 -2.301466
  S     7.294108  9.734673 -6.022078
  S     4.203991  9.775840 -3.396442
  S     6.499456  8.860145 -2.011744
