16  
    
  C     5.521685  5.613070 -4.309482
  C     6.700100  5.140755 -3.602302
  C     5.526785  9.226622 -4.257048
  C     6.732462  8.782638 -3.612125
  N     7.814241  4.958376 -4.313251
  N     5.739176  5.758221 -5.605560
  N     4.996412  5.655745 -1.758677
  N     7.790613  8.645175 -4.423906
  N     5.650869  9.452143 -5.561561
  N     4.907605  9.076461 -1.756669
  S     7.291897  5.333359 -5.851314
  S     4.256066  6.056742 -3.210605
  S     6.509426  4.993300 -1.952684
  S     7.216911  9.158004 -5.961647
  S     4.195931  9.585737 -3.190539
  S     6.525356  8.559651 -1.902118
