16  
    
  C     5.587319  6.075968 -4.465578
  C     6.797222  5.794475 -3.723300
  C     5.503166  9.627422 -4.486886
  C     6.658900  9.166689 -3.771841
  N     7.853872  5.576539 -4.487869
  N     5.782319  6.148517 -5.795897
  N     4.917312  5.979272 -1.912730
  N     7.798013  9.108645 -4.433545
  N     5.732398  9.834282 -5.786120
  N     4.920575  9.505232 -1.962724
  S     7.368390  5.804901 -6.116647
  S     4.290645  6.403823 -3.389387
  S     6.518008  5.592036 -2.067415
  S     7.373508  9.329397 -6.010168
  S     4.192656  9.898583 -3.366673
  S     6.542596  8.962179 -2.050317
