16  
    
  C     5.524459  6.216731 -4.485033
  C     6.721649  5.679842 -3.864893
  C     5.357970  9.968709 -4.676489
  C     6.619853  9.697998 -4.071068
  N     7.767993  5.517251 -4.678157
  N     5.643615  6.448118 -5.759329
  N     4.948084  5.794721 -1.974616
  N     7.649193  9.526978 -4.858665
  N     5.453725 10.069481 -5.972155
  N     4.860918  9.571708 -2.222322
  S     7.154048  6.067571 -6.221390
  S     4.210026  6.279314 -3.400085
  S     6.566358  5.374372 -2.144569
  S     7.067685  9.811073 -6.389007
  S     4.017965 10.006634 -3.615852
  S     6.430065  9.487267 -2.335317
