16  
    
  C     5.420613  5.724243 -4.157107
  C     6.573366  5.112289 -3.519838
  C     5.544060  9.473143 -4.166642
  C     6.751678  8.958405 -3.544686
  N     7.547774  4.852663 -4.377861
  N     5.584559  6.126819 -5.411630
  N     4.851689  5.277972 -1.670007
  N     7.752244  8.672679 -4.375769
  N     5.694208  9.765860 -5.456474
  N     5.011247  9.028871 -1.699948
  S     7.056434  5.505086 -5.886091
  S     4.137867  5.893344 -3.005174
  S     6.436273  4.878618 -1.850093
  S     7.258305  9.324611 -5.874001
  S     4.230365  9.519477 -3.073077
  S     6.673808  8.756860 -1.810262
