16  
    
  C     5.637442  6.138958 -4.326617
  C     6.789904  5.508698 -3.745732
  C     5.628768  9.551952 -4.210598
  C     6.859956  9.150603 -3.664752
  N     7.753521  5.219350 -4.597755
  N     5.763517  6.387418 -5.600243
  N     4.960539  5.799383 -1.891116
  N     7.902300  9.025966 -4.509482
  N     5.664228  9.700900 -5.540671
  N     5.217100  9.299902 -1.776752
  S     7.270368  5.862677 -6.055651
  S     4.305208  6.385449 -3.269270
  S     6.474792  5.114487 -2.092263
  S     7.188967  9.311488 -6.035259
  S     4.286509  9.746191 -3.086800
  S     6.780483  8.861928 -2.000574
