16  
    
  C     5.597111  5.746706 -4.507256
  C     6.831957  5.356997 -3.854351
  C     5.173798  9.792065 -4.387925
  C     6.349572  9.280805 -3.715941
  N     7.849020  5.195653 -4.697367
  N     5.661087  5.954791 -5.830247
  N     5.179311  5.741226 -1.952388
  N     7.272617  8.763981 -4.514561
  N     5.241250  9.790164 -5.695088
  N     4.571828  9.647555 -1.889455
  S     7.234334  5.541764 -6.201043
  S     4.290764  5.823551 -3.301560
  S     6.802066  5.331361 -2.111598
  S     6.748147  9.046078 -6.078157
  S     3.861484 10.030920 -3.330185
  S     6.185170  9.150617 -1.937643
