16  
    
  C     5.580496  5.965871 -4.465087
  C     6.634550  5.269244 -3.767646
  C     5.491047  9.603678 -4.161520
  C     6.724002  9.068652 -3.667438
  N     7.675346  4.976736 -4.549676
  N     5.806041  6.116805 -5.750894
  N     4.827949  5.675437 -2.030190
  N     7.706039  8.890126 -4.535651
  N     5.543023  9.947812 -5.437621
  N     5.150086  9.228638 -1.653599
  S     7.307796  5.548033 -6.140194
  S     4.146043  6.126113 -3.450238
  S     6.411590  5.125481 -2.037019
  S     7.018556  9.388496 -5.984923
  S     4.238094  9.731266 -2.971660
  S     6.683547  8.769900 -1.936801
