16  
    
  C     5.480551  5.625768 -4.360899
  C     6.618820  5.073126 -3.697074
  C     5.522614  9.704546 -4.599679
  C     6.674091  9.120097 -3.961323
  N     7.718710  4.879825 -4.441083
  N     5.685575  5.903023 -5.657003
  N     4.797728  5.460503 -1.857042
  N     7.736732  9.167403 -4.734675
  N     5.639375 10.085977 -5.882683
  N     4.811239  9.315111 -2.181937
  S     7.219230  5.434782 -5.943619
  S     4.156424  6.069469 -3.309493
  S     6.335325  4.758503 -1.975572
  S     7.258640  9.802327 -6.228713
  S     4.194401 10.007088 -3.555960
  S     6.351659  8.751591 -2.268071
