16  
    
  C     5.241077  5.758597 -4.539757
  C     6.514338  5.354344 -3.879201
  C     5.420229  9.606790 -4.452388
  C     6.557120  9.086117 -3.756082
  N     7.539703  5.139066 -4.704454
  N     5.355071  5.952035 -5.850826
  N     4.776784  5.730930 -1.927057
  N     7.597690  8.790809 -4.556016
  N     5.533477  9.537963 -5.790534
  N     4.721209  9.598529 -1.976051
  S     6.964077  5.599419 -6.213491
  S     4.012666  6.181337 -3.379452
  S     6.390768  5.212632 -2.105029
  S     6.990174  8.950104 -6.143715
  S     4.108701 10.083277 -3.405099
  S     6.206041  8.899372 -2.078559
