16  
    
  C     5.619028  5.369534 -4.418755
  C     6.846042  5.120025 -3.705956
  C     5.517551  9.435298 -4.369942
  C     6.723221  9.055211 -3.676547
  N     7.943267  4.848842 -4.433441
  N     5.786295  5.440611 -5.741172
  N     5.012811  5.565823 -1.914598
  N     7.724276  8.852547 -4.502203
  N     5.587534  9.576288 -5.695869
  N     4.862927  9.025344 -1.964884
  S     7.409880  5.126612 -6.060411
  S     4.217588  5.618736 -3.371856
  S     6.654245  5.209670 -1.897567
  S     7.184017  9.128716 -6.065361
  S     4.190944  9.766762 -3.331138
  S     6.499743  8.841322 -1.962335
