16  
    
  C     5.467351  5.892022 -4.310935
  C     6.614741  5.198543 -3.652748
  C     5.555236  9.982462 -4.569853
  C     6.644530  9.281778 -3.909162
  N     7.606930  4.892937 -4.499432
  N     5.657392  6.170303 -5.630341
  N     4.810237  5.571897 -1.746590
  N     7.756606  9.100813 -4.584790
  N     5.852124 10.225528 -5.859768
  N     4.705735  9.098157 -2.277947
  S     7.101389  5.452534 -5.969726
  S     4.167584  6.200279 -3.155943
  S     6.348288  4.857311 -1.951678
  S     7.436755  9.724837 -6.092676
  S     4.194140 10.011621 -3.546227
  S     6.289422  8.626732 -2.333621
