16  
    
  C     5.521151  6.056398 -4.427111
  C     6.769230  5.628227 -3.760945
  C     5.605875  9.409470 -4.430965
  C     6.851906  9.201895 -3.748638
  N     7.847066  5.448783 -4.529407
  N     5.614120  6.128955 -5.750927
  N     4.961790  5.734678 -1.935241
  N     7.877476  9.071229 -4.582921
  N     5.689113  9.499105 -5.761741
  N     5.072467  9.396490 -1.931529
  S     7.210538  5.733114 -6.075572
  S     4.171909  6.159802 -3.351598
  S     6.563878  5.660187 -2.026597
  S     7.280854  9.399279 -6.137762
  S     4.234318  9.469584 -3.402221
  S     6.614081  8.997880 -2.029831
