16  
    
  C     5.449390  5.997954 -4.388774
  C     6.623774  5.540656 -3.717947
  C     5.344860  9.533234 -4.325598
  C     6.597821  9.200491 -3.739755
  N     7.672340  5.541978 -4.515908
  N     5.573411  6.236139 -5.705625
  N     4.753655  5.456768 -1.941846
  N     7.628173  9.091561 -4.563035
  N     5.410797  9.781046 -5.625405
  N     4.884506  9.462984 -1.724539
  S     7.189076  6.028347 -6.030867
  S     4.003665  5.993448 -3.352259
  S     6.420092  5.272396 -1.996283
  S     6.990005  9.440189 -6.050735
  S     4.020808  9.690350 -3.162046
  S     6.483528  9.077329 -1.969360
