16  
    
  C     5.607511  5.795286 -4.430752
  C     6.766875  5.277866 -3.781127
  C     5.697383  9.545618 -4.234941
  C     6.873837  9.022569 -3.584055
  N     7.850964  5.001583 -4.554663
  N     5.689836  5.873430 -5.756142
  N     4.893742  5.514829 -1.955459
  N     7.922550  8.750679 -4.361588
  N     5.861508  9.656723 -5.552346
  N     5.105235  9.356823 -1.801975
  S     7.245210  5.412054 -6.062461
  S     4.310155  6.256769 -3.318786
  S     6.480635  4.971786 -2.069584
  S     7.333420  9.029667 -5.879911
  S     4.311154  9.792056 -3.175701
  S     6.612245  8.691540 -1.934791
