16  
    
  C     5.225051  6.377963 -4.690963
  C     6.448217  5.979484 -4.059226
  C     5.800199  9.776421 -4.368895
  C     7.011084  9.334013 -3.763069
  N     7.445849  5.730031 -4.951701
  N     5.285025  6.516364 -6.015670
  N     4.771424  6.437240 -2.148789
  N     7.994541  9.044156 -4.638695
  N     5.763543  9.864375 -5.713373
  N     5.309065  9.458508 -1.833092
  S     6.841078  6.064840 -6.367537
  S     3.957373  6.646112 -3.615144
  S     6.347396  5.982103 -2.349387
  S     7.383473  9.529175 -6.126752
  S     4.455953  9.880652 -3.240301
  S     6.864116  9.150026 -2.046159
