16  
    
  C     5.384556  5.683161 -4.371917
  C     6.655680  5.393938 -3.734399
  C     5.363987 10.090933 -4.568184
  C     6.526428  9.377798 -3.987364
  N     7.664494  5.291374 -4.618339
  N     5.415729  5.934712 -5.697752
  N     4.930098  5.597786 -1.848699
  N     7.520682  9.227772 -4.854799
  N     5.525061 10.426238 -5.818728
  N     4.691397  9.677580 -2.068823
  S     7.006300  5.655190 -6.073877
  S     4.077417  5.622793 -3.260078
  S     6.545849  5.289603 -1.992203
  S     6.932473  9.821611 -6.317941
  S     3.987214 10.301304 -3.543578
  S     6.222946  9.137791 -2.296701
