16  
    
  C     5.493492  5.818151 -4.565622
  C     6.756591  5.540650 -3.887884
  C     5.163019  9.442115 -4.439428
  C     6.361105  9.129424 -3.688963
  N     7.882210  5.487234 -4.625788
  N     5.645351  5.838331 -5.899397
  N     4.843939  5.616659 -2.038573
  N     7.383264  8.766442 -4.455754
  N     5.252281  9.372220 -5.766195
  N     4.620228  9.978951 -2.042007
  S     7.278392  5.692737 -6.150527
  S     4.112907  5.963113 -3.481533
  S     6.557221  5.360237 -2.147802
  S     6.841777  9.002627 -6.060094
  S     3.877687 10.196200 -3.516344
  S     6.127581  9.284836 -1.995507
