16  
    
  C     5.632185  5.777576 -4.106224
  C     6.828678  5.227685 -3.571245
  C     5.817914  9.154994 -3.944546
  C     7.070685  8.761004 -3.354605
  N     7.838702  4.992650 -4.393970
  N     5.681428  5.967853 -5.430485
  N     5.222238  5.280085 -1.613179
  N     8.080427  8.748334 -4.238507
  N     5.878286  9.487330 -5.235395
  N     5.298721  9.023433 -1.406900
  S     7.200589  5.489288 -5.858826
  S     4.455781  5.984685 -2.893502
  S     6.800376  4.869659 -1.893521
  S     7.483976  9.244884 -5.709430
  S     4.467554  9.283043 -2.837974
  S     6.928626  8.679667 -1.583897
