16  
    
  C     5.486979  5.252649 -3.875525
  C     6.669071  4.945719 -3.197015
  C     5.392201  9.378319 -4.116938
  C     6.521324  8.781514 -3.462322
  N     7.727277  4.851297 -3.977888
  N     5.560063  5.352135 -5.183036
  N     4.812042  5.125909 -1.372595
  N     7.565152  8.595605 -4.308784
  N     5.530512  9.655629 -5.399044
  N     4.658394  9.082434 -1.739396
  S     7.164421  5.193614 -5.497666
  S     4.076455  5.261936 -2.872740
  S     6.441462  4.854179 -1.506457
  S     7.096280  9.121454 -5.782455
  S     4.008064  9.679907 -3.171568
  S     6.293081  8.758372 -1.736968
