16  
    
  C     5.532143  6.065367 -4.317206
  C     6.749433  5.646829 -3.686657
  C     5.628572  9.421121 -4.453717
  C     6.883362  9.091802 -3.765408
  N     7.757864  5.429297 -4.574680
  N     5.632428  6.158134 -5.650500
  N     4.957922  5.904781 -1.797090
  N     7.990102  9.042245 -4.528257
  N     5.761923  9.536450 -5.739171
  N     5.007597  9.298835 -1.910972
  S     7.206247  5.718720 -6.022204
  S     4.187934  6.304730 -3.226513
  S     6.564193  5.540895 -1.934385
  S     7.430837  9.352260 -6.112478
  S     4.276201  9.669352 -3.330247
  S     6.656475  8.830299 -2.024413
