16  
    
  C     5.610605  5.671350 -4.408111
  C     6.894183  5.381413 -3.757140
  C     5.179350  9.690495 -4.452275
  C     6.386967  9.146872 -3.846878
  N     7.860381  5.301576 -4.652119
  N     5.673057  5.742296 -5.724782
  N     5.203831  5.595370 -1.884188
  N     7.391685  8.988314 -4.686496
  N     5.257017  9.798700 -5.781745
  N     4.916474  9.676054 -1.817674
  S     7.258577  5.407525 -6.212601
  S     4.385102  5.898337 -3.285049
  S     6.831702  5.125507 -2.092261
  S     6.880975  9.390331 -6.150540
  S     4.106867 10.126802 -3.175636
  S     6.433874  9.084250 -2.095173
