16  
    
  C     5.542616  6.028960 -4.340352
  C     6.785029  5.684442 -3.649989
  C     5.670526  9.468634 -4.371223
  C     6.903833  9.085124 -3.705574
  N     7.776431  5.478568 -4.502525
  N     5.603441  6.159352 -5.659502
  N     4.913030  5.900411 -1.868905
  N     7.904317  8.985769 -4.566733
  N     5.770786  9.531188 -5.736306
  N     5.078490  9.347225 -1.890203
  S     7.149841  5.753263 -6.065686
  S     4.192094  6.344290 -3.283995
  S     6.582085  5.541279 -1.929245
  S     7.374777  9.368463 -6.103374
  S     4.279322  9.665289 -3.302196
  S     6.671446  8.844519 -2.016759
