16  
    
  C     5.859672  5.474027 -4.121540
  C     7.053614  4.978285 -3.422398
  C     5.677353  9.673436 -4.311662
  C     6.867233  9.118536 -3.741076
  N     8.197134  5.008972 -4.150893
  N     6.128095  5.699683 -5.392086
  N     5.027000  5.173391 -1.720166
  N     7.898230  9.098818 -4.568877
  N     5.780901  9.973492 -5.615324
  N     5.077953  8.895984 -1.895013
  S     7.672170  5.327847 -5.731139
  S     4.493322  5.856043 -3.167417
  S     6.611300  4.635230 -1.731149
  S     7.372774  9.707072 -5.984794
  S     4.336187  9.721699 -3.135483
  S     6.621786  8.505015 -2.147460
