16  
    
  C     5.187681  6.138333 -4.329111
  C     6.326611  5.557409 -3.691892
  C     5.509446  9.754746 -4.274494
  C     6.667703  9.215171 -3.652081
  N     7.395297  5.345251 -4.459397
  N     5.340029  6.358955 -5.628872
  N     4.592118  5.963065 -1.805107
  N     7.616582  8.958918 -4.560359
  N     5.545659  9.954731 -5.624660
  N     4.998649  9.626020 -1.719537
  S     6.820642  5.860460 -5.970640
  S     3.909515  6.554440 -3.243359
  S     6.164275  5.312703 -1.932379
  S     7.066506  9.458448 -6.087933
  S     4.208056 10.016435 -3.093573
  S     6.609876  8.993765 -1.929162
