16  
    
  C     5.614136  5.840255 -4.315972
  C     6.850243  5.459480 -3.667189
  C     5.786720  9.482896 -4.458881
  C     6.993177  9.083354 -3.743304
  N     7.832258  5.301929 -4.520704
  N     5.706282  6.078464 -5.608187
  N     5.002492  5.788471 -1.781919
  N     8.044801  9.008080 -4.520375
  N     5.930871  9.720099 -5.778489
  N     5.054190  9.296933 -1.972223
  S     7.268165  5.729411 -6.018846
  S     4.265880  6.119534 -3.245466
  S     6.575784  5.326954 -1.922323
  S     7.516341  9.286584 -6.115730
  S     4.392574  9.515379 -3.427173
  S     6.718070  9.079505 -2.016907
