16  
    
  C     5.429746  5.579417 -4.246788
  C     6.639086  5.248077 -3.468855
  C     5.814342  8.848444 -3.949034
  C     7.086326  8.519520 -3.364676
  N     7.719724  4.976009 -4.211549
  N     5.593719  5.514989 -5.573525
  N     4.725140  5.721509 -1.736998
  N     8.052580  8.508557 -4.258002
  N     5.820820  9.103629 -5.261443
  N     5.356273  8.659708 -1.440637
  S     7.189475  5.041113 -5.796198
  S     4.087463  5.882471 -3.242703
  S     6.295621  5.101292 -1.749604
  S     7.417890  8.905306 -5.741770
  S     4.540755  9.146881 -2.838363
  S     6.924751  8.153754 -1.640461
