16  
    
  C     5.237321  6.247869 -4.317112
  C     6.380682  5.769872 -3.607213
  C     5.636573  9.579505 -4.040610
  C     6.841265  9.022510 -3.515158
  N     7.449121  5.463419 -4.334132
  N     5.322140  6.146267 -5.645790
  N     4.467888  5.898295 -1.846691
  N     7.797997  8.642200 -4.387708
  N     5.735257  9.729603 -5.359627
  N     5.182684  9.495096 -1.522286
  S     6.900557  5.755324 -5.923479
  S     3.757212  6.495140 -3.264603
  S     6.096295  5.602535 -1.874401
  S     7.130375  9.042868 -5.900571
  S     4.415137  9.909455 -2.873149
  S     6.698141  8.913750 -1.760421
