16  
    
  C     5.684844  5.804743 -4.113191
  C     6.770002  5.179778 -3.388220
  C     5.516056  9.419713 -4.000350
  C     6.642217  8.800910 -3.341527
  N     7.790561  4.852303 -4.167500
  N     5.915980  6.056062 -5.402913
  N     4.911066  5.376024 -1.606531
  N     7.711677  8.609593 -4.129182
  N     5.706472  9.748933 -5.270881
  N     4.869876  9.194771 -1.505463
  S     7.519875  5.525009 -5.651381
  S     4.212593  5.916494 -3.085248
  S     6.589220  5.086555 -1.657748
  S     7.216368  9.193806 -5.679059
  S     4.186721  9.612713 -2.974787
  S     6.402724  8.582005 -1.624208
