16  
    
  C     5.443871  5.971491 -4.511916
  C     6.691963  5.517648 -3.898736
  C     5.412431  9.869969 -4.547799
  C     6.554885  9.283302 -3.860706
  N     7.704230  5.239903 -4.716410
  N     5.600627  6.204254 -5.827326
  N     5.056633  5.796395 -1.957847
  N     7.591761  9.129589 -4.639449
  N     5.613793 10.100450 -5.844539
  N     4.893825  9.654048 -1.968385
  S     7.072396  5.680325 -6.215726
  S     4.245040  6.361764 -3.325201
  S     6.638414  5.367285 -2.155730
  S     7.204577  9.744704 -6.156410
  S     4.013562  9.948141 -3.421758
  S     6.429181  9.044770 -2.151449
