16  
    
  C     5.243634  6.282285 -4.475741
  C     6.429801  5.789818 -3.762999
  C     5.347690 10.000287 -4.176868
  C     6.668396  9.669465 -3.607181
  N     7.502249  5.631055 -4.466263
  N     5.529419  6.465360 -5.754575
  N     4.476903  6.052368 -2.081449
  N     7.722611  9.748640 -4.428626
  N     5.455275 10.361913 -5.434710
  N     4.979562  9.539509 -1.697672
  S     7.089391  6.064820 -6.029678
  S     3.884114  6.648450 -3.520637
  S     6.079079  5.503105 -2.059046
  S     7.082121 10.113777 -5.917092
  S     4.081049  9.783294 -3.027355
  S     6.699768  9.370160 -1.885133
