16  
    
  C     5.565800  5.585108 -4.546225
  C     6.847369  5.433657 -3.972134
  C     5.372064  9.694027 -4.224639
  C     6.574156  9.256732 -3.591786
  N     7.874409  5.620548 -4.767721
  N     5.576972  5.933897 -5.803906
  N     5.106125  5.429367 -2.000429
  N     7.612068  9.157381 -4.431473
  N     5.520527  9.967761 -5.533720
  N     4.947215  9.200626 -1.694410
  S     7.160988  5.858342 -6.258030
  S     4.301487  5.450800 -3.478525
  S     6.737004  5.191439 -2.211932
  S     7.089017  9.631505 -5.895008
  S     4.082114  9.670649 -3.062525
  S     6.561819  8.969744 -1.905745
