16  
    
  C     5.735736  5.883678 -4.408745
  C     6.957139  5.354906 -3.948301
  C     5.690679  9.167648 -4.085305
  C     6.923804  8.576006 -3.638781
  N     7.988113  5.354834 -4.831467
  N     5.742011  6.204524 -5.718528
  N     5.284929  5.140757 -1.920435
  N     7.899506  8.618315 -4.540950
  N     5.712753  9.591564 -5.342888
  N     5.474267  8.835041 -1.485154
  S     7.282698  6.048777 -6.227650
  S     4.505091  5.799853 -3.224778
  S     6.855334  4.809932 -2.272630
  S     7.283822  9.293304 -5.924594
  S     4.525466  9.406110 -2.717855
  S     7.035709  8.388290 -1.942939
