16  
    
  C     5.226223  6.359109 -4.484786
  C     6.472111  5.991355 -3.868231
  C     5.483090  9.638597 -4.215199
  C     6.800438  9.324501 -3.721200
  N     7.552239  6.005426 -4.659785
  N     5.297391  6.529450 -5.807180
  N     4.657641  5.963835 -1.973318
  N     7.806918  9.299473 -4.641337
  N     5.500086  9.910931 -5.528638
  N     5.032425  9.305131 -1.771629
  S     6.917022  6.288951 -6.147610
  S     3.889704  6.397089 -3.408478
  S     6.304808  5.910217 -2.093165
  S     7.046710  9.729315 -6.095939
  S     4.189461  9.651468 -3.131747
  S     6.653452  8.994101 -2.023584
