16  
    
  C     5.454635  5.999667 -4.403187
  C     6.673022  5.566223 -3.821525
  C     5.518645  9.394715 -4.529438
  C     6.730629  9.182573 -3.849033
  N     7.690549  5.528670 -4.686063
  N     5.416932  6.145449 -5.730624
  N     5.011585  5.898260 -1.826727
  N     7.811269  9.052791 -4.604935
  N     5.667720  9.512859 -5.851458
  N     4.994022  9.107439 -1.978205
  S     7.054768  5.828286 -6.184908
  S     4.158842  6.242577 -3.197954
  S     6.574650  5.457244 -2.024089
  S     7.291474  9.274712 -6.140520
  S     4.218921  9.289418 -3.422098
  S     6.582413  8.822093 -2.142691
