16  
    
  C     5.800277  5.751205 -3.945597
  C     6.902465  4.989534 -3.457304
  C     5.611183  9.632235 -4.148883
  C     6.837335  9.013270 -3.683943
  N     7.912601  4.844945 -4.328368
  N     6.046617  6.421579 -5.070622
  N     5.152710  5.071481 -1.558182
  N     7.833003  8.905620 -4.559789
  N     5.737600 10.113698 -5.377824
  N     5.179938  8.909296 -1.655780
  S     7.430918  5.795949 -5.695323
  S     4.428526  5.750655 -2.840723
  S     6.720222  4.607812 -1.798095
  S     7.278219  9.780220 -5.905459
  S     4.320122  9.627362 -2.919437
  S     6.751328  8.502670 -2.038135
