16  
    
  C     5.895513  6.062066 -4.468320
  C     7.048172  5.568820 -3.697051
  C     5.660066  9.506033 -4.425571
  C     6.875083  8.993906 -3.784549
  N     8.099563  5.280578 -4.465334
  N     6.095184  6.246927 -5.805798
  N     5.077193  5.590002 -2.025124
  N     7.942766  8.921654 -4.569859
  N     5.773542  9.714496 -5.701414
  N     5.129971  9.257291 -1.878116
  S     7.649040  5.662704 -6.026679
  S     4.436912  6.136546 -3.447408
  S     6.749716  5.424568 -1.911191
  S     7.379718  9.342446 -6.111570
  S     4.405404  9.821497 -3.260030
  S     6.724980  8.893429 -2.029953
