16  
    
  C     5.594396  5.475532 -4.048835
  C     6.852574  5.053218 -3.426788
  C     5.818949  9.376615 -3.919897
  C     7.041826  9.041983 -3.230669
  N     7.880080  4.975687 -4.294561
  N     5.680885  5.746814 -5.358093
  N     5.190933  5.503174 -1.490316
  N     8.043209  8.813661 -4.062289
  N     5.906484  9.445572 -5.241445
  N     5.383474  9.161726 -1.378259
  S     7.191190  5.352958 -5.809092
  S     4.386723  5.850773 -2.880279
  S     6.764114  4.962497 -1.669012
  S     7.507349  9.073295 -5.560575
  S     4.515750  9.415416 -2.800998
  S     6.998024  8.816193 -1.529944
