16  
    
  C     5.593317  5.880833 -4.173139
  C     6.744782  5.232011 -3.596155
  C     5.718997  9.539520 -4.470375
  C     6.941121  9.120908 -3.846599
  N     7.778197  4.985589 -4.407091
  N     5.827625  6.179016 -5.449516
  N     5.022593  5.450955 -1.710627
  N     7.859052  8.834112 -4.722751
  N     5.770408  9.595590 -5.807553
  N     5.188141  9.214898 -1.971513
  S     7.314206  5.545512 -5.859098
  S     4.379380  6.158292 -3.025786
  S     6.569919  4.879312 -1.901509
  S     7.261907  9.091881 -6.227597
  S     4.461067  9.869378 -3.323429
  S     6.793168  8.869213 -2.091098
