16  
    
  C     5.186465  6.363542 -4.274374
  C     6.336219  5.798521 -3.665644
  C     5.878694  9.586426 -4.133440
  C     7.090498  9.034589 -3.606881
  N     7.361055  5.555253 -4.467775
  N     5.349586  6.531494 -5.571976
  N     4.411159  5.913830 -1.910947
  N     8.051310  8.748601 -4.528760
  N     5.900437  9.770784 -5.475977
  N     5.429862  9.652380 -1.618661
  S     6.899603  6.001001 -6.017600
  S     3.804476  6.707455 -3.230173
  S     6.030808  5.451486 -1.952921
  S     7.359788  9.204455 -5.992635
  S     4.560945  9.887518 -3.068557
  S     6.931772  8.895130 -1.818764
