16  
    
  C     5.638108  6.195924 -4.359076
  C     6.776808  5.446948 -3.755663
  C     5.583716  9.583335 -4.256289
  C     6.889022  9.193435 -3.676162
  N     7.787375  5.241795 -4.618797
  N     5.793878  6.461102 -5.674598
  N     5.030349  5.794324 -1.872231
  N     7.847726  8.990961 -4.537825
  N     5.639512  9.727169 -5.552079
  N     5.142007  9.301966 -1.743313
  S     7.225117  5.847371 -6.065805
  S     4.286436  6.358731 -3.246746
  S     6.523595  5.141633 -2.093907
  S     7.168341  9.341175 -6.050844
  S     4.344958  9.693665 -3.090945
  S     6.737940  8.878574 -1.968978
