16  
    
  C     5.684466  5.670522 -4.129891
  C     6.859973  5.231488 -3.378329
  C     5.496966  9.489926 -4.073017
  C     6.672377  8.964354 -3.433448
  N     7.904050  5.030620 -4.181063
  N     5.859658  5.907902 -5.441569
  N     4.888860  5.524543 -1.714956
  N     7.672104  8.583893 -4.187648
  N     5.708130  9.680100 -5.366075
  N     4.818071  8.976694 -1.618390
  S     7.405356  5.301300 -5.715656
  S     4.281279  6.000878 -3.172488
  S     6.468808  5.074583 -1.738244
  S     7.244770  9.094490 -5.738658
  S     4.089431  9.598320 -3.039436
  S     6.436995  8.571765 -1.756614
