16  
    
  C     5.453811  5.606116 -4.371180
  C     6.669875  5.126605 -3.789918
  C     5.712800  9.088280 -4.371125
  C     6.943527  8.792322 -3.656714
  N     7.664496  5.037444 -4.678460
  N     5.495733  5.875334 -5.652046
  N     5.100322  5.689186 -1.841516
  N     8.019201  8.579774 -4.455019
  N     5.900618  9.093406 -5.682651
  N     5.121809  9.248335 -1.820691
  S     7.002660  5.463485 -6.151999
  S     4.277530  6.169925 -3.222039
  S     6.626080  5.009900 -2.057906
  S     7.527521  8.848171 -5.979176
  S     4.361934  9.499515 -3.300137
  S     6.712733  8.756667 -1.931079
