16  
    
  C     5.308967  6.356661 -4.410057
  C     6.577705  6.088294 -3.770906
  C     5.453490  9.716318 -4.407951
  C     6.707831  9.374951 -3.779447
  N     7.634537  5.949345 -4.614221
  N     5.450613  6.462053 -5.758853
  N     4.780031  6.149631 -1.965391
  N     7.783178  9.351332 -4.559695
  N     5.551279  9.945810 -5.722549
  N     5.006965  9.358142 -1.822641
  S     7.080316  6.188389 -6.091947
  S     3.931240  6.481024 -3.375134
  S     6.385040  5.824981 -2.044159
  S     7.216245  9.632678 -6.086597
  S     4.199645  9.732046 -3.206137
  S     6.733308  9.062360 -2.038289
