16  
    
  C     5.590373  5.648509 -4.256817
  C     6.685715  5.065452 -3.605310
  C     5.468997  9.275183 -4.190233
  C     6.683369  8.849296 -3.518124
  N     7.732960  5.013110 -4.441656
  N     5.631810  5.822909 -5.583523
  N     4.962988  5.575341 -1.741133
  N     7.739065  8.782739 -4.310569
  N     5.607359  9.331790 -5.521182
  N     4.912071  9.110429 -1.650729
  S     7.176461  5.321749 -5.940630
  S     4.306289  6.109268 -3.185410
  S     6.386557  4.821957 -1.888299
  S     7.235484  9.141384 -5.802380
  S     4.120581  9.446935 -3.133061
  S     6.483889  8.569677 -1.774273
