16  
    
  C     5.781485  5.498110 -4.286147
  C     7.099439  5.208996 -3.690929
  C     5.480256  9.343273 -4.388245
  C     6.644422  8.775345 -3.745177
  N     8.113403  5.174660 -4.520771
  N     5.838132  5.738259 -5.570929
  N     5.322723  5.199691 -1.776529
  N     7.578665  8.354974 -4.587868
  N     5.570728  9.470990 -5.726733
  N     4.887460  9.469876 -1.895342
  S     7.405892  5.396020 -6.040337
  S     4.516961  5.565561 -3.156849
  S     6.925206  4.939959 -2.011301
  S     7.109666  8.802697 -6.125004
  S     4.143907  9.748850 -3.380763
  S     6.359041  8.715443 -2.023289
