16  
    
  C     5.416170  5.537837 -4.300522
  C     6.647724  5.058695 -3.683940
  C     5.722655  9.351627 -4.217207
  C     6.833206  8.588683 -3.704986
  N     7.654572  4.834732 -4.523680
  N     5.512015  5.663764 -5.616469
  N     4.852595  5.307360 -1.886364
  N     7.799287  8.312644 -4.578161
  N     5.844345  9.671627 -5.490035
  N     4.972923  8.742791 -1.837425
  S     7.072869  5.294804 -6.026640
  S     3.979950  5.418439 -3.287685
  S     6.471255  4.723802 -2.004598
  S     7.256252  8.926228 -6.013774
  S     4.330324  9.538275 -3.236220
  S     6.546686  8.280099 -2.014829
