16  
    
  C     5.494379  6.016167 -4.379433
  C     6.672780  5.430003 -3.659568
  C     5.659887  9.532681 -4.260720
  C     6.863813  9.058025 -3.622724
  N     7.735131  5.346228 -4.422389
  N     5.759710  6.275026 -5.635055
  N     4.765418  5.658575 -1.940939
  N     7.877211  8.873440 -4.496837
  N     5.721571  9.685815 -5.605017
  N     5.236716  9.448143 -1.700152
  S     7.345027  5.784081 -5.964777
  S     4.233539  6.432840 -3.294302
  S     6.338984  5.098926 -2.013903
  S     7.290849  9.339108 -6.016990
  S     4.464755  9.847208 -3.088223
  S     6.708789  8.858834 -1.888733
