16  
    
  C     5.807656  5.529560 -4.231083
  C     6.970880  5.056324 -3.511397
  C     5.672528  9.607566 -4.377002
  C     6.808816  8.980989 -3.750974
  N     8.070458  4.844429 -4.215302
  N     6.014162  5.478779 -5.548184
  N     5.139668  5.244900 -1.753645
  N     7.872658  8.980257 -4.556758
  N     5.859346  9.987203 -5.644851
  N     5.020024  9.038531 -1.962342
  S     7.663293  5.185043 -5.751124
  S     4.451502  5.739476 -3.219156
  S     6.667263  4.719430 -1.797955
  S     7.415259  9.527311 -6.015301
  S     4.265840  9.699071 -3.337332
  S     6.612784  8.582033 -2.076477
