16  
    
  C     5.548107  5.918695 -4.441502
  C     6.821480  5.651898 -3.804338
  C     5.738408  9.476110 -4.359898
  C     7.032824  9.131612 -3.729150
  N     7.862935  5.570020 -4.662688
  N     5.660015  6.081827 -5.717641
  N     4.998797  5.456210 -1.964868
  N     8.125727  9.022791 -4.495655
  N     5.875927  9.563499 -5.704156
  N     5.339865  9.378142 -1.803606
  S     7.253532  5.815168 -6.101942
  S     4.223575  6.047623 -3.341296
  S     6.621509  5.251528 -2.113059
  S     7.502056  9.329019 -6.061498
  S     4.433735  9.525975 -3.237848
  S     6.909870  8.971915 -1.970117
