16  
    
  C     5.661647  5.737461 -4.218095
  C     6.883394  5.297146 -3.612768
  C     5.705510  9.642196 -4.374578
  C     6.936746  9.126658 -3.768610
  N     7.888895  5.257098 -4.479813
  N     5.774203  5.952003 -5.527517
  N     5.208664  5.392322 -1.722784
  N     7.870880  8.914893 -4.640517
  N     5.800985  9.967002 -5.661634
  N     5.111357  8.956461 -1.989680
  S     7.333529  5.668706 -5.953228
  S     4.385568  5.670982 -3.120048
  S     6.786364  5.089916 -1.909766
  S     7.329866  9.406925 -6.112070
  S     4.342154  9.617714 -3.294660
  S     6.762332  8.811067 -2.025158
