16  
    
  C     5.616665  5.620793 -4.430851
  C     6.880049  5.256121 -3.786904
  C     5.747382  9.549340 -4.001943
  C     6.949076  8.976633 -3.443805
  N     7.926545  5.178511 -4.602456
  N     5.723072  5.803576 -5.717064
  N     5.126946  5.485433 -1.917083
  N     7.931448  8.838702 -4.338411
  N     5.795350  9.862907 -5.295295
  N     5.315241  8.790318 -1.525408
  S     7.301697  5.551710 -6.149197
  S     4.296048  5.881763 -3.311203
  S     6.810415  5.206828 -2.016853
  S     7.385740  9.395999 -5.803466
  S     4.536291  9.625211 -2.727439
  S     6.898717  8.457129 -1.798588
