16  
    
  C     5.107271  6.301506 -4.515411
  C     6.380366  5.979243 -3.912695
  C     5.365908  9.644083 -4.234152
  C     6.648625  9.279471 -3.656679
  N     7.446394  5.943941 -4.706502
  N     5.208830  6.530756 -5.840107
  N     4.592527  5.981159 -2.001247
  N     7.628477  9.307194 -4.504092
  N     5.424149  9.970262 -5.497788
  N     5.087279  9.248946 -1.703446
  S     6.791143  6.367469 -6.238684
  S     3.762973  6.366690 -3.420667
  S     6.242395  5.814815 -2.191828
  S     7.011834  9.680129 -5.983190
  S     4.153509  9.527334 -3.002450
  S     6.682274  8.958547 -1.942525
