16  
    
  C     5.338096  5.172932 -3.896012
  C     6.604292  4.920898 -3.202714
  C     5.389391  9.395406 -4.136327
  C     6.586697  8.936678 -3.480249
  N     7.674053  4.902013 -3.993573
  N     5.535160  5.422398 -5.197201
  N     4.751479  5.165410 -1.402577
  N     7.602783  8.675149 -4.292923
  N     5.553401  9.577698 -5.431460
  N     4.649927  9.071743 -1.733013
  S     7.135743  5.141633 -5.520150
  S     3.976665  5.234387 -2.853263
  S     6.351117  4.819422 -1.529714
  S     7.000226  9.107508 -5.795349
  S     4.013477  9.660659 -3.158646
  S     6.287361  8.781048 -1.763620
