16  
    
  C     5.487970  6.144804 -4.417225
  C     6.694613  5.736344 -3.727042
  C     5.447324  9.670729 -4.317787
  C     6.683123  9.313680 -3.667681
  N     7.738184  5.487600 -4.524978
  N     5.600801  6.261534 -5.757042
  N     4.819698  5.976671 -1.856951
  N     7.729018  9.193469 -4.450632
  N     5.590472  9.848777 -5.638156
  N     4.869152  9.360471 -1.773410
  S     7.115313  5.769870 -6.079892
  S     4.134161  6.470667 -3.258727
  S     6.454013  5.609608 -1.972185
  S     7.199796  9.613827 -5.974972
  S     4.087415  9.566229 -3.177141
  S     6.534119  9.022046 -2.034720
