16  
    
  C     5.634855  5.834572 -3.921165
  C     6.858194  5.202443 -3.456115
  C     5.666662  9.597843 -3.934891
  C     6.888370  9.071714 -3.426907
  N     7.884340  5.204630 -4.294025
  N     5.814912  6.379335 -5.117660
  N     5.090722  4.932043 -1.535251
  N     7.821882  8.912949 -4.369514
  N     5.676695  9.864733 -5.254464
  N     5.031790  8.917416 -1.569224
  S     7.340457  5.885594 -5.658533
  S     4.365439  5.852347 -2.723876
  S     6.674300  4.568380 -1.882465
  S     7.196994  9.455430 -5.777956
  S     4.321476  9.705205 -2.845938
  S     6.654489  8.514994 -1.775483
