16  
    
  C     5.507022  5.979254 -4.461677
  C     6.644688  5.423701 -3.764830
  C     5.698517  9.501159 -4.236470
  C     6.917834  9.124391 -3.547066
  N     7.708279  5.075282 -4.538896
  N     5.643924  6.092147 -5.794550
  N     4.865687  5.873911 -1.955770
  N     7.956459  9.117253 -4.349965
  N     5.777411  9.617008 -5.558449
  N     5.161748  9.467963 -1.726803
  S     7.152733  5.452883 -6.054554
  S     4.192085  6.413525 -3.388542
  S     6.487643  5.428527 -2.035429
  S     7.420966  9.273550 -5.919131
  S     4.363100  9.795535 -3.138329
  S     6.734133  8.975703 -1.803206
