16  
    
  C     5.496716  5.198123 -4.273682
  C     6.865322  5.208174 -3.742947
  C     5.526629  9.249139 -4.514040
  C     6.690038  8.900122 -3.749193
  N     7.826019  5.082255 -4.665496
  N     5.450328  5.096674 -5.586031
  N     5.258678  5.213479 -1.663771
  N     7.748552  8.741982 -4.542328
  N     5.708949  9.385172 -5.834475
  N     4.749444  9.145916 -2.061714
  S     7.076985  5.070385 -6.092072
  S     4.354581  5.357006 -3.057201
  S     6.870527  4.980275 -1.972950
  S     7.275288  8.928662 -6.116368
  S     4.101573  9.617213 -3.550810
  S     6.346991  8.656625 -2.057516
