16  
    
  C     5.509012  5.931770 -4.514000
  C     6.822537  5.635997 -3.834472
  C     5.425189  9.514857 -4.329590
  C     6.669280  9.050971 -3.750984
  N     7.842528  5.389287 -4.665854
  N     5.597747  5.970714 -5.849152
  N     5.017764  5.778239 -1.954288
  N     7.671895  8.841567 -4.638012
  N     5.440830  9.707336 -5.625999
  N     4.980861  9.441354 -1.821761
  S     7.194105  5.655452 -6.159067
  S     4.162786  5.914135 -3.368350
  S     6.639970  5.470826 -2.118568
  S     6.941119  9.297442 -6.132724
  S     4.149120  9.863739 -3.247421
  S     6.600827  9.239838 -2.036927
