16  
    
  C     5.494054  5.738571 -4.421888
  C     6.659518  5.359424 -3.702881
  C     5.659217  9.042393 -4.127993
  C     6.945424  8.821128 -3.478273
  N     7.740158  5.031294 -4.441684
  N     5.590269  5.559443 -5.734840
  N     4.682877  5.542325 -1.950917
  N     7.944880  8.677024 -4.348018
  N     5.683371  8.983520 -5.454394
  N     5.201133  9.358809 -1.665840
  S     7.180334  5.222196 -6.020967
  S     4.087206  5.993581 -3.396551
  S     6.350329  5.312218 -1.986179
  S     7.209406  8.706128 -5.898901
  S     4.313608  9.306077 -3.082097
  S     6.846116  9.107157 -1.766203
