16  
    
  C     5.874023  5.464211 -4.065962
  C     7.147058  5.109095 -3.537968
  C     5.474159  9.348661 -4.324508
  C     6.579312  8.746025 -3.620375
  N     8.140153  5.134925 -4.454587
  N     5.881199  5.789472 -5.358932
  N     5.465114  5.208208 -1.548751
  N     7.600966  8.349548 -4.363311
  N     5.694098  9.389330 -5.627009
  N     4.710699  9.120665 -1.859338
  S     7.379807  5.437410 -5.896386
  S     4.606825  5.583393 -2.912195
  S     7.016873  4.909621 -1.819809
  S     7.148799  8.789058 -5.927862
  S     4.187145  9.878393 -3.229746
  S     6.264593  8.523532 -1.922810
