16  
    
  C     5.468689  5.266351 -4.218471
  C     6.743254  5.057345 -3.604061
  C     5.401703  9.238626 -4.463648
  C     6.570910  8.645929 -3.828205
  N     7.788712  4.928846 -4.410208
  N     5.524418  5.241089 -5.533448
  N     5.147672  5.276721 -1.626098
  N     7.592586  8.418506 -4.650942
  N     5.514409  9.434783 -5.776277
  N     4.859877  9.090118 -1.944184
  S     7.133178  5.151357 -5.951845
  S     4.229477  5.086167 -2.991362
  S     6.754796  5.093601 -1.868823
  S     7.011945  8.851765 -6.226698
  S     4.084688  9.545615 -3.383820
  S     6.459704  8.701835 -2.082208
