16  
    
  C     5.606453  5.786735 -4.293052
  C     6.644765  5.043057 -3.688580
  C     5.456774  9.240338 -4.177728
  C     6.612645  8.672505 -3.521909
  N     7.714924  4.756404 -4.444429
  N     5.821895  5.985227 -5.595866
  N     5.050717  5.552800 -1.760608
  N     7.607031  8.514680 -4.378012
  N     5.560732  9.352428 -5.503125
  N     4.788628  8.971637 -1.693000
  S     7.312901  5.243499 -5.921705
  S     4.336457  6.106992 -3.180782
  S     6.552979  4.938210 -1.920111
  S     7.085294  8.896906 -5.894247
  S     4.093587  9.520055 -3.136382
  S     6.415235  8.550849 -1.787755
