16  
    
  C     5.150178  6.305509 -4.342476
  C     6.255232  5.730153 -3.649407
  C     5.814518  9.611981 -4.204960
  C     6.973990  9.073680 -3.550960
  N     7.373831  5.459790 -4.349693
  N     5.338379  6.482036 -5.658269
  N     4.424185  6.066855 -1.870554
  N     7.968524  8.901265 -4.420397
  N     5.868122  9.762933 -5.543889
  N     5.447220  9.552342 -1.663719
  S     6.858062  5.971976 -5.879290
  S     3.879190  6.725604 -3.281227
  S     5.911946  5.375324 -1.943898
  S     7.391908  9.225900 -5.987790
  S     4.594248  9.947670 -3.013200
  S     6.900854  8.859917 -1.857442
