16  
    
  C     5.482339  5.740528 -4.355680
  C     6.727613  5.253050 -3.825467
  C     5.702745  9.121170 -4.421988
  C     6.894684  8.780122 -3.682513
  N     7.694887  4.981249 -4.703560
  N     5.464466  5.850532 -5.682698
  N     5.080470  5.601800 -1.806435
  N     7.992923  8.605881 -4.421886
  N     5.903016  9.228202 -5.741144
  N     5.116354  9.171915 -1.889170
  S     7.006717  5.458828 -6.173384
  S     4.331117  6.170313 -3.139540
  S     6.562924  4.974116 -2.092602
  S     7.510538  8.854209 -6.030789
  S     4.313120  9.462210 -3.280653
  S     6.725278  8.730132 -1.997894
