16  
    
  C     5.458314  5.250748 -4.218801
  C     6.722671  5.049038 -3.618346
  C     5.411406  9.230092 -4.485448
  C     6.569608  8.634038 -3.824069
  N     7.795498  4.950575 -4.411157
  N     5.525843  5.236582 -5.541851
  N     5.157683  5.276758 -1.625573
  N     7.590208  8.419898 -4.653785
  N     5.513581  9.429713 -5.792552
  N     4.846904  9.087643 -1.940671
  S     7.120062  5.148833 -5.966915
  S     4.246717  5.094011 -2.992708
  S     6.760780  5.093806 -1.868626
  S     7.030287  8.859866 -6.225689
  S     4.077810  9.545164 -3.388388
  S     6.459129  8.712129 -2.080664
