16  
    
  C     5.757291  5.635631 -4.270681
  C     6.965552  5.151768 -3.618461
  C     5.469252  9.425101 -4.497366
  C     6.623974  8.856279 -3.841864
  N     8.003312  5.047177 -4.463742
  N     5.907130  5.813761 -5.574309
  N     5.173440  5.380508 -1.789598
  N     7.633952  8.581340 -4.659072
  N     5.661633  9.633958 -5.792614
  N     4.790470  9.209650 -1.980546
  S     7.435457  5.336756 -6.020341
  S     4.453442  5.982765 -3.145815
  S     6.768687  4.941131 -1.944347
  S     7.241019  9.050869 -6.148212
  S     4.112380  9.617349 -3.457065
  S     6.347285  8.580297 -2.089833
