16  
    
  C     5.661274  5.707538 -4.383940
  C     6.906691  5.377217 -3.795215
  C     5.755728  9.702515 -4.273724
  C     7.005694  9.258736 -3.749754
  N     7.927895  5.336523 -4.624318
  N     5.669413  5.899668 -5.698818
  N     5.278566  5.599534 -1.837400
  N     7.966382  9.210431 -4.699774
  N     5.723054  9.969682 -5.573597
  N     5.257135  8.898161 -1.815736
  S     7.249284  5.561259 -6.163790
  S     4.383901  5.937786 -3.172858
  S     6.856797  5.108191 -2.047435
  S     7.283530  9.591489 -6.132447
  S     4.460670  9.484971 -3.150417
  S     6.928435  8.722497 -2.035302
