16  
    
  C     5.547336  6.150060 -4.367442
  C     6.753840  5.522110 -3.746178
  C     5.556829  9.642475 -4.292112
  C     6.811715  9.114518 -3.690286
  N     7.677776  5.291764 -4.676142
  N     5.732835  6.500291 -5.641231
  N     5.043570  5.745479 -1.880827
  N     7.758068  8.951716 -4.583204
  N     5.613108  9.824189 -5.588064
  N     5.117169  9.321433 -1.696685
  S     7.233681  5.830187 -6.166674
  S     4.283367  6.336245 -3.231282
  S     6.661401  5.206832 -2.065879
  S     7.152200  9.413146 -6.071404
  S     4.293495  9.646499 -3.133353
  S     6.720559  8.915883 -1.887830
