16  
    
  C     5.524163  5.899199 -4.385776
  C     6.749278  5.316000 -3.880108
  C     5.461352  9.882131 -4.596660
  C     6.657724  9.218532 -4.065292
  N     7.757747  5.197139 -4.772247
  N     5.529294  6.049143 -5.677886
  N     5.145156  5.570322 -1.840594
  N     7.535482  8.860269 -4.974471
  N     5.537644 10.077651 -5.893841
  N     5.089600  9.822287 -2.083757
  S     7.018110  5.672751 -6.291978
  S     4.294381  6.119913 -3.185095
  S     6.716243  5.004443 -2.155656
  S     6.898133  9.310042 -6.485325
  S     4.255007 10.357447 -3.486109
  S     6.499171  9.065436 -2.303331
