16  
    
  C     5.383219  5.569551 -4.413955
  C     6.576703  5.207022 -3.674786
  C     5.477792  9.024286 -4.202061
  C     6.773769  8.893052 -3.584885
  N     7.634317  4.900284 -4.394049
  N     5.580924  5.629862 -5.718158
  N     4.705310  5.728161 -1.970143
  N     7.773739  8.746833 -4.428336
  N     5.508092  8.976566 -5.547645
  N     5.114932  9.153532 -1.701938
  S     7.174916  5.306324 -5.963448
  S     4.003721  5.856545 -3.484777
  S     6.206297  5.082531 -1.979792
  S     7.145559  8.696018 -5.909962
  S     4.177379  9.371215 -3.070518
  S     6.733515  8.884946 -1.880463
