16  
    
  C     5.539771  5.973836 -4.479002
  C     6.795465  5.609558 -3.904020
  C     5.788277  9.413593 -4.243051
  C     7.059641  9.142560 -3.643325
  N     7.833335  5.598997 -4.753101
  N     5.613159  6.214708 -5.801822
  N     5.009322  5.586524 -1.987329
  N     8.111706  9.110184 -4.507719
  N     5.845481  9.561197 -5.559593
  N     5.334954  9.263472 -1.714156
  S     7.160698  6.016174 -6.301970
  S     4.204475  5.971333 -3.416902
  S     6.619639  5.301190 -2.139132
  S     7.417144  9.274518 -6.024484
  S     4.515359  9.545904 -3.132424
  S     6.912044  8.804866 -1.913656
