16  
    
  C     5.540426  5.943890 -4.471643
  C     6.630214  5.451217 -3.696676
  C     5.808304  9.308998 -4.279219
  C     7.046182  8.985898 -3.616655
  N     7.744212  5.234534 -4.356437
  N     5.845742  6.125219 -5.751846
  N     4.681520  5.590320 -2.050091
  N     8.085609  9.057372 -4.482276
  N     5.851287  9.556509 -5.593318
  N     5.135928  8.987005 -1.800625
  S     7.388294  5.543292 -5.919389
  S     4.071082  6.013854 -3.510762
  S     6.310626  5.296516 -1.956746
  S     7.463512  9.470318 -5.976157
  S     4.432464  9.428330 -3.227938
  S     6.828843  8.814161 -1.878004
