16  
    
  C     5.557841  5.785465 -4.332480
  C     6.763961  5.500758 -3.592926
  C     5.687070  9.302774 -4.297443
  C     6.963900  9.153328 -3.595972
  N     7.867019  5.218484 -4.334195
  N     5.743444  5.761411 -5.664647
  N     4.815691  5.662858 -1.895853
  N     8.055021  9.250757 -4.308011
  N     5.789254  9.455721 -5.624324
  N     5.187696  8.974359 -1.783042
  S     7.371734  5.396519 -5.935784
  S     4.091771  5.838952 -3.409634
  S     6.454372  5.383922 -1.902273
  S     7.462874  9.462056 -5.913813
  S     4.338541  9.346201 -3.134869
  S     6.861824  8.749856 -1.942022
