16  
    
  C     5.403255  5.473319 -4.201864
  C     6.572968  5.027638 -3.472621
  C     5.703125  8.964562 -4.005721
  C     6.951996  8.523440 -3.386100
  N     7.705852  4.792349 -4.196438
  N     5.616515  5.577506 -5.519686
  N     4.707956  5.460944 -1.740312
  N     7.976135  8.376175 -4.198554
  N     5.726725  9.058744 -5.316713
  N     5.371214  8.924993 -1.441426
  S     7.225336  5.222668 -5.769768
  S     3.997133  5.830172 -3.210369
  S     6.375775  5.202288 -1.733069
  S     7.327656  8.701180 -5.753182
  S     4.424110  9.107385 -2.804328
  S     6.833667  8.232216 -1.704419
