16  
    
  C     5.284545  5.708674 -4.302334
  C     6.477468  5.354164 -3.664905
  C     5.391670  9.467726 -4.194814
  C     6.592632  8.931159 -3.595682
  N     7.481302  5.226195 -4.524007
  N     5.361470  5.948829 -5.610870
  N     4.768912  5.639276 -1.741331
  N     7.576760  8.604468 -4.445897
  N     5.466245  9.549850 -5.490931
  N     4.905180  9.295866 -1.601097
  S     6.887124  5.495695 -6.031908
  S     4.020668  6.035182 -3.189100
  S     6.351027  5.235843 -1.940787
  S     6.974293  9.009882 -5.980646
  S     4.133848  9.607434 -3.039982
  S     6.545542  8.833729 -1.793922
