16  
    
  C     5.445080  5.751813 -4.138267
  C     6.575113  5.103010 -3.593793
  C     5.573624  9.470808 -4.169117
  C     6.762660  8.911163 -3.548455
  N     7.580827  4.837240 -4.394894
  N     5.570730  6.012031 -5.445904
  N     4.825690  5.282458 -1.714724
  N     7.785919  8.714683 -4.373929
  N     5.673702  9.742286 -5.462809
  N     4.973840  9.048879 -1.664308
  S     7.110854  5.485428 -5.885331
  S     4.117410  5.939295 -3.009113
  S     6.452068  4.877298 -1.867460
  S     7.251214  9.292033 -5.859667
  S     4.222853  9.478178 -3.077699
  S     6.636478  8.747496 -1.812569
