16  
    
  C     5.542559  5.915232 -4.436520
  C     6.827350  5.647569 -3.788021
  C     5.737882  9.485731 -4.367707
  C     7.049297  9.133276 -3.731261
  N     7.847090  5.561474 -4.650050
  N     5.670641  6.068612 -5.719371
  N     5.008029  5.450152 -1.957245
  N     8.113054  9.000967 -4.494166
  N     5.879438  9.559345 -5.708512
  N     5.326469  9.380460 -1.826318
  S     7.264013  5.799223 -6.082888
  S     4.216413  6.060512 -3.334526
  S     6.627442  5.249162 -2.105685
  S     7.509516  9.338470 -6.061818
  S     4.413789  9.525081 -3.253703
  S     6.915240  8.989479 -1.978297
