16  
    
  C     5.335350  6.005039 -4.432483
  C     6.539053  5.583868 -3.750514
  C     5.349100  9.683230 -4.228799
  C     6.644554  9.278097 -3.603506
  N     7.608164  5.474291 -4.523109
  N     5.550801  6.253683 -5.717577
  N     4.693428  5.733713 -1.969814
  N     7.643594  9.083294 -4.470197
  N     5.451029  9.780995 -5.530133
  N     4.807472  9.357888 -1.767360
  S     7.145681  5.834837 -6.052951
  S     3.944450  6.068972 -3.438329
  S     6.317694  5.417296 -2.073689
  S     7.022567  9.469512 -5.936979
  S     3.958044  9.744405 -3.178777
  S     6.443125  9.078302 -1.832196
