16  
    
  C     5.407602  5.931273 -4.307122
  C     6.636903  5.445704 -3.688370
  C     5.366089  9.380480 -4.386637
  C     6.654154  9.057343 -3.821557
  N     7.684208  5.372688 -4.524575
  N     5.462338  6.183872 -5.624636
  N     4.887793  5.558605 -1.814896
  N     7.680043  8.832877 -4.690311
  N     5.495742  9.548990 -5.690609
  N     4.978295  9.647307 -1.858242
  S     7.026160  5.792305 -5.999127
  S     4.031572  6.065722 -3.160930
  S     6.498233  5.362119 -1.971061
  S     6.998166  9.243076 -6.186661
  S     4.083591  9.663536 -3.279427
  S     6.609571  9.225790 -2.050579
