16  
    
  C     5.430379  6.017989 -4.164949
  C     6.667707  5.544626 -3.606551
  C     5.633773  9.633095 -4.494419
  C     6.741356  9.045184 -3.779062
  N     7.641485  5.325346 -4.483971
  N     5.466036  6.228522 -5.485549
  N     4.996249  5.673359 -1.631268
  N     7.908438  8.943781 -4.431275
  N     6.011491  9.888003 -5.743767
  N     4.837783  9.314577 -2.102566
  S     7.016084  5.772704 -5.943988
  S     4.195060  6.347642 -2.972873
  S     6.583990  5.229891 -1.923245
  S     7.560280  9.501389 -5.965765
  S     4.189982  9.941424 -3.466074
  S     6.457733  8.899323 -2.089278
