16  
    
  C     5.461447  5.829862 -4.381737
  C     6.738996  5.406125 -3.790676
  C     5.365024  9.726223 -4.575719
  C     6.604439  9.291210 -3.943063
  N     7.640629  5.177907 -4.722516
  N     5.531691  5.980020 -5.685208
  N     5.037957  5.694135 -1.860353
  N     7.613844  8.884035 -4.708341
  N     5.518797  9.773859 -5.905545
  N     4.843504  9.382988 -2.131340
  S     7.010923  5.476294 -6.197890
  S     4.169159  6.022911 -3.251133
  S     6.635698  5.309148 -2.122082
  S     7.079962  9.201847 -6.236048
  S     4.025056  9.753014 -3.551238
  S     6.485853  9.191598 -2.194309
