16  
    
  C     5.556332  5.904655 -4.497660
  C     6.740645  5.335323 -3.786155
  C     5.576130  9.755375 -4.211005
  C     6.830749  9.255873 -3.656008
  N     7.825781  5.240623 -4.578998
  N     5.747239  6.010925 -5.799278
  N     4.882722  5.623017 -2.060757
  N     7.749771  9.038229 -4.587542
  N     5.574970  9.949225 -5.532771
  N     5.039098  9.232262 -1.754073
  S     7.304015  5.622759 -6.193427
  S     4.215289  6.204705 -3.425880
  S     6.491835  5.090881 -2.104510
  S     7.151878  9.645113 -6.038849
  S     4.233515  9.885742 -3.036642
  S     6.655125  8.750630 -2.015743
