16  
    
  C     5.636121  5.864428 -3.935752
  C     6.858897  5.290089 -3.353725
  C     5.561994  9.494939 -3.997797
  C     6.745862  8.970120 -3.373333
  N     7.885142  5.204095 -4.213913
  N     5.815219  6.174602 -5.209581
  N     5.084733  5.141152 -1.565227
  N     7.787067  8.889282 -4.195973
  N     5.690301  9.778599 -5.309239
  N     5.030438  9.035137 -1.468930
  S     7.347081  5.902652 -5.672102
  S     4.312932  5.895657 -2.860078
  S     6.636128  4.601667 -1.747923
  S     7.241927  9.327501 -5.691367
  S     4.266161  9.728196 -2.799269
  S     6.601956  8.526738 -1.703846
