16  
    
  C     5.559346  5.790508 -4.334400
  C     6.762637  5.503664 -3.599046
  C     5.689136  9.297662 -4.296297
  C     6.965044  9.148211 -3.595818
  N     7.867993  5.221294 -4.329344
  N     5.747174  5.781276 -5.660910
  N     4.810652  5.658976 -1.899221
  N     8.060245  9.244893 -4.310017
  N     5.792887  9.456095 -5.623309
  N     5.189398  8.974208 -1.783715
  S     7.374354  5.396157 -5.939601
  S     4.079000  5.844071 -3.416027
  S     6.453461  5.380160 -1.903589
  S     7.463224  9.464093 -5.916187
  S     4.342049  9.351320 -3.135836
  S     6.858689  8.751864 -1.943131
