16  
    
  C     5.449494  6.118039 -4.399982
  C     6.632504  5.715438 -3.605037
  C     5.580249  9.559671 -4.207138
  C     6.810370  9.064991 -3.509517
  N     7.701128  5.517942 -4.359873
  N     5.707311  6.118702 -5.709542
  N     4.682600  6.110456 -1.921660
  N     7.889120  8.897025 -4.297579
  N     5.783940  9.730451 -5.491637
  N     4.778040  9.416049 -1.819780
  S     7.271802  5.749486 -5.980570
  S     4.078188  6.451276 -3.406763
  S     6.248030  5.599840 -1.895934
  S     7.309377  9.225691 -5.828036
  S     4.201513  9.944566 -3.291310
  S     6.446228  9.024258 -1.724993
