16  
    
  C     5.411217  6.072927 -4.395976
  C     6.566187  5.594421 -3.703731
  C     5.687425  9.660346 -4.440129
  C     6.801631  9.107576 -3.718749
  N     7.655007  5.494859 -4.490205
  N     5.535230  6.098434 -5.725883
  N     4.822568  5.943873 -1.825762
  N     7.819830  8.846545 -4.489758
  N     5.885763  9.905971 -5.742881
  N     5.016814  9.435254 -1.938318
  S     7.112577  5.777111 -6.100295
  S     4.102067  6.391652 -3.277658
  S     6.362354  5.374597 -2.061533
  S     7.404172  9.304575 -5.986321
  S     4.336362  9.938683 -3.280856
  S     6.598516  8.867715 -2.019234
