16  
    
  C     5.559685  6.152736 -4.349155
  C     6.807821  5.527401 -3.793672
  C     5.505944  9.565870 -4.271486
  C     6.775213  9.078709 -3.686347
  N     7.789743  5.302982 -4.706538
  N     5.606763  6.289257 -5.677374
  N     5.043970  5.646984 -1.891350
  N     7.751181  8.931806 -4.560516
  N     5.632700  9.924650 -5.507709
  N     5.111936  9.408234 -1.749751
  S     7.132854  5.884093 -6.139487
  S     4.303274  6.327572 -3.220119
  S     6.644310  5.355171 -2.095980
  S     7.146410  9.460463 -5.987195
  S     4.167761  9.679736 -3.122621
  S     6.699499  8.957452 -2.014998
