16  
    
  C     5.106308  6.015236 -4.298702
  C     6.324088  5.743442 -3.590259
  C     5.583534  9.582268 -4.069292
  C     6.762277  9.015376 -3.441497
  N     7.356959  5.568389 -4.390886
  N     5.286673  6.098985 -5.603073
  N     4.459100  5.817043 -1.836417
  N     7.722164  8.730815 -4.352152
  N     5.580201  9.585564 -5.437081
  N     5.231672  9.532361 -1.449546
  S     6.875211  5.669116 -5.935501
  S     3.816420  6.445936 -3.237292
  S     6.104271  5.590468 -1.875389
  S     7.103933  9.004366 -5.851947
  S     4.368915  9.984091 -2.868734
  S     6.705527  8.774676 -1.693770
