16  
    
  C     5.364165  6.272754 -4.323897
  C     6.429291  5.671124 -3.618022
  C     5.514322  9.712148 -4.263594
  C     6.616713  9.197466 -3.545176
  N     7.488193  5.394703 -4.344300
  N     5.572901  6.355478 -5.643256
  N     4.626322  5.922057 -1.944598
  N     7.673381  8.800230 -4.290883
  N     5.684718  9.804784 -5.608120
  N     4.946342  9.668629 -1.689898
  S     7.053911  5.739968 -5.923699
  S     3.931871  6.556611 -3.330306
  S     6.235584  5.565422 -1.885286
  S     7.280192  9.279376 -5.811558
  S     4.214031 10.013209 -3.113829
  S     6.449940  8.943053 -1.806415
