16  
    
  C     5.838347  5.749800 -4.357245
  C     6.919347  5.116884 -3.710492
  C     5.666730  9.506781 -4.268169
  C     6.876002  8.994916 -3.654492
  N     8.006794  4.923650 -4.462484
  N     6.105232  6.008443 -5.621847
  N     5.099312  5.296077 -1.930121
  N     7.913134  8.999434 -4.458424
  N     5.803965  9.876095 -5.551217
  N     5.048407  8.888323 -1.842803
  S     7.689924  5.589621 -5.934265
  S     4.395810  5.799399 -3.396999
  S     6.622698  4.728934 -2.037390
  S     7.332749  9.539536 -5.995330
  S     4.227784  9.449117 -3.238382
  S     6.559935  8.252337 -2.119075
