16  
    
  C     5.568212  5.846371 -4.097853
  C     6.758425  5.372651 -3.462174
  C     5.440534  8.915088 -4.101334
  C     6.721986  8.640049 -3.477494
  N     7.753102  5.118603 -4.291181
  N     5.516418  5.868284 -5.414005
  N     5.014509  5.529046 -1.586642
  N     7.759852  8.458344 -4.272436
  N     5.478317  8.869051 -5.449560
  N     5.107831  9.035197 -1.536406
  S     7.094780  5.474003 -5.804663
  S     4.276323  5.980916 -2.965001
  S     6.540844  4.892532 -1.806287
  S     7.115094  8.584931 -5.864930
  S     4.208646  9.059921 -2.930993
  S     6.753226  8.706716 -1.736740
