16  
    
  C     5.573981  6.126457 -4.385733
  C     6.767270  5.671819 -3.689637
  C     5.414094  9.607124 -4.226496
  C     6.681497  9.273464 -3.632731
  N     7.807876  5.304628 -4.448037
  N     5.804880  6.304525 -5.674073
  N     4.819886  5.834570 -1.970862
  N     7.700299  9.312327 -4.484854
  N     5.491524  9.878106 -5.531761
  N     4.914381  9.530768 -1.713624
  S     7.349328  5.775531 -5.964157
  S     4.125582  6.366409 -3.381097
  S     6.501729  5.587703 -1.922660
  S     7.020631  9.660604 -5.995401
  S     4.050770  9.617710 -3.176729
  S     6.483162  9.042011 -1.934381
