16  
    
  C     5.545317  5.723046 -4.409488
  C     6.670299  5.177698 -3.732170
  C     5.708002  9.472524 -4.250063
  C     6.867573  8.992501 -3.552864
  N     7.738180  5.055205 -4.519774
  N     5.743346  5.918306 -5.685230
  N     4.814125  5.444092 -1.984541
  N     7.880680  8.772616 -4.370432
  N     5.809813  9.599784 -5.584858
  N     5.104382  9.254592 -1.716095
  S     7.285366  5.394789 -6.102446
  S     4.265396  6.261553 -3.345315
  S     6.397376  4.973725 -2.022567
  S     7.402840  9.087848 -5.955151
  S     4.365180  9.658409 -3.183002
  S     6.695929  8.717111 -1.850510
