16  
    
  C     5.720569  5.775269 -4.367190
  C     6.976788  5.272792 -3.723015
  C     5.711105  9.428955 -4.327889
  C     6.927516  8.826035 -3.814995
  N     7.973480  5.062842 -4.564019
  N     5.882860  5.990297 -5.664037
  N     5.145583  5.361259 -1.930637
  N     7.937512  8.959311 -4.701930
  N     5.821719 10.028146 -5.514292
  N     5.237100  8.833342 -1.852217
  S     7.448150  5.599145 -6.078538
  S     4.412130  5.856778 -3.284813
  S     6.777819  4.982974 -2.019747
  S     7.416437  9.737525 -5.984000
  S     4.354614  9.416929 -3.161958
  S     6.923106  8.683171 -2.120668
