16  
    
  C     5.481944  6.393204 -4.522513
  C     6.692759  5.983955 -3.906497
  C     5.677182  9.772640 -4.456383
  C     6.927052  9.402277 -3.733317
  N     7.657445  5.590588 -4.763950
  N     5.543747  6.438377 -5.841684
  N     4.887199  6.250070 -2.074000
  N     7.990866  9.320543 -4.507086
  N     5.802288  9.904193 -5.758421
  N     5.132245  9.764827 -1.930877
  S     7.067582  5.877123 -6.268934
  S     4.149161  6.781386 -3.510305
  S     6.525468  5.835122 -2.156497
  S     7.413626  9.438433 -6.090797
  S     4.317721  9.960869 -3.378634
  S     6.698961  9.270826 -1.924663
