16  
    
  C     5.873102  6.085791 -4.421787
  C     7.002489  5.547853 -3.706633
  C     5.716342  9.478085 -4.353893
  C     6.899612  8.942404 -3.763807
  N     8.081289  5.340498 -4.453299
  N     6.107981  6.332218 -5.692555
  N     5.095699  5.627206 -1.989643
  N     7.934453  8.791146 -4.596902
  N     5.834265  9.693029 -5.684468
  N     5.149011  9.274196 -1.911832
  S     7.623888  5.703511 -6.024405
  S     4.424780  6.111311 -3.458078
  S     6.725551  5.406031 -1.950349
  S     7.440419  9.283445 -6.066184
  S     4.399607  9.867054 -3.251599
  S     6.742760  8.921795 -2.083393
