16  
    
  C     5.607351  6.094461 -4.409054
  C     6.768212  5.576294 -3.686989
  C     5.367817  9.665670 -4.282553
  C     6.583420  9.339806 -3.585564
  N     7.850466  5.388682 -4.460043
  N     5.809267  6.326818 -5.718673
  N     4.850426  5.859931 -1.916674
  N     7.563463  9.250727 -4.403491
  N     5.454487  9.806205 -5.601103
  N     4.946118  9.322704 -1.644533
  S     7.372672  5.897898 -5.964831
  S     4.214883  6.375712 -3.387657
  S     6.470490  5.369500 -1.967515
  S     7.053601  9.544258 -5.964793
  S     4.040062  9.793588 -3.073084
  S     6.573878  9.060109 -1.895206
