16  
    
  C     5.382710  5.548925 -4.469795
  C     6.529317  5.144376 -3.658760
  C     5.480639  9.047778 -4.207670
  C     6.757300  8.886085 -3.569977
  N     7.648971  5.066131 -4.362368
  N     5.583809  5.608830 -5.783848
  N     4.693147  5.712404 -1.984011
  N     7.807814  8.769896 -4.373314
  N     5.560539  8.873414 -5.538829
  N     5.146739  9.281950 -1.635276
  S     7.187032  5.272464 -5.943020
  S     4.017189  5.931835 -3.481092
  S     6.299398  5.146895 -1.971367
  S     7.146944  8.711085 -5.917846
  S     4.252119  9.336862 -3.045228
  S     6.783614  8.973323 -1.823292
