16  
    
  C     5.061962  6.257769 -4.570547
  C     6.312979  5.958480 -3.882882
  C     5.421020  9.614328 -4.075994
  C     6.682653  9.295693 -3.521406
  N     7.368129  5.918100 -4.691970
  N     5.199903  6.522294 -5.845665
  N     4.596345  6.010887 -2.044445
  N     7.663011  9.245556 -4.449211
  N     5.426659  9.777561 -5.434952
  N     4.976242  9.130824 -1.598493
  S     6.762385  6.311238 -6.273180
  S     3.759230  6.451852 -3.407869
  S     6.189227  5.591708 -2.208349
  S     7.001394  9.669334 -5.909768
  S     4.056723  9.486505 -2.961511
  S     6.626071  8.982703 -1.839324
