16  
    
  C     5.789993  5.615572 -4.221002
  C     7.090244  5.217975 -3.627300
  C     5.455077  9.338431 -4.410972
  C     6.502480  8.640142 -3.685964
  N     8.107770  5.086995 -4.486040
  N     5.838426  5.699242 -5.563884
  N     5.461091  5.189463 -1.642862
  N     7.547464  8.301850 -4.448283
  N     5.645216  9.448530 -5.714081
  N     4.779417  9.160292 -1.908450
  S     7.444315  5.510853 -5.995917
  S     4.520251  5.611232 -3.012130
  S     7.102825  4.892858 -1.898906
  S     7.124620  8.753229 -6.013846
  S     4.183462  9.868153 -3.324772
  S     6.377063  8.643974 -1.949567
