16  
    
  C     5.509964  5.896645 -4.411289
  C     6.770267  5.615962 -3.737014
  C     5.576730  9.033226 -4.138417
  C     6.863066  8.692999 -3.551239
  N     7.838140  5.516558 -4.558301
  N     5.628869  6.041902 -5.721435
  N     4.914496  5.742351 -1.933983
  N     7.929580  8.755500 -4.314420
  N     5.730800  9.288216 -5.430586
  N     5.135081  8.810986 -1.639498
  S     7.230248  5.806630 -6.066535
  S     4.080817  5.864039 -3.420724
  S     6.539547  5.417681 -2.059392
  S     7.290949  9.123086 -5.852756
  S     4.280099  9.066367 -2.999281
  S     6.773964  8.530639 -1.792768
