16  
    
  C     5.455460  6.268219 -4.431050
  C     6.682658  5.946534 -3.738621
  C     5.626940  9.766167 -4.359540
  C     6.884299  9.391705 -3.762816
  N     7.707718  5.760037 -4.524846
  N     5.624053  6.473279 -5.703067
  N     4.848443  6.312706 -1.911786
  N     7.951373  9.264565 -4.591501
  N     5.689679  9.901929 -5.683381
  N     4.956664  9.495199 -1.922628
  S     7.197086  6.071004 -6.077224
  S     4.145981  6.598531 -3.380466
  S     6.400539  5.807142 -2.019316
  S     7.269447  9.578704 -6.101268
  S     4.258821  9.799004 -3.323746
  S     6.633222  9.242555 -2.048386
