16  
    
  C     5.630234  5.847351 -4.410965
  C     6.845341  5.263571 -3.776198
  C     5.682889  9.537725 -4.321457
  C     6.759683  8.872112 -3.607994
  N     7.852302  4.993863 -4.602697
  N     5.803273  6.055347 -5.734758
  N     5.112763  5.674585 -1.851506
  N     7.728917  8.576474 -4.459190
  N     5.790552  9.663066 -5.636719
  N     4.938498  9.351259 -1.808443
  S     7.276029  5.388782 -6.121958
  S     4.336948  6.141993 -3.254208
  S     6.678582  5.027188 -2.032895
  S     7.330363  9.066312 -5.973327
  S     4.324748  9.862454 -3.246482
  S     6.454384  8.663976 -1.840878
