16  
    
  C     5.230666  6.479804 -4.649886
  C     6.473003  6.027093 -4.044146
  C     5.739405  9.647460 -4.404343
  C     7.047403  9.259676 -3.802345
  N     7.449030  5.817573 -4.907609
  N     5.305714  6.473947 -5.965885
  N     4.736922  6.337546 -2.122521
  N     8.028375  9.196773 -4.674130
  N     5.782048  9.929203 -5.709340
  N     5.368728  9.432001 -1.848985
  S     6.875494  6.046063 -6.424668
  S     3.887314  6.725570 -3.546772
  S     6.341943  5.994335 -2.268581
  S     7.341717  9.437238 -6.194349
  S     4.449672  9.822547 -3.284339
  S     6.965930  9.070968 -2.015811
