16  
    
  C     5.296286  6.207833 -4.316695
  C     6.313064  5.573409 -3.616377
  C     5.497510  9.756593 -4.223317
  C     6.683249  9.096860 -3.619179
  N     7.230238  5.000731 -4.393331
  N     5.533192  6.340765 -5.620966
  N     4.478702  6.154183 -1.946273
  N     7.710416  8.866858 -4.382830
  N     5.740885 10.007872 -5.470711
  N     4.939431  9.450417 -1.727321
  S     6.905940  5.415830 -5.959419
  S     3.918396  6.760050 -3.398062
  S     5.990652  5.540619 -1.909349
  S     7.305557  9.472123 -5.839881
  S     4.090255  9.714261 -3.094423
  S     6.531179  8.833436 -1.869794
