16  
    
  C     5.551413  6.011092 -4.436069
  C     6.751933  5.668477 -3.661305
  C     5.597647  9.539917 -4.379727
  C     6.775229  9.177619 -3.598131
  N     7.858974  5.499731 -4.361556
  N     5.757954  6.009799 -5.747836
  N     4.804326  6.003467 -2.012392
  N     7.865108  8.976138 -4.328910
  N     5.818741  9.668473 -5.683154
  N     4.911993  9.491488 -1.867031
  S     7.331849  5.746555 -5.951180
  S     4.162579  6.284750 -3.463248
  S     6.443113  5.640621 -1.997905
  S     7.424324  9.246074 -5.912667
  S     4.130181  9.672817 -3.268796
  S     6.583018  9.077892 -1.948182
