16  
    
  C     5.699444  5.421748 -4.185531
  C     6.868131  4.919515 -3.508172
  C     5.422241  9.308254 -4.660921
  C     6.630912  8.825746 -4.041760
  N     7.902176  4.685206 -4.335918
  N     5.836526  5.683900 -5.490515
  N     5.094188  5.100988 -1.676779
  N     7.654186  8.595604 -4.837070
  N     5.568501  9.486992 -5.960761
  N     4.844457  9.175301 -2.164540
  S     7.421841  5.298098 -5.809386
  S     4.306945  5.392593 -3.093710
  S     6.720448  4.808407 -1.767947
  S     7.105894  9.004889 -6.326471
  S     4.121474  9.726354 -3.617026
  S     6.461045  8.857795 -2.288429
