16  
    
  C     5.419001  5.517298 -4.327857
  C     6.645944  5.062181 -3.695994
  C     5.663945  9.285725 -4.300362
  C     6.782888  8.586050 -3.721932
  N     7.620269  4.760387 -4.557082
  N     5.537254  5.733546 -5.631268
  N     4.807487  5.213665 -1.876170
  N     7.763069  8.293652 -4.600006
  N     5.890585  9.655560 -5.552412
  N     4.884495  8.640321 -1.963433
  S     7.026455  5.312188 -6.026169
  S     3.984149  5.466275 -3.306408
  S     6.393401  4.695222 -2.022857
  S     7.270942  8.942942 -6.049230
  S     4.325656  9.567102 -3.191572
  S     6.484550  8.196828 -2.059382
