16  
    
  C     5.288277  6.244653 -4.540967
  C     6.599611  5.953663 -4.039642
  C     5.612454  9.522068 -4.028444
  C     6.887288  8.995567 -3.478277
  N     7.569056  5.911353 -4.996189
  N     5.234349  6.442870 -5.867365
  N     4.861140  5.771668 -2.099081
  N     7.879523  8.951727 -4.342943
  N     5.674978  9.873716 -5.317009
  N     5.096009  9.001504 -1.604483
  S     6.796640  6.183767 -6.378221
  S     4.038014  6.352490 -3.409319
  S     6.487522  5.570106 -2.337282
  S     7.229423  9.595002 -5.741253
  S     4.321244  9.264701 -2.979160
  S     6.739185  8.551318 -1.802133
