16  
    
  C     5.602856  5.817152 -4.223726
  C     6.865215  5.320837 -3.641072
  C     5.579917  9.466586 -4.389110
  C     6.832274  9.161610 -3.784235
  N     7.866444  5.202147 -4.517586
  N     5.764464  6.025113 -5.515740
  N     4.989360  5.333011 -1.774847
  N     7.859342  9.032523 -4.657318
  N     5.635673  9.488581 -5.720428
  N     5.194101  9.312120 -1.846251
  S     7.295789  5.710028 -5.963612
  S     4.250047  5.951070 -3.170185
  S     6.690282  4.939579 -1.888734
  S     7.271294  9.178217 -6.135710
  S     4.335859  9.854927 -3.173625
  S     6.780550  8.946301 -2.120314
