16  
    
  C     5.537232  6.043111 -4.489076
  C     6.840944  5.633323 -3.936483
  C     5.436999  9.954069 -4.430397
  C     6.592079  9.345510 -3.822540
  N     7.759773  5.396101 -4.861790
  N     5.546090  6.175791 -5.808719
  N     5.187596  5.896702 -1.915022
  N     7.678355  9.142842 -4.608662
  N     5.644580 10.133934 -5.749936
  N     4.762443  9.409669 -2.044091
  S     6.997306  5.750218 -6.375219
  S     4.282468  6.366581 -3.226471
  S     6.711238  5.294942 -2.149137
  S     7.140119  9.628776 -6.143821
  S     4.118811 10.158777 -3.445087
  S     6.341699  9.035017 -2.091403
