16  
    
  C     5.813353  5.747359 -4.504680
  C     7.004011  5.413568 -3.725040
  C     5.525872  9.589394 -4.306401
  C     6.797050  9.309348 -3.736206
  N     8.049822  5.296006 -4.503228
  N     6.033001  5.844784 -5.798308
  N     5.224324  5.929521 -1.984105
  N     7.835867  9.265482 -4.578226
  N     5.631764  9.845112 -5.645888
  N     5.088542  9.109432 -1.802268
  S     7.633846  5.471681 -6.120111
  S     4.510725  6.216375 -3.497649
  S     6.771572  5.303602 -2.009455
  S     7.171849  9.540883 -6.051850
  S     4.215357  9.491118 -3.168106
  S     6.737118  8.849408 -2.095312
