16  
    
  C     5.581459  6.135604 -4.373116
  C     6.752864  5.542357 -3.763573
  C     5.536743  9.630159 -4.279462
  C     6.791601  9.101288 -3.685742
  N     7.681482  5.283761 -4.683403
  N     5.718382  6.472812 -5.658106
  N     5.045073  5.727444 -1.881543
  N     7.770136  8.943089 -4.574676
  N     5.625123  9.847083 -5.564261
  N     5.115242  9.334744 -1.736208
  S     7.214884  5.841985 -6.161921
  S     4.281964  6.335044 -3.223735
  S     6.666295  5.228906 -2.066532
  S     7.149335  9.423079 -6.073435
  S     4.262650  9.649133 -3.128049
  S     6.728009  8.922790 -1.895992
