16  
    
  C     5.605684  6.630965 -4.577392
  C     6.782851  6.152073 -3.906412
  C     5.592877 10.200302 -4.604805
  C     6.708145  9.615826 -3.890567
  N     7.793839  5.902278 -4.704007
  N     5.718641  6.670351 -5.857734
  N     5.061090  6.457353 -2.046495
  N     7.695008  9.211616 -4.658588
  N     5.724217 10.205639 -5.959177
  N     4.987087 10.061836 -2.018506
  S     7.249495  6.211041 -6.284103
  S     4.324791  7.080986 -3.412093
  S     6.549991  5.792883 -2.243212
  S     7.289502  9.600165 -6.236643
  S     4.276926 10.545376 -3.482344
  S     6.510179  9.478778 -2.195413
