16  
    
  C     5.463588  5.655966 -4.416217
  C     6.653407  5.153023 -3.762590
  C     5.753945  9.088368 -4.294214
  C     6.965751  8.799619 -3.557068
  N     7.648533  4.935757 -4.622324
  N     5.527316  5.852136 -5.730263
  N     5.043032  5.729423 -1.848520
  N     8.042744  8.620875 -4.342570
  N     5.873906  9.081473 -5.609254
  N     5.140452  9.282570 -1.855705
  S     7.074304  5.432118 -6.120961
  S     4.203037  6.086210 -3.231669
  S     6.603719  5.125129 -2.029025
  S     7.431125  8.776752 -5.927996
  S     4.473550  9.513314 -3.326748
  S     6.733167  8.842430 -1.818193
