16  
    
  C     5.616042  5.644623 -4.190003
  C     6.892745  5.408369 -3.551952
  C     5.558615  9.128006 -4.220114
  C     6.841868  8.996644 -3.569150
  N     7.835335  5.107674 -4.429946
  N     5.631513  5.589619 -5.520446
  N     5.199360  5.730442 -1.602544
  N     7.903608  8.980842 -4.358392
  N     5.638870  9.405290 -5.552899
  N     5.133287  8.811736 -1.680735
  S     7.201933  5.186419 -5.932574
  S     4.348949  5.679493 -3.006110
  S     6.850865  5.351577 -1.771832
  S     7.287547  9.307574 -5.884795
  S     4.246311  8.957547 -3.083202
  S     6.769741  8.981621 -1.847992
