16  
    
  C     5.430609  5.538379 -4.305617
  C     6.659123  5.069597 -3.688162
  C     5.696638  9.326303 -4.233962
  C     6.830223  8.587144 -3.726531
  N     7.647248  4.796677 -4.530833
  N     5.528415  5.679230 -5.627044
  N     4.832736  5.280468 -1.894970
  N     7.791810  8.308806 -4.594402
  N     5.865292  9.670574 -5.505510
  N     4.942296  8.699866 -1.876516
  S     7.047778  5.306350 -6.024786
  S     3.968759  5.432070 -3.295074
  S     6.452404  4.710870 -2.012235
  S     7.257505  8.926827 -6.021661
  S     4.328799  9.549871 -3.224162
  S     6.521179  8.256299 -2.032382
