16  
    
  C     5.358874  6.055013 -4.412435
  C     6.606497  5.783338 -3.758927
  C     5.442864  9.753018 -4.393585
  C     6.630343  9.261151 -3.703857
  N     7.610860  5.599650 -4.610639
  N     5.428075  6.222484 -5.730405
  N     4.862476  5.976019 -1.845301
  N     7.713013  9.087038 -4.478658
  N     5.653703  9.856939 -5.710532
  N     4.789902  9.354278 -1.875886
  S     6.967290  5.910167 -6.118075
  S     4.041029  6.250711 -3.280858
  S     6.463551  5.671750 -2.008611
  S     7.231141  9.429410 -6.077673
  S     4.076175  9.961543 -3.279369
  S     6.481483  9.064347 -1.978915
