16  
    
  C     5.366106  6.363956 -4.461538
  C     6.492708  5.877735 -3.757197
  C     5.518978 10.063366 -4.267686
  C     6.745706  9.761189 -3.626948
  N     7.554111  5.641393 -4.498981
  N     5.582983  6.562174 -5.774689
  N     4.571894  6.176454 -2.029997
  N     7.769478  9.825094 -4.455205
  N     5.485283 10.247629 -5.555299
  N     4.915443  9.811293 -1.769381
  S     7.130579  6.051663 -6.082343
  S     3.991116  6.811958 -3.454779
  S     6.154308  5.688607 -2.065676
  S     7.133270 10.193248 -5.968630
  S     4.172587 10.034070 -3.159988
  S     6.556898  9.415613 -1.913298
