16  
    
  C     5.539236  6.697410 -4.556081
  C     6.706204  6.128258 -3.926470
  C     5.591203 10.178949 -4.535398
  C     6.728521  9.618292 -3.881044
  N     7.790623  5.869553 -4.657072
  N     5.682152  6.680809 -5.918059
  N     5.019785  6.486558 -2.041819
  N     7.712666  9.165644 -4.683554
  N     5.787362 10.245036 -5.821477
  N     4.868551 10.032803 -2.060262
  S     7.225066  6.213663 -6.258396
  S     4.341506  7.086984 -3.420567
  S     6.550548  5.846692 -2.241357
  S     7.312347  9.636392 -6.200407
  S     4.292569 10.540184 -3.473730
  S     6.514817  9.531027 -2.174934
