16  
    
  C     5.553261  6.196358 -4.485904
  C     6.749516  5.708850 -3.877232
  C     5.375422  9.956962 -4.691242
  C     6.618515  9.619670 -4.054843
  N     7.741321  5.514588 -4.742482
  N     5.643944  6.564762 -5.802153
  N     4.982423  5.828788 -1.998317
  N     7.686005  9.508416 -4.874754
  N     5.513289 10.101878 -6.027144
  N     4.841427  9.633020 -2.241201
  S     7.207760  6.078289 -6.174347
  S     4.236194  6.364839 -3.388921
  S     6.572662  5.454794 -2.156815
  S     7.070909  9.776404 -6.359179
  S     4.012111 10.031962 -3.554952
  S     6.491233  9.528026 -2.379936
