16  
    
  C     5.589340  6.017147 -4.443270
  C     6.776378  5.647303 -3.693834
  C     5.541525  9.455400 -4.352644
  C     6.792974  9.168867 -3.696184
  N     7.877125  5.478248 -4.450493
  N     5.700111  6.041579 -5.775636
  N     4.856354  5.895984 -1.968844
  N     7.898243  9.037628 -4.412701
  N     5.816994  9.674690 -5.638454
  N     5.023606  9.499977 -1.867183
  S     7.351858  5.730307 -6.012702
  S     4.154409  6.246912 -3.457248
  S     6.460693  5.665785 -1.945207
  S     7.390501  9.273209 -6.012647
  S     4.144912  9.616593 -3.334219
  S     6.587237  9.085411 -1.922567
