16  
    
  C     5.535117  5.918965 -4.451711
  C     6.654894  5.456307 -3.657457
  C     5.799469  9.293031 -4.270756
  C     7.043108  8.999061 -3.627549
  N     7.778057  5.254882 -4.364212
  N     5.861458  6.109814 -5.746607
  N     4.690024  5.594582 -2.033386
  N     8.063807  9.095671 -4.491775
  N     5.866575  9.526849 -5.585050
  N     5.149617  8.977917 -1.784120
  S     7.384384  5.500935 -5.925649
  S     4.036537  5.985687 -3.498213
  S     6.346341  5.307521 -1.944481
  S     7.465855  9.475036 -5.958000
  S     4.426242  9.424407 -3.211599
  S     6.817217  8.807498 -1.889658
