16  
    
  C     5.179625  6.304560 -4.577643
  C     6.442603  5.902309 -4.008118
  C     5.492405  9.482196 -4.048232
  C     6.834734  9.129244 -3.489018
  N     7.491636  5.883549 -4.856779
  N     5.273735  6.413327 -5.898017
  N     4.782493  5.791073 -2.098007
  N     7.852107  9.242117 -4.306162
  N     5.615013  9.926469 -5.296249
  N     5.109957  9.010148 -1.525941
  S     6.828771  6.169208 -6.369308
  S     3.954302  6.467192 -3.352991
  S     6.435659  5.555130 -2.312387
  S     7.209215  9.692269 -5.793011
  S     4.204831  9.296511 -2.934920
  S     6.674845  8.558215 -1.806331
