16  
    
  C     5.489394  5.720623 -4.270135
  C     6.554236  5.146681 -3.573441
  C     5.907972  9.209640 -3.963785
  C     7.134639  8.680049 -3.418589
  N     7.575096  4.853369 -4.387611
  N     5.682286  5.921969 -5.578561
  N     4.908019  5.839368 -1.788917
  N     8.119323  8.580728 -4.269161
  N     6.026744  9.513610 -5.264757
  N     5.429321  8.564213 -1.467721
  S     7.232489  5.403393 -5.911533
  S     4.174800  6.128427 -3.228289
  S     6.451482  5.183062 -1.817952
  S     7.526438  9.079873 -5.716134
  S     4.588123  8.972132 -2.825012
  S     7.096879  8.423568 -1.672782
