16  
    
  C     5.534875  6.032177 -4.712648
  C     6.703747  5.548395 -3.965979
  C     5.656175  9.868508 -4.361541
  C     6.820845  9.237139 -3.757781
  N     7.816837  5.487399 -4.690141
  N     5.771585  6.329098 -5.988454
  N     4.756457  5.741558 -2.247889
  N     7.861967  8.989578 -4.551240
  N     5.821370 10.212968 -5.627873
  N     4.909536  9.251702 -1.990596
  S     7.373739  5.933236 -6.267998
  S     4.078283  6.232633 -3.708605
  S     6.407448  5.327453 -2.347085
  S     7.322035  9.653576 -6.073963
  S     4.219091  9.742222 -3.429421
  S     6.514566  8.853053 -2.073774
