16  
    
  C     5.773385  5.557273 -4.211249
  C     6.947573  5.128813 -3.524409
  C     5.441070  9.343136 -4.568813
  C     6.645955  8.977376 -3.891502
  N     7.964446  4.982502 -4.328937
  N     5.907867  5.594415 -5.521820
  N     5.132694  5.270794 -1.768915
  N     7.673132  8.759705 -4.724081
  N     5.526459  9.430839 -5.875845
  N     4.816502  9.177043 -2.105265
  S     7.498004  5.316764 -5.904357
  S     4.436817  5.781854 -3.185508
  S     6.711604  4.729564 -1.850471
  S     7.145049  9.040454 -6.234119
  S     4.117022  9.680466 -3.541543
  S     6.374616  8.587734 -2.218009
