16  
    
  C     5.312194  6.363449 -4.415211
  C     6.583172  6.081260 -3.769733
  C     5.454666  9.722038 -4.413067
  C     6.707966  9.386013 -3.783236
  N     7.640886  5.947741 -4.616730
  N     5.452983  6.458176 -5.761701
  N     4.782776  6.156907 -1.960969
  N     7.780212  9.343736 -4.555428
  N     5.553369  9.939524 -5.723057
  N     5.008921  9.360393 -1.823067
  S     7.086772  6.184845 -6.089621
  S     3.932825  6.484285 -3.373488
  S     6.387107  5.821711 -2.038430
  S     7.222552  9.632056 -6.087519
  S     4.197784  9.734673 -3.211125
  S     6.735598  9.065057 -2.037445
