16  
    
  C     5.576359  5.392582 -4.199067
  C     6.895100  5.240512 -3.551597
  C     5.681718  9.317811 -4.179531
  C     6.943792  9.114913 -3.545562
  N     7.920437  5.218610 -4.395497
  N     5.697080  5.370622 -5.509766
  N     5.123072  5.803836 -1.732912
  N     7.954045  9.152453 -4.449148
  N     5.735808  9.503162 -5.490764
  N     5.134583  8.820931 -1.713489
  S     7.267091  5.303141 -5.898445
  S     4.238083  5.760560 -3.123644
  S     6.762966  5.420131 -1.840344
  S     7.299037  9.386912 -5.906767
  S     4.286902  9.042626 -3.174796
  S     6.772083  8.905160 -1.808950
