16  
    
  C     5.212088  6.135022 -4.374982
  C     6.446907  5.624259 -3.751921
  C     5.444241  9.831428 -4.361127
  C     6.669761  9.335671 -3.781942
  N     7.480104  5.310843 -4.555541
  N     5.386966  6.324533 -5.701777
  N     4.702489  5.965558 -1.787671
  N     7.672094  9.175491 -4.606814
  N     5.503454  9.916610 -5.658734
  N     4.941843  9.376401 -1.866167
  S     6.921087  5.785383 -6.077347
  S     3.914679  6.479092 -3.215288
  S     6.223526  5.252789 -2.046922
  S     7.045912  9.498499 -6.105610
  S     4.216296 10.021031 -3.142118
  S     6.613252  9.042074 -2.094054
