16  
    
  C     5.570572  5.938000 -4.407786
  C     6.757964  5.576160 -3.711618
  C     5.820367  9.452892 -4.383851
  C     7.011098  9.159764 -3.706679
  N     7.859756  5.486757 -4.460646
  N     5.683301  6.017999 -5.730446
  N     4.985148  5.499724 -1.942165
  N     8.027980  8.949996 -4.557516
  N     5.926005  9.591888 -5.700036
  N     5.210152  9.375037 -1.925686
  S     7.288577  5.755449 -6.085998
  S     4.204777  6.095761 -3.283122
  S     6.666511  5.248874 -2.055062
  S     7.528666  9.350473 -6.052000
  S     4.374882  9.520181 -3.319708
  S     6.909007  9.059183 -2.021737
