16  
    
  C     5.576467  5.906399 -4.481255
  C     6.796357  5.671665 -3.835566
  C     5.412007  9.631040 -4.324736
  C     6.628481  9.126919 -3.765765
  N     7.820061  5.417857 -4.668464
  N     5.613245  5.982947 -5.813782
  N     4.973037  5.820104 -2.033721
  N     7.614364  8.811375 -4.588788
  N     5.451108  9.668496 -5.658668
  N     4.888428  9.467797 -1.865679
  S     7.204094  5.671895 -6.169073
  S     4.140774  5.912766 -3.405039
  S     6.597538  5.463380 -2.118673
  S     6.895619  9.199517 -6.113390
  S     4.113269  9.877606 -3.285365
  S     6.550436  9.277825 -2.027372
