16  
    
  C     5.544867  5.334181 -4.174049
  C     6.822777  5.157242 -3.497170
  C     5.354024  9.207909 -4.371808
  C     6.578365  8.732768 -3.775163
  N     7.852856  4.957419 -4.347177
  N     5.641389  5.334333 -5.501768
  N     4.956748  5.224603 -1.648349
  N     7.540695  8.493349 -4.672518
  N     5.417412  9.359517 -5.682678
  N     4.900720  9.030965 -1.834594
  S     7.243574  5.144186 -5.847051
  S     4.221601  5.497270 -3.103799
  S     6.589196  4.897298 -1.757355
  S     6.925273  8.803946 -6.128791
  S     4.172535  9.727965 -3.141430
  S     6.460405  8.496439 -2.047046
