16  
    
  C     5.507563  6.130327 -4.432632
  C     6.749966  5.599888 -3.960023
  C     5.470108 10.001798 -4.424799
  C     6.605825  9.454030 -3.747834
  N     7.679544  5.495439 -4.882621
  N     5.452379  6.285079 -5.731505
  N     5.219840  5.888434 -1.873407
  N     7.594144  9.093265 -4.592362
  N     5.611947 10.119730 -5.785368
  N     4.724039  9.409009 -2.051686
  S     6.984671  5.774487 -6.339608
  S     4.342023  6.351750 -3.234554
  S     6.756185  5.287912 -2.253320
  S     7.201064  9.551032 -6.098403
  S     4.096310 10.241643 -3.321185
  S     6.398179  8.994880 -2.081436
