16  
    
  C     5.245507  6.281430 -4.356921
  C     6.300430  5.525257 -3.611355
  C     5.582022  9.741693 -4.160418
  C     6.742388  9.110804 -3.538315
  N     7.267874  4.966039 -4.345798
  N     5.559847  6.393687 -5.627539
  N     4.436642  6.188452 -1.941880
  N     7.767030  8.819897 -4.383214
  N     5.738276  9.992847 -5.481533
  N     4.996530  9.434697 -1.760013
  S     6.868937  5.465966 -5.922870
  S     3.885367  6.759830 -3.394429
  S     6.005353  5.509100 -1.882314
  S     7.297266  9.466907 -5.874410
  S     4.136453  9.742129 -3.095461
  S     6.559397  8.853096 -1.902968
