16  
    
  C     5.357982  6.314674 -4.457087
  C     6.441550  5.786135 -3.715594
  C     5.472127  9.997956 -4.212413
  C     6.747198  9.741598 -3.604103
  N     7.534748  5.658225 -4.513876
  N     5.467993  6.442588 -5.793199
  N     4.487242  6.038438 -2.077764
  N     7.754124  9.752351 -4.458371
  N     5.490265 10.330447 -5.503879
  N     4.988624  9.630554 -1.660039
  S     7.095217  6.072781 -6.016615
  S     3.956925  6.730918 -3.519806
  S     6.073096  5.566160 -2.022778
  S     7.079312 10.177841 -5.946101
  S     4.057450  9.868046 -3.061541
  S     6.636169  9.403578 -1.895052
