16  
    
  C     5.602653  5.620983 -4.366037
  C     6.769154  5.413866 -3.602531
  C     5.650190  9.372840 -4.252698
  C     6.910769  9.207598 -3.588102
  N     7.825221  5.215886 -4.348209
  N     5.702321  5.523555 -5.677624
  N     4.891890  5.724486 -1.841550
  N     7.980007  9.324088 -4.400302
  N     5.809311  9.464666 -5.585393
  N     5.201687  8.947897 -1.727967
  S     7.321954  5.400676 -5.893945
  S     4.251223  5.787879 -3.317672
  S     6.502350  5.430290 -1.857751
  S     7.439066  9.428743 -5.886254
  S     4.318577  9.259910 -3.153855
  S     6.846470  8.744597 -1.905716
