16  
    
  C     5.786088  5.617122 -4.299199
  C     6.996050  5.052046 -3.643786
  C     5.517846  9.490506 -4.341563
  C     6.678479  8.874934 -3.711005
  N     8.061553  5.067070 -4.468413
  N     5.955575  5.934124 -5.575524
  N     5.132255  5.236810 -1.848779
  N     7.747895  8.675041 -4.456564
  N     5.747804  9.792376 -5.621904
  N     4.752016  8.590211 -2.100006
  S     7.532226  5.586720 -5.935115
  S     4.402885  5.789891 -3.254507
  S     6.672780  4.681091 -2.017412
  S     7.288173  9.386980 -5.972722
  S     4.182942  9.622204 -3.298904
  S     6.412409  8.309996 -2.066030
