16  
    
  C     5.608298  5.901981 -4.278984
  C     6.777172  5.399341 -3.620643
  C     5.760962  9.509699 -4.427434
  C     6.965608  9.203063 -3.770753
  N     7.864378  5.229017 -4.428069
  N     5.689612  6.110643 -5.557510
  N     5.003585  5.927541 -1.826282
  N     8.022015  8.981234 -4.575256
  N     5.959526  9.623444 -5.753433
  N     5.040857  9.252702 -1.984917
  S     7.219706  5.744236 -6.021733
  S     4.255871  6.134434 -3.253873
  S     6.617137  5.365677 -1.895365
  S     7.521853  9.293026 -6.109069
  S     4.307974  9.546013 -3.479317
  S     6.690558  9.008951 -2.012228
