16  
    
  C     5.324172  5.496107 -4.396388
  C     6.459349  4.841402 -3.757971
  C     5.571613  9.275942 -4.392115
  C     6.632061  8.473899 -3.820477
  N     7.542333  4.768449 -4.532418
  N     5.535962  5.843329 -5.684279
  N     4.695538  5.092515 -1.848239
  N     7.663969  8.287295 -4.629489
  N     5.760669  9.571512 -5.677947
  N     4.825113  8.581610 -1.960420
  S     7.053553  5.303807 -6.066122
  S     4.013660  5.671110 -3.226877
  S     6.295173  4.610021 -2.019650
  S     7.353381  9.019919 -6.033973
  S     4.303053  9.598406 -3.237720
  S     6.373547  7.951878 -2.163802
