16  
    
  C     5.460596  5.651433 -4.132901
  C     6.651075  5.106853 -3.446399
  C     5.631822  8.953953 -3.993951
  C     6.880317  8.477268 -3.415618
  N     7.756446  4.978924 -4.240676
  N     5.619993  5.904306 -5.439358
  N     4.781246  5.373502 -1.658631
  N     7.831862  8.185790 -4.280007
  N     5.618642  9.046797 -5.306580
  N     5.156496  8.878283 -1.489596
  S     7.168591  5.367536 -5.781089
  S     4.116691  5.881475 -3.060884
  S     6.420266  5.051788 -1.760894
  S     7.128288  8.533378 -5.839046
  S     4.290464  9.105087 -2.905690
  S     6.780989  8.593396 -1.663194
