16  
    
  C     5.072870  5.990897 -4.331830
  C     6.324272  5.580391 -3.613120
  C     5.489746  9.468093 -4.029814
  C     6.703540  9.016259 -3.417403
  N     7.424174  5.476262 -4.380360
  N     5.205726  5.998043 -5.664919
  N     4.518531  5.840808 -1.790774
  N     7.678845  8.722605 -4.283870
  N     5.518030  9.482096 -5.370665
  N     5.250979  9.597490 -1.536830
  S     6.791618  5.678364 -5.932258
  S     3.838218  6.355997 -3.230448
  S     6.113764  5.567997 -1.902397
  S     7.034389  9.011709 -5.786661
  S     4.370399  9.993003 -2.837918
  S     6.637486  8.717914 -1.768000
