16  
    
  C     5.779246  5.526376 -4.208583
  C     6.930366  5.104815 -3.537885
  C     5.443443  9.346552 -4.604539
  C     6.638477  8.974273 -3.902574
  N     7.995344  4.966169 -4.321256
  N     5.906738  5.608352 -5.519987
  N     5.119917  5.263909 -1.776054
  N     7.642222  8.767190 -4.745046
  N     5.520632  9.401741 -5.921396
  N     4.822915  9.155402 -2.086109
  S     7.494650  5.311447 -5.888962
  S     4.416302  5.755132 -3.181786
  S     6.712253  4.717048 -1.836669
  S     7.150951  9.041550 -6.237394
  S     4.114981  9.695079 -3.540806
  S     6.382548  8.602823 -2.219397
