16  
    
  C     5.610153  5.860394 -4.342975
  C     6.799554  5.503327 -3.673080
  C     5.795941  9.459966 -4.466987
  C     6.964042  9.073829 -3.747666
  N     7.838406  5.370869 -4.558233
  N     5.705180  6.046292 -5.672120
  N     5.005177  5.675983 -1.799922
  N     8.082062  8.991109 -4.500689
  N     5.911363  9.728259 -5.768423
  N     5.162570  9.316961 -1.912622
  S     7.303795  5.720913 -6.026681
  S     4.243810  6.115551 -3.246603
  S     6.592488  5.295744 -1.948214
  S     7.507877  9.300850 -6.090657
  S     4.410038  9.509383 -3.421826
  S     6.751856  9.102445 -2.020110
