16  
    
  C     5.040031  6.253614 -4.524105
  C     6.292732  5.963906 -3.889910
  C     5.387536  9.617767 -4.113116
  C     6.679468  9.288031 -3.589555
  N     7.360301  5.944742 -4.692171
  N     5.198647  6.531472 -5.834882
  N     4.600601  6.026918 -2.068446
  N     7.696160  9.265723 -4.468337
  N     5.454419  9.830233 -5.422215
  N     5.021125  9.143434 -1.553781
  S     6.760362  6.320460 -6.261641
  S     3.774684  6.427523 -3.413538
  S     6.196442  5.631689 -2.230344
  S     6.998602  9.661162 -5.910216
  S     4.047527  9.487911 -2.957137
  S     6.625883  8.987567 -1.888137
