16  
    
  C     5.572121  5.737986 -4.415374
  C     6.857843  5.455780 -3.869187
  C     5.538047  9.578338 -4.365624
  C     6.788096  9.191263 -3.781072
  N     7.899248  5.323213 -4.705785
  N     5.568985  5.892991 -5.734429
  N     5.205155  5.627726 -1.871710
  N     7.806304  9.110713 -4.637641
  N     5.530329  9.724765 -5.693695
  N     5.267049  9.325838 -1.737763
  S     7.133513  5.626703 -6.180961
  S     4.277866  5.965041 -3.227801
  S     6.800922  5.393081 -2.075539
  S     7.161352  9.538757 -6.117521
  S     4.318445  9.692411 -3.090528
  S     6.831408  8.899713 -2.104701
