16  
    
  C     5.611425  5.613973 -4.443436
  C     6.829393  5.161313 -3.730969
  C     5.430734  9.977434 -4.442563
  C     6.618592  9.369818 -3.895103
  N     7.848258  4.962780 -4.559061
  N     5.750826  5.902174 -5.749086
  N     5.040385  5.456106 -1.922354
  N     7.566131  9.056221 -4.782670
  N     5.431345 10.090437 -5.759853
  N     4.942175  9.471606 -1.945168
  S     7.281919  5.414807 -6.070391
  S     4.259600  5.852286 -3.341784
  S     6.611324  5.028530 -1.977314
  S     6.915138  9.502692 -6.258210
  S     4.204657 10.066413 -3.324302
  S     6.528156  9.026310 -2.169041
