16  
    
  C     5.616575  5.613589 -4.444367
  C     6.823874  5.157413 -3.735795
  C     5.432796  9.976697 -4.451914
  C     6.612158  9.374770 -3.895670
  N     7.848965  4.959678 -4.558750
  N     5.751240  5.907232 -5.749385
  N     5.038074  5.463156 -1.925343
  N     7.566220  9.055447 -4.779140
  N     5.440924 10.096405 -5.768221
  N     4.942216  9.461644 -1.946549
  S     7.280319  5.413977 -6.064860
  S     4.256379  5.849979 -3.342947
  S     6.606510  5.023356 -1.974245
  S     6.917645  9.505337 -6.257331
  S     4.206903 10.064153 -3.323420
  S     6.527877  9.026912 -2.172896
