16  
    
  C     5.215156  6.332344 -4.513102
  C     6.462391  5.988309 -3.865378
  C     5.497424  9.673728 -4.238198
  C     6.825289  9.335123 -3.694849
  N     7.477199  5.994930 -4.732219
  N     5.261681  6.536076 -5.812893
  N     4.652128  5.941585 -1.997885
  N     7.762672  9.252103 -4.632795
  N     5.439174  9.889325 -5.543681
  N     4.997683  9.304622 -1.732843
  S     6.908991  6.319330 -6.182995
  S     3.842972  6.382430 -3.401368
  S     6.280902  5.908644 -2.080590
  S     7.021684  9.749477 -6.073735
  S     4.165130  9.623943 -3.116277
  S     6.692354  8.962769 -1.986705
