16  
    
  C     5.410195  5.708818 -4.378817
  C     6.645392  5.353283 -3.741741
  C     5.380130 10.016804 -4.581173
  C     6.532687  9.378596 -3.975093
  N     7.651901  5.333390 -4.680373
  N     5.398231  5.949502 -5.693420
  N     4.925730  5.599888 -1.837378
  N     7.546321  9.278710 -4.851041
  N     5.511968 10.420702 -5.878363
  N     4.692412  9.691018 -2.064739
  S     7.003680  5.698463 -6.086609
  S     4.074547  5.653451 -3.276093
  S     6.520049  5.275004 -2.014520
  S     6.940467  9.857517 -6.315123
  S     3.971246 10.265448 -3.545599
  S     6.230483  9.138797 -2.298061
