16  
    
  C     5.703860  5.881973 -4.383262
  C     6.926828  5.407413 -3.849161
  C     5.852596  9.585580 -3.870378
  C     7.085652  8.926525 -3.495734
  N     7.945033  5.307891 -4.699072
  N     5.737994  6.085844 -5.716974
  N     5.185814  5.262324 -1.917567
  N     7.980636  8.774626 -4.446225
  N     5.765949  9.841455 -5.163274
  N     5.418211  8.834045 -1.502139
  S     7.320541  5.716778 -6.219581
  S     4.368403  5.782875 -3.261486
  S     6.820898  5.022277 -2.211362
  S     7.212690  9.276623 -5.844893
  S     4.532843  9.504831 -2.796576
  S     7.002497  8.371171 -1.842862
