16  
    
  C     5.412964  5.969041 -4.380728
  C     6.669731  5.474729 -3.870983
  C     5.604346  9.780848 -4.592622
  C     6.747384  9.106123 -4.065095
  N     7.607619  5.216500 -4.812260
  N     5.497630  6.244143 -5.699777
  N     5.036906  5.585936 -1.867190
  N     7.775807  8.872803 -4.895589
  N     5.725591  9.983254 -5.914350
  N     5.171443  9.721141 -2.024485
  S     7.004533  5.709359 -6.229908
  S     4.171416  6.193487 -3.175149
  S     6.642880  5.323134 -2.095907
  S     7.160182  9.322142 -6.375785
  S     4.423097 10.305681 -3.375005
  S     6.708570  8.923369 -2.325445
