16  
    
  C     5.355972  5.933477 -4.258691
  C     6.623147  5.465146 -3.634013
  C     5.417384  9.595749 -4.444909
  C     6.633394  9.160378 -3.803552
  N     7.565844  5.343269 -4.540380
  N     5.424070  6.241930 -5.551770
  N     4.953346  5.655486 -1.662403
  N     7.698842  8.889273 -4.542933
  N     5.632818  9.687656 -5.771320
  N     5.050397  9.735625 -1.877758
  S     7.035692  5.924518 -5.999033
  S     4.103319  6.061982 -3.079356
  S     6.588208  5.367992 -1.936174
  S     7.195497  9.225120 -6.086121
  S     4.177615  9.682836 -3.278106
  S     6.619623  9.205607 -2.055319
