16  
    
  C     5.641197  5.567818 -4.163686
  C     6.909831  5.253244 -3.682146
  C     5.505169  9.470896 -4.497044
  C     6.597507  8.790778 -3.847503
  N     7.866488  5.166269 -4.582586
  N     5.592104  5.825697 -5.462367
  N     5.361747  5.241023 -1.610652
  N     7.637718  8.498585 -4.610110
  N     5.795393  9.745457 -5.771933
  N     4.859488  9.198275 -2.057661
  S     7.094937  5.488810 -6.052921
  S     4.370279  5.467278 -2.948750
  S     6.975134  5.060884 -1.975224
  S     7.356856  9.130348 -6.045588
  S     4.093671  9.590849 -3.497399
  S     6.305506  8.415700 -2.147382
