16  
    
  C     5.683981  5.412800 -4.172573
  C     6.879062  4.949924 -3.528912
  C     5.458343  9.381053 -4.669477
  C     6.622867  8.824376 -4.010534
  N     7.897096  4.673015 -4.345991
  N     5.779512  5.688874 -5.501347
  N     5.120091  5.070703 -1.646519
  N     7.655275  8.531484 -4.802786
  N     5.588043  9.505998 -5.991355
  N     4.824035  9.244510 -2.180850
  S     7.376803  5.283907 -5.795250
  S     4.279187  5.346793 -3.086330
  S     6.746329  4.827187 -1.743842
  S     7.080392  9.002591 -6.356384
  S     4.136443  9.698118 -3.648824
  S     6.491875  8.875479 -2.276096
