16  
    
  C     5.539324  5.960787 -4.480964
  C     6.613812  5.447994 -3.709121
  C     5.805645  9.322710 -4.287258
  C     7.047927  8.983257 -3.618322
  N     7.722826  5.213650 -4.350114
  N     5.829175  6.133435 -5.757459
  N     4.676796  5.588934 -2.059531
  N     8.100288  9.027849 -4.468809
  N     5.844646  9.579626 -5.596251
  N     5.134757  8.994219 -1.812854
  S     7.393532  5.578538 -5.918856
  S     4.096382  6.037818 -3.522223
  S     6.284483  5.287267 -1.969459
  S     7.461687  9.464875 -5.988930
  S     4.435401  9.430355 -3.241142
  S     6.836561  8.818494 -1.870696
