16  
    
  C     5.540129  5.965201 -4.498330
  C     6.614974  5.381662 -3.760622
  C     5.805611  9.472522 -4.318639
  C     7.007963  9.055048 -3.655675
  N     7.717979  5.127123 -4.464399
  N     5.845993  6.217655 -5.759844
  N     4.577215  5.700665 -2.141183
  N     8.014551  8.929741 -4.527082
  N     5.959835  9.739669 -5.617264
  N     5.206598  9.092919 -1.868653
  S     7.441163  5.833813 -5.939505
  S     4.058636  6.310904 -3.595973
  S     6.190273  5.144810 -2.053876
  S     7.507515  9.351101 -5.987017
  S     4.404031  9.427953 -3.275654
  S     6.838439  8.836961 -1.961416
