16  
    
  C     5.346751  5.701081 -4.275899
  C     6.593251  5.305805 -3.652612
  C     5.437061  9.299387 -4.204486
  C     6.708707  8.950324 -3.612572
  N     7.631157  5.199319 -4.481706
  N     5.404214  5.763362 -5.602741
  N     4.854643  5.628523 -1.789137
  N     7.702641  8.791530 -4.500376
  N     5.456065  9.448633 -5.511613
  N     5.008275  9.369248 -1.740147
  S     7.029816  5.551959 -6.003821
  S     4.028270  6.020193 -3.166967
  S     6.465256  5.193169 -1.923886
  S     7.015293  9.117658 -5.957848
  S     4.122169  9.595658 -3.123405
  S     6.496565  8.724955 -1.900570
