16  
    
  C     5.488770  5.798949 -4.122645
  C     6.508631  4.922128 -3.565476
  C     5.689058  9.453490 -4.451504
  C     6.889050  8.927695 -3.829579
  N     7.357871  4.413120 -4.451320
  N     5.527753  5.991063 -5.449930
  N     4.969674  5.585670 -1.577935
  N     7.957306  8.759013 -4.632583
  N     5.760934  9.597301 -5.767473
  N     4.962688  9.153846 -2.052921
  S     6.932545  5.193903 -5.905001
  S     4.307082  6.315169 -2.945107
  S     6.292079  4.647985 -1.942888
  S     7.296389  9.149447 -6.198696
  S     4.404546  9.933614 -3.427079
  S     6.538274  8.663629 -2.132192
