16  
    
  C     5.555498  6.222305 -4.397137
  C     6.731587  5.614225 -3.818145
  C     5.401864  9.786545 -4.262030
  C     6.601544  9.227653 -3.602826
  N     7.723550  5.421227 -4.683104
  N     5.682274  6.487611 -5.707869
  N     4.988364  5.654302 -1.954024
  N     7.591167  8.965475 -4.415082
  N     5.556699  9.976879 -5.579880
  N     4.949459  9.631299 -1.695069
  S     7.194762  6.005907 -6.174762
  S     4.217147  6.377954 -3.204366
  S     6.611596  5.180653 -2.150230
  S     7.105120  9.408339 -5.939198
  S     4.136707 10.024397 -3.064948
  S     6.538785  9.047876 -1.850905
