16  
    
  C     5.848719  5.738588 -4.371720
  C     6.920415  5.111407 -3.730096
  C     5.652116  9.503026 -4.284401
  C     6.851894  9.005870 -3.641187
  N     8.043660  4.925927 -4.455774
  N     6.086946  6.013665 -5.663277
  N     5.092081  5.304848 -1.909014
  N     7.922169  8.994839 -4.423243
  N     5.795156  9.881772 -5.551855
  N     5.010457  8.842447 -1.868988
  S     7.686796  5.586333 -5.912277
  S     4.393085  5.804897 -3.391506
  S     6.624019  4.693343 -2.021051
  S     7.329976  9.499620 -5.998931
  S     4.208288  9.467142 -3.224250
  S     6.531510  8.246112 -2.135463
