16  
    
  C     5.385075  5.959420 -4.527644
  C     6.492574  5.417138 -3.803557
  C     5.303674  9.408871 -4.388324
  C     6.429654  8.806085 -3.724551
  N     7.522619  5.067637 -4.570873
  N     5.609290  5.949121 -5.833567
  N     4.665409  5.680371 -2.086345
  N     7.458404  8.518428 -4.505355
  N     5.504127  9.727196 -5.670914
  N     4.733532  9.491775 -1.867489
  S     7.140448  5.359006 -6.153756
  S     3.992286  6.164374 -3.538797
  S     6.247893  5.252237 -2.082961
  S     7.064528  9.086737 -5.991858
  S     3.968842  9.781331 -3.325707
  S     6.291760  8.909286 -2.052553
