16  
    
  C     5.783223  5.765736 -3.948063
  C     6.885407  4.982894 -3.494145
  C     5.634324  9.640950 -4.145333
  C     6.845444  8.988766 -3.682592
  N     7.942340  4.850176 -4.309079
  N     6.050760  6.397613 -5.081751
  N     5.148601  5.101389 -1.578964
  N     7.832212  8.925219 -4.556559
  N     5.716194 10.113522 -5.402104
  N     5.172428  8.920708 -1.688774
  S     7.478244  5.747468 -5.690453
  S     4.419858  5.747793 -2.851900
  S     6.731068  4.605367 -1.787285
  S     7.275609  9.804549 -5.912024
  S     4.342821  9.628638 -2.939187
  S     6.744742  8.498639 -2.059882
