16  
    
  C     5.774381  5.499763 -4.279945
  C     7.096523  5.214607 -3.693247
  C     5.485161  9.336376 -4.386601
  C     6.645036  8.772436 -3.738524
  N     8.108344  5.174282 -4.524351
  N     5.840304  5.738413 -5.567105
  N     5.326979  5.198441 -1.779463
  N     7.573539  8.348069 -4.589142
  N     5.570366  9.473216 -5.726236
  N     4.882560  9.461371 -1.893554
  S     7.409615  5.400136 -6.036948
  S     4.520100  5.567942 -3.151958
  S     6.934222  4.937467 -2.007943
  S     7.110589  8.800229 -6.122448
  S     4.147847  9.750592 -3.378405
  S     6.355945  8.715736 -2.022774
