16  
    
  C     5.511517  6.017081 -4.411243
  C     6.572069  5.395378 -3.691028
  C     5.742823  9.708905 -4.205898
  C     6.965366  9.347306 -3.581784
  N     7.556287  5.038125 -4.500360
  N     5.746460  6.198953 -5.691995
  N     4.910677  5.956293 -1.892590
  N     7.994704  9.013017 -4.370891
  N     5.877995  9.711848 -5.550187
  N     5.143912  9.351139 -1.720318
  S     7.194008  5.439905 -6.079043
  S     4.229627  6.430519 -3.361998
  S     6.470090  5.440942 -1.960475
  S     7.440584  9.232827 -5.903570
  S     4.383745  9.852150 -3.158099
  S     6.803309  9.046794 -1.883269
