16  
    
  C     5.553928  6.025113 -4.447209
  C     6.771776  5.651360 -3.650712
  C     5.571631  9.513205 -4.371734
  C     6.776115  9.178924 -3.615155
  N     7.878312  5.492067 -4.380450
  N     5.742443  6.012497 -5.768085
  N     4.816613  5.977802 -2.010045
  N     7.881419  8.991375 -4.346452
  N     5.828583  9.674813 -5.667216
  N     4.941201  9.495759 -1.873511
  S     7.331865  5.744619 -5.961798
  S     4.162193  6.273999 -3.458810
  S     6.446719  5.648146 -1.988493
  S     7.418134  9.250608 -5.941206
  S     4.126368  9.659205 -3.281366
  S     6.588048  9.080088 -1.945171
