16  
    
  C     5.544353  5.675588 -4.400693
  C     6.732872  5.144576 -3.716482
  C     5.466965  9.873957 -4.516957
  C     6.650990  9.220587 -3.959547
  N     7.794296  4.847205 -4.480562
  N     5.778734  5.914870 -5.699475
  N     4.962086  5.664412 -1.883911
  N     7.654805  9.066089 -4.800188
  N     5.586339 10.159165 -5.815691
  N     4.903658  9.307336 -2.063936
  S     7.311717  5.410595 -5.987127
  S     4.150761  5.826926 -3.328056
  S     6.391040  4.829423 -2.005978
  S     7.141828  9.635369 -6.304071
  S     4.087218 10.030543 -3.363870
  S     6.506983  8.968634 -2.276451
