16  
    
  C     5.495271  5.895124 -4.502344
  C     6.758717  5.582207 -3.813455
  C     5.350215  9.727739 -4.410030
  C     6.561454  9.333810 -3.733090
  N     7.808395  5.518340 -4.624607
  N     5.655155  5.994803 -5.797639
  N     4.935719  5.833479 -2.001844
  N     7.448483  8.832863 -4.585121
  N     5.391323  9.671082 -5.756468
  N     4.818544  9.543668 -1.899722
  S     7.226788  5.696265 -6.209996
  S     4.135785  5.925552 -3.505220
  S     6.546775  5.451818 -2.105600
  S     6.933650  8.980190 -6.104170
  S     4.009178  9.921263 -3.310840
  S     6.430487  9.297794 -1.983882
