16  
    
  C     5.478109  6.157038 -4.469236
  C     6.732497  5.659135 -3.963003
  C     5.487012  9.949230 -4.364011
  C     6.592337  9.327394 -3.738010
  N     7.682172  5.402877 -4.858430
  N     5.479593  6.342973 -5.790823
  N     5.260952  5.812524 -1.948524
  N     7.657783  9.081526 -4.507025
  N     5.678532 10.145253 -5.692182
  N     4.829697  9.481311 -1.920575
  S     6.934465  5.868203 -6.281031
  S     4.317742  6.362612 -3.165377
  S     6.783941  5.285469 -2.300647
  S     7.147115  9.501549 -6.066086
  S     4.132019 10.256690 -3.262306
  S     6.357720  9.030181 -2.120941
