16  
    
  C     5.630038  6.600069 -4.557159
  C     6.816604  6.150585 -3.902497
  C     5.605118 10.187653 -4.626854
  C     6.678026  9.619557 -3.895292
  N     7.803996  5.908845 -4.751085
  N     5.716040  6.680519 -5.856492
  N     5.064598  6.449542 -2.049762
  N     7.712123  9.231739 -4.664171
  N     5.710678 10.197288 -6.002259
  N     5.028798 10.073680 -2.028859
  S     7.260565  6.205473 -6.279835
  S     4.316534  7.072509 -3.413174
  S     6.550516  5.772120 -2.235086
  S     7.268547  9.592110 -6.245644
  S     4.262526 10.542624 -3.484201
  S     6.513213  9.459066 -2.192962
