16  
    
  C     5.413715  6.087964 -4.382471
  C     6.723377  5.757444 -3.762486
  C     5.498662  9.653895 -4.271359
  C     6.764306  9.215723 -3.662275
  N     7.707716  5.628496 -4.641782
  N     5.469693  6.060619 -5.709434
  N     4.973010  5.779562 -1.878723
  N     7.751519  9.104048 -4.558011
  N     5.570209  9.881738 -5.593559
  N     4.991425  9.550074 -1.731675
  S     7.120919  5.839009 -6.156462
  S     4.184249  6.255846 -3.232865
  S     6.596335  5.508993 -2.094370
  S     7.113410  9.469768 -6.047634
  S     4.120248  9.832516 -3.180477
  S     6.540549  8.897819 -1.934757
