16  
    
  C     5.655310  5.254501 -4.283067
  C     6.938780  5.025534 -3.675522
  C     5.572430  9.390678 -4.494121
  C     6.733399  8.968704 -3.758629
  N     7.889572  4.775835 -4.578439
  N     5.619389  5.342969 -5.604954
  N     5.277352  5.286577 -1.727843
  N     7.845830  8.745733 -4.444903
  N     5.867925  9.552402 -5.781059
  N     4.791936  9.102800 -2.083653
  S     7.225770  5.072359 -6.041605
  S     4.325973  5.438817 -3.138600
  S     6.864751  4.991309 -1.987384
  S     7.450766  9.114179 -6.011771
  S     4.172327  9.693670 -3.549285
  S     6.401134  8.702036 -2.086478
