16  
    
  C     5.336605  5.526823 -4.380378
  C     6.458260  4.906854 -3.710665
  C     5.511089  9.202615 -4.410538
  C     6.584062  8.418038 -3.840838
  N     7.523449  4.778534 -4.490632
  N     5.509946  5.810843 -5.693260
  N     4.655693  5.179085 -1.859931
  N     7.610624  8.258739 -4.642483
  N     5.777439  9.608766 -5.657970
  N     4.954946  8.960129 -1.892850
  S     6.993386  5.263014 -6.023981
  S     4.091401  5.878923 -3.257091
  S     6.172769  4.603639 -2.003066
  S     7.283404  9.058531 -6.041757
  S     4.171203  9.390044 -3.312057
  S     6.242686  7.863019 -2.157953
