16  
    
  C     5.298231  6.148534 -4.453310
  C     6.339114  5.532084 -3.706728
  C     5.423390  9.617550 -4.219249
  C     6.584996  9.087253 -3.563060
  N     7.391597  5.063399 -4.386635
  N     5.453648  6.097221 -5.792620
  N     4.489328  6.133734 -1.965864
  N     7.689366  8.971583 -4.284969
  N     5.609832  9.963374 -5.468772
  N     4.812398  9.439087 -1.715383
  S     6.932681  5.435950 -5.987384
  S     3.997036  6.735493 -3.423609
  S     6.071866  5.556495 -1.937903
  S     7.211688  9.551779 -5.811785
  S     4.113257  9.705049 -3.141742
  S     6.346330  8.804009 -1.833536
