16  
    
  C     5.505863  5.631087 -4.352228
  C     6.648028  5.093385 -3.673207
  C     5.488576  9.725642 -4.609835
  C     6.656267  9.130764 -3.999883
  N     7.701436  4.862215 -4.468361
  N     5.651291  5.916346 -5.660172
  N     4.784262  5.430837 -1.899679
  N     7.803661  9.184599 -4.714431
  N     5.735633 10.065612 -5.863219
  N     4.780313  9.290219 -2.197208
  S     7.194888  5.444238 -5.932103
  S     4.157236  6.112559 -3.270777
  S     6.321579  4.773694 -1.971458
  S     7.284451  9.802408 -6.216164
  S     4.157499 10.021157 -3.541364
  S     6.340950  8.714405 -2.288573
