16  
    
  C     5.731927  5.327138 -4.261393
  C     6.958129  4.964228 -3.604640
  C     5.701679  9.486797 -4.423482
  C     6.840523  8.946113 -3.717511
  N     8.043678  4.760819 -4.354069
  N     5.951168  5.594830 -5.533042
  N     5.158024  5.329917 -1.734663
  N     7.876945  8.707854 -4.535349
  N     5.884701  9.834589 -5.690374
  N     4.872134  9.124585 -2.000392
  S     7.514041  5.061824 -5.919684
  S     4.357607  5.592832 -3.204061
  S     6.759412  4.866844 -1.848299
  S     7.452894  9.430629 -6.044046
  S     4.279324  9.664206 -3.442583
  S     6.482256  8.695431 -2.056954
