16  
    
  C     5.443669  6.053515 -4.395922
  C     6.696111  5.860689 -3.784646
  C     5.507618  9.715202 -4.265833
  C     6.725178  9.250055 -3.677599
  N     7.730128  5.630670 -4.617951
  N     5.492773  6.072732 -5.734038
  N     4.966962  5.851923 -1.853335
  N     7.777315  9.152962 -4.469573
  N     5.569126  9.844379 -5.541806
  N     4.925148  9.520179 -1.797375
  S     7.058334  5.846621 -6.123056
  S     4.112510  6.229909 -3.252028
  S     6.552454  5.550155 -2.098300
  S     7.082061  9.440087 -6.020637
  S     4.149733  9.880479 -3.214276
  S     6.506547  8.921074 -2.007180
