16  
    
  C     5.652299  5.677397 -4.421346
  C     6.956996  5.410865 -3.832306
  C     5.203694  9.655784 -4.307869
  C     6.437798  9.106999 -3.763065
  N     7.917436  5.207287 -4.728062
  N     5.643119  5.762141 -5.749155
  N     5.252659  5.711956 -1.915766
  N     7.406589  8.832105 -4.650997
  N     5.235870  9.781335 -5.610779
  N     4.686370  9.505458 -1.881089
  S     7.210013  5.509964 -6.244345
  S     4.359908  5.870189 -3.256318
  S     6.816441  5.225139 -2.091709
  S     6.779582  9.261650 -6.122392
  S     3.939726 10.142921 -3.236556
  S     6.341009  9.154918 -2.029603
