16  
    
  C     5.206171  6.356625 -4.697961
  C     6.469391  6.006402 -4.073053
  C     5.815452  9.783752 -4.341171
  C     7.059913  9.320061 -3.787106
  N     7.477404  5.731417 -4.927184
  N     5.300117  6.547021 -6.041404
  N     4.751008  6.426602 -2.139239
  N     8.008250  9.042849 -4.678496
  N     5.796576  9.833209 -5.648553
  N     5.267817  9.469643 -1.870216
  S     6.819498  6.066564 -6.384866
  S     3.954165  6.645971 -3.604572
  S     6.322373  5.994748 -2.329965
  S     7.344512  9.535202 -6.132039
  S     4.496154  9.855311 -3.240476
  S     6.861506  9.140032 -2.062135
