16  
    
  C     5.581414  6.147965 -4.387031
  C     6.767666  5.671339 -3.688736
  C     5.394674  9.599780 -4.235538
  C     6.684982  9.280029 -3.661338
  N     7.813357  5.300320 -4.441538
  N     5.800550  6.290502 -5.689563
  N     4.807137  5.838478 -1.975071
  N     7.706386  9.314514 -4.483548
  N     5.500422  9.889758 -5.514500
  N     4.890093  9.543268 -1.728870
  S     7.324990  5.775331 -5.960668
  S     4.115976  6.370093 -3.383321
  S     6.515899  5.595387 -1.919910
  S     7.019309  9.663382 -5.999944
  S     4.060232  9.609141 -3.193818
  S     6.494693  9.031440 -1.915817
