16  
    
  C     5.436993  6.397544 -4.602156
  C     6.650948  5.960007 -3.921221
  C     5.770743  9.796961 -4.374131
  C     6.969245  9.459456 -3.677664
  N     7.644119  5.669295 -4.798960
  N     5.459717  6.399727 -5.947318
  N     4.904323  6.294200 -2.128635
  N     7.954890  9.216108 -4.554800
  N     5.839022  9.790715 -5.709245
  N     5.075412  9.706038 -1.884007
  S     6.971642  5.919018 -6.304890
  S     4.136706  6.779211 -3.510462
  S     6.482477  5.846281 -2.203582
  S     7.385136  9.494473 -6.109204
  S     4.371718  9.970113 -3.384557
  S     6.725478  9.242398 -1.939740
