16  
    
  C     5.568265  5.641233 -4.111699
  C     6.779377  5.167649 -3.535101
  C     5.535308  8.983006 -4.146020
  C     6.818530  8.934144 -3.516709
  N     7.737103  4.936914 -4.445222
  N     5.528873  5.749273 -5.457720
  N     5.190126  5.367692 -1.577880
  N     7.794757  8.977005 -4.426770
  N     5.539171  8.918838 -5.446276
  N     5.065041  9.136875 -1.644271
  S     7.114332  5.474195 -5.907343
  S     4.365854  5.958130 -2.909452
  S     6.821968  5.223379 -1.759143
  S     7.113281  8.898590 -5.908549
  S     4.237068  8.978444 -3.043922
  S     6.693881  8.735661 -1.763720
