16  
    
  C     5.496899  6.020976 -4.361557
  C     6.556907  5.439888 -3.668005
  C     5.727433  9.744165 -4.218202
  C     6.789624  9.049411 -3.559442
  N     7.633769  5.165747 -4.403781
  N     5.679772  6.297826 -5.662375
  N     4.623800  5.718844 -1.890457
  N     7.814707  8.651174 -4.327391
  N     5.940169  9.911718 -5.518932
  N     5.038072  9.506318 -1.653367
  S     7.131156  5.649561 -5.936684
  S     4.026651  6.210785 -3.348021
  S     6.239112  5.277445 -1.931014
  S     7.444284  9.250648 -5.856476
  S     4.386373  9.969214 -3.119600
  S     6.574298  8.824742 -1.852107
