16  
    
  C     5.543756  5.618657 -4.301057
  C     6.664425  5.026820 -3.660636
  C     5.513561  9.273967 -4.309125
  C     6.727286  8.754555 -3.699283
  N     7.751132  4.939032 -4.399349
  N     5.732058  5.876238 -5.607123
  N     4.978835  5.612464 -1.778674
  N     7.768794  8.656128 -4.508521
  N     5.651182  9.392025 -5.630697
  N     5.003705  9.131124 -1.795603
  S     7.265819  5.338273 -5.939647
  S     4.241214  6.038081 -3.207081
  S     6.547508  5.007400 -1.948845
  S     7.268706  9.142299 -5.960649
  S     4.202125  9.557671 -3.187090
  S     6.564132  8.577163 -1.963800
