16  
    
  C     5.814319  5.746684 -4.342357
  C     6.918654  5.199036 -3.723250
  C     5.668269  9.372375 -4.335159
  C     6.900396  8.828143 -3.855942
  N     7.938329  5.067183 -4.549168
  N     5.948886  6.039515 -5.619759
  N     5.109803  5.308718 -1.929111
  N     7.939034  8.923917 -4.666986
  N     5.847291 10.012094 -5.489393
  N     5.222046  8.878666 -1.839148
  S     7.497579  5.591805 -6.081309
  S     4.414572  5.842544 -3.338630
  S     6.753233  4.958014 -1.999490
  S     7.403241  9.755727 -5.987263
  S     4.364018  9.407022 -3.185579
  S     6.868130  8.613502 -2.089936
