16  
    
  C     5.587370  5.768839 -4.321888
  C     6.862901  5.371934 -3.734503
  C     5.534932  9.371812 -4.702225
  C     6.754203  9.099507 -3.951158
  N     7.837253  5.207346 -4.649232
  N     5.728916  5.954391 -5.629999
  N     5.165729  5.735174 -1.809440
  N     7.826785  9.271754 -4.674600
  N     5.663858  9.644280 -6.014911
  N     4.864963  9.235981 -2.140469
  S     7.203703  5.429710 -6.140058
  S     4.307899  6.039689 -3.227978
  S     6.742737  5.051310 -2.031937
  S     7.343475  9.740674 -6.182646
  S     4.140161  9.585182 -3.613216
  S     6.485434  8.975566 -2.278096
