16  
    
  C     5.600867  5.651666 -4.371348
  C     6.777571  5.426723 -3.600345
  C     5.650758  9.367729 -4.263924
  C     6.910082  9.201500 -3.589096
  N     7.820537  5.214021 -4.351311
  N     5.707624  5.545454 -5.678000
  N     4.879425  5.716313 -1.852039
  N     7.990707  9.319525 -4.391979
  N     5.804447  9.460926 -5.591725
  N     5.199409  8.953696 -1.736220
  S     7.326475  5.402180 -5.892998
  S     4.238957  5.791691 -3.325655
  S     6.489426  5.425993 -1.865597
  S     7.446047  9.432791 -5.885808
  S     4.318163  9.272081 -3.150494
  S     6.854449  8.741950 -1.910140
