16  
    
  C     5.466551  5.960714 -4.192025
  C     6.571485  5.329103 -3.622822
  C     5.665527  9.811252 -4.515528
  C     6.694483  9.089480 -3.852489
  N     7.510062  5.067275 -4.504944
  N     5.553488  6.313230 -5.454779
  N     5.024482  5.821904 -1.668919
  N     7.799651  8.845029 -4.562235
  N     6.002674 10.198041 -5.739289
  N     4.730667  9.217969 -2.166289
  S     7.053143  5.711169 -5.997740
  S     4.205068  6.284647 -3.039571
  S     6.494378  5.156942 -1.888343
  S     7.566944  9.642047 -5.992600
  S     4.256779  9.902606 -3.581963
  S     6.327933  8.787846 -2.124897
