16  
    
  C     5.494710  5.794336 -4.285662
  C     6.620923  5.187435 -3.571923
  C     5.906177  9.204818 -3.958248
  C     7.118401  8.717736 -3.387950
  N     7.555449  4.830776 -4.415115
  N     5.674313  5.982260 -5.583517
  N     4.914057  5.830994 -1.805572
  N     8.114769  8.620034 -4.303527
  N     6.000152  9.519075 -5.250108
  N     5.451354  8.676952 -1.452565
  S     7.238743  5.444979 -5.918952
  S     4.168444  6.136907 -3.230492
  S     6.477877  5.185260 -1.832779
  S     7.533490  9.098673 -5.721920
  S     4.617865  8.976291 -2.872362
  S     7.092822  8.420097 -1.658175
