16  
    
  C     5.560632  5.519067 -4.106273
  C     6.936695  5.285337 -3.643699
  C     5.534923  9.472407 -4.560583
  C     6.590727  8.795259 -3.822716
  N     7.799818  5.176645 -4.645815
  N     5.500626  5.674629 -5.432025
  N     5.398185  5.252244 -1.608707
  N     7.663199  8.537154 -4.554644
  N     5.798073  9.640774 -5.847861
  N     4.874316  9.285529 -2.048906
  S     7.034884  5.483243 -6.064245
  S     4.398441  5.407764 -2.907572
  S     7.009614  5.114419 -1.928722
  S     7.339356  9.079624 -6.100900
  S     4.088600  9.655209 -3.532323
  S     6.320047  8.440660 -2.181475
