16  
    
  C     5.650160  5.711796 -4.054044
  C     6.796128  5.114997 -3.383428
  C     5.545898  9.373227 -3.944797
  C     6.715923  8.798817 -3.346163
  N     7.881316  5.007366 -4.161241
  N     5.939610  6.178560 -5.262563
  N     4.957183  5.371318 -1.597416
  N     7.732966  8.625240 -4.226554
  N     5.692804  9.674228 -5.225128
  N     4.916452  9.260585 -1.480358
  S     7.473574  5.658941 -5.665609
  S     4.266430  5.879444 -2.988566
  S     6.539443  4.993148 -1.691353
  S     7.238122  9.275015 -5.636001
  S     4.182305  9.676350 -2.909678
  S     6.446578  8.563767 -1.581658
