16  
    
  C     5.301764  6.117145 -4.377233
  C     6.593518  5.766265 -3.777947
  C     5.506168  9.670944 -4.388755
  C     6.679813  9.190604 -3.727148
  N     7.626822  5.520909 -4.602660
  N     5.373235  6.229280 -5.708254
  N     4.810449  5.996989 -1.849550
  N     7.736679  9.057310 -4.518600
  N     5.667449  9.914365 -5.697304
  N     4.827518  9.392970 -1.938749
  S     6.965900  5.937110 -6.098559
  S     4.019829  6.287200 -3.247957
  S     6.433645  5.690166 -2.042222
  S     7.227779  9.447571 -6.049545
  S     4.068527  9.932638 -3.323714
  S     6.421498  9.121037 -2.017644
