16  
    
  C     5.476418  5.987632 -4.395973
  C     6.706964  5.707999 -3.758405
  C     5.500949  9.380836 -4.507424
  C     6.778672  9.128790 -3.886102
  N     7.688456  5.465795 -4.598200
  N     5.580310  6.122929 -5.705119
  N     4.960839  5.802034 -1.906251
  N     7.908326  9.196230 -4.610496
  N     5.690884  9.554725 -5.813548
  N     4.985768  9.266125 -1.973887
  S     7.124237  5.780826 -6.117744
  S     4.149633  6.189788 -3.288815
  S     6.655037  5.555549 -2.066303
  S     7.347130  9.305272 -6.151852
  S     4.121292  9.401889 -3.346505
  S     6.695738  8.899471 -2.140503
