16  
    
  C     5.603483  5.346828 -4.395077
  C     6.851189  5.063409 -3.691215
  C     5.485289  9.392758 -4.393681
  C     6.728681  9.037508 -3.710910
  N     7.950964  4.897503 -4.444750
  N     5.805973  5.490327 -5.710632
  N     5.061870  5.546361 -1.903754
  N     7.720329  8.829193 -4.563477
  N     5.539644  9.484557 -5.698175
  N     4.845954  9.041393 -1.997193
  S     7.425509  5.133521 -6.039998
  S     4.232180  5.590083 -3.354698
  S     6.646316  5.181971 -1.971986
  S     7.193281  9.110677 -6.107071
  S     4.170658  9.815316 -3.335934
  S     6.473818  8.853769 -1.965103
