16  
    
  C     5.653535  5.888664 -4.182330
  C     6.812738  5.262504 -3.572192
  C     5.678827  9.537547 -4.459213
  C     6.905055  9.138841 -3.821147
  N     7.811678  4.997178 -4.379274
  N     5.757492  6.114476 -5.475858
  N     5.047119  5.397562 -1.735411
  N     7.942773  8.898547 -4.659923
  N     5.735333  9.525718 -5.798264
  N     5.186006  9.198146 -1.926809
  S     7.320398  5.610777 -5.885495
  S     4.350404  6.088440 -3.044299
  S     6.569100  4.927643 -1.940304
  S     7.254285  9.103850 -6.214025
  S     4.424790  9.888185 -3.252419
  S     6.788194  8.904190 -2.131711
