16  
    
  C     5.256455  6.289007 -4.385524
  C     6.480731  5.772409 -3.796105
  C     5.658525  9.551161 -4.265091
  C     6.921308  9.067593 -3.661786
  N     7.475951  5.453221 -4.662999
  N     5.387481  6.557466 -5.682911
  N     4.736517  6.044364 -1.861757
  N     7.942641  8.935221 -4.477323
  N     5.840048  9.693449 -5.536980
  N     5.214405  9.479732 -1.777058
  S     6.881403  6.041861 -6.131019
  S     3.895936  6.550502 -3.207313
  S     6.310758  5.576317 -2.006030
  S     7.373010  9.279994 -6.036291
  S     4.369602  9.760673 -3.098899
  S     6.809183  8.934659 -1.924177
