16  
    
  C     5.647203  5.848638 -4.427816
  C     6.884559  5.417098 -3.864669
  C     5.864982  9.595517 -3.895635
  C     7.075209  8.953845 -3.447875
  N     7.879305  5.245745 -4.705352
  N     5.728055  5.992472 -5.726210
  N     5.177369  5.313418 -1.895741
  N     7.987876  8.825328 -4.415783
  N     5.805655  9.878173 -5.191327
  N     5.395234  8.807409 -1.490312
  S     7.351943  5.675849 -6.186496
  S     4.396622  5.792214 -3.248786
  S     6.787938  5.085432 -2.162238
  S     7.234086  9.286589 -5.824676
  S     4.523512  9.538634 -2.772255
  S     6.972499  8.393906 -1.847548
