16  
    
  C     5.569908  5.756100 -4.320833
  C     6.874501  5.345307 -3.735930
  C     5.529768  9.378047 -4.711033
  C     6.733872  9.113859 -3.934607
  N     7.860084  5.204094 -4.638902
  N     5.712383  5.941746 -5.626079
  N     5.166367  5.738374 -1.817545
  N     7.825801  9.270404 -4.657990
  N     5.665019  9.606587 -6.002638
  N     4.857602  9.256100 -2.135644
  S     7.203278  5.434166 -6.142545
  S     4.296167  6.049922 -3.229948
  S     6.733333  5.073249 -2.034700
  S     7.314135  9.720379 -6.194207
  S     4.137782  9.597254 -3.617435
  S     6.484686  8.975185 -2.286366
