16  
    
  C     5.199248  5.283603 -3.974112
  C     6.390584  4.951536 -3.334723
  C     5.328423  9.417858 -4.252338
  C     6.561838  9.129378 -3.552292
  N     7.458219  4.716584 -4.112409
  N     5.327427  5.324622 -5.299266
  N     4.590049  5.150744 -1.501420
  N     7.583269  8.971727 -4.355474
  N     5.467048  9.421971 -5.602617
  N     4.772830  9.235830 -1.699137
  S     6.941020  5.125663 -5.613177
  S     3.839721  5.289687 -2.989670
  S     6.211415  4.711326 -1.597551
  S     7.013910  9.034845 -5.903937
  S     3.982389  9.653772 -3.110969
  S     6.404396  8.850796 -1.849331
