16  
    
  C     5.440042  5.503159 -4.211405
  C     6.597365  5.200815 -3.473338
  C     5.808031  8.855281 -3.947325
  C     7.081904  8.514782 -3.365221
  N     7.709398  4.972002 -4.217607
  N     5.625545  5.550721 -5.531305
  N     4.716349  5.667935 -1.733771
  N     8.028419  8.500988 -4.287171
  N     5.839195  9.062927 -5.246644
  N     5.355703  8.752833 -1.437078
  S     7.199271  5.046328 -5.795112
  S     4.081584  5.856106 -3.222328
  S     6.279633  5.136968 -1.775212
  S     7.394801  8.862742 -5.736160
  S     4.494569  9.146546 -2.825427
  S     6.900375  8.140424 -1.665318
