16  
    
  C     5.469590  5.925330 -4.260508
  C     6.571943  5.269839 -3.683396
  C     5.679364  9.975351 -4.550604
  C     6.674255  9.240250 -3.837808
  N     7.566578  4.907648 -4.499990
  N     5.654505  6.244935 -5.537076
  N     4.906872  5.675926 -1.766613
  N     7.757077  9.080617 -4.592737
  N     5.936423 10.291505 -5.814436
  N     4.681485  9.092963 -2.310140
  S     7.095154  5.467160 -5.980459
  S     4.147809  6.198796 -3.139131
  S     6.366264  4.895422 -1.946118
  S     7.420089  9.708766 -6.082555
  S     4.182280 10.010479 -3.571317
  S     6.295793  8.631252 -2.293767
