16  
    
  C     5.631126  6.082093 -4.304065
  C     6.804872  5.536953 -3.633246
  C     5.818167  9.153207 -4.220107
  C     7.064797  8.886509 -3.530291
  N     7.789193  5.250653 -4.488683
  N     5.713516  6.163732 -5.658896
  N     4.911697  5.458891 -1.912928
  N     8.171096  8.851778 -4.245274
  N     5.979334  9.323528 -5.526067
  N     5.380718  9.103714 -1.605956
  S     7.272186  5.710139 -6.003551
  S     4.297542  6.334184 -3.200834
  S     6.564676  5.140731 -1.912314
  S     7.610985  9.141545 -5.827140
  S     4.599500  9.418610 -2.988617
  S     6.962445  8.560297 -1.787064
