16  
    
  C     5.516553  6.125490 -4.409257
  C     6.745095  5.577678 -3.917988
  C     5.472542  9.832312 -4.241803
  C     6.605632  9.152053 -3.679636
  N     7.639326  5.384067 -4.853530
  N     5.566296  6.535441 -5.670777
  N     5.087652  5.617015 -1.964299
  N     7.640640  8.843796 -4.527759
  N     5.601909 10.044651 -5.565520
  N     4.967824  9.855086 -1.761272
  S     6.993098  6.003952 -6.272447
  S     4.356763  6.361817 -3.184444
  S     6.688077  5.288821 -2.205146
  S     7.125050  9.520888 -5.981756
  S     4.169283 10.140422 -3.179607
  S     6.448376  9.038553 -1.890816
