16  
    
  C     5.573465  6.261165 -4.690499
  C     6.621366  5.561115 -3.908397
  C     5.638624  9.708288 -4.469067
  C     6.795868  9.171469 -3.824315
  N     7.657356  5.322146 -4.655942
  N     5.809311  6.522147 -5.954390
  N     4.637050  5.733887 -2.343689
  N     7.913918  9.054397 -4.548381
  N     5.895822  9.958232 -5.775595
  N     4.986493  9.221940 -1.978384
  S     7.419809  5.986416 -6.176841
  S     4.144783  6.445036 -3.728405
  S     6.224511  5.249170 -2.264258
  S     7.457233  9.540499 -6.089405
  S     4.255150  9.771236 -3.369315
  S     6.618180  8.801201 -2.141942
