16  
    
  C     5.370350  5.617956 -4.347567
  C     6.504555  4.968726 -3.681344
  C     5.478952  9.203596 -4.359072
  C     6.566076  8.465619 -3.799956
  N     7.539685  4.714130 -4.486734
  N     5.530608  5.732900 -5.657328
  N     4.581655  5.144813 -1.936226
  N     7.629572  8.260876 -4.596895
  N     5.693968  9.559358 -5.613218
  N     4.896959  8.862243 -1.871759
  S     7.062866  5.250197 -6.033351
  S     3.969823  5.961876 -3.289288
  S     6.205386  4.744607 -1.975806
  S     7.237091  8.940966 -6.004262
  S     4.121888  9.346746 -3.268453
  S     6.396248  8.195491 -2.116982
