16  
    
  C     5.491387  6.139258 -4.420643
  C     6.700223  5.737765 -3.721921
  C     5.439999  9.675932 -4.310909
  C     6.672368  9.316441 -3.672599
  N     7.738154  5.485612 -4.524807
  N     5.604639  6.267277 -5.760134
  N     4.817352  5.973369 -1.863701
  N     7.728608  9.193161 -4.453294
  N     5.590774  9.846065 -5.634509
  N     4.873907  9.366452 -1.774050
  S     7.118825  5.766391 -6.074163
  S     4.140974  6.465561 -3.259109
  S     6.451602  5.611781 -1.971063
  S     7.195749  9.619133 -5.976095
  S     4.088420  9.564584 -3.180502
  S     6.531196  9.022282 -2.028459
