16  
    
  C     5.247373  6.273124 -4.352967
  C     6.302544  5.533597 -3.613700
  C     5.570515  9.747502 -4.166180
  C     6.737372  9.107761 -3.543835
  N     7.265305  4.967207 -4.350683
  N     5.558504  6.389175 -5.623239
  N     4.440561  6.184985 -1.943623
  N     7.762996  8.822872 -4.384172
  N     5.737059  9.994722 -5.480545
  N     4.988619  9.437640 -1.761399
  S     6.872655  5.459397 -5.927490
  S     3.888388  6.760126 -3.394987
  S     6.004499  5.512195 -1.884391
  S     7.299496  9.467312 -5.870667
  S     4.128799  9.738548 -3.093278
  S     6.557533  8.850995 -1.900301
