16  
    
  C     5.623875  6.079139 -4.159154
  C     6.789810  5.525358 -3.561354
  C     5.807102  9.544741 -4.248715
  C     7.038875  9.089244 -3.663047
  N     7.777995  5.299278 -4.401091
  N     5.720823  6.135268 -5.477088
  N     4.990074  5.914790 -1.692258
  N     8.050318  8.912988 -4.478459
  N     5.908595  9.676566 -5.561860
  N     5.519433  9.668097 -1.670592
  S     7.293252  5.768621 -5.930815
  S     4.386704  6.607653 -3.068929
  S     6.555864  5.317775 -1.877803
  S     7.483139  9.385395 -5.966429
  S     4.618150  9.994808 -3.043291
  S     6.977693  8.949284 -1.941179
