16  
    
  C     5.391266  6.082220 -4.394477
  C     6.639703  5.755223 -3.793970
  C     5.479374  9.749715 -4.361272
  C     6.676243  9.367517 -3.645269
  N     7.689540  5.715160 -4.599954
  N     5.413953  6.165202 -5.707536
  N     4.892725  5.933660 -1.896092
  N     7.681572  9.125606 -4.493345
  N     5.546388  9.831975 -5.695441
  N     4.914904  9.405047 -1.848372
  S     7.035164  5.842471 -6.140813
  S     4.052399  6.220640 -3.295967
  S     6.556518  5.606376 -2.012879
  S     7.151035  9.423298 -5.982283
  S     4.158677  9.932313 -3.235656
  S     6.470028  8.970642 -1.991896
