16  
    
  C     5.586829  6.077161 -4.471075
  C     6.795925  5.792271 -3.722131
  C     5.506370  9.631384 -4.489546
  C     6.665395  9.168272 -3.767631
  N     7.850016  5.571201 -4.509358
  N     5.784456  6.150056 -5.797364
  N     4.911815  5.977945 -1.917163
  N     7.798346  9.101634 -4.435892
  N     5.724730  9.838611 -5.799421
  N     4.909153  9.495560 -1.970228
  S     7.374250  5.805261 -6.112094
  S     4.296987  6.392600 -3.387493
  S     6.517333  5.586518 -2.069941
  S     7.377025  9.337094 -5.999939
  S     4.192900  9.898730 -3.356952
  S     6.538389  8.963833 -2.060432
