16  
    
  C     5.522308  5.954326 -4.525877
  C     6.798166  5.635676 -3.955758
  C     5.817582  9.460347 -4.212770
  C     7.102643  9.127653 -3.628460
  N     7.762867  5.599989 -4.880644
  N     5.573923  6.274203 -5.819097
  N     5.017508  5.633835 -2.010392
  N     8.121189  9.050056 -4.445627
  N     5.804684  9.521741 -5.537971
  N     5.361427  9.175678 -1.707538
  S     7.154147  6.072065 -6.285230
  S     4.175131  5.970600 -3.427374
  S     6.638578  5.331445 -2.166382
  S     7.385693  9.292554 -5.998567
  S     4.463740  9.555784 -3.113841
  S     6.930941  8.764355 -1.887820
