16  
    
  C     5.658660  5.503561 -4.382959
  C     6.836453  5.205017 -3.658033
  C     5.578902  9.611576 -4.287067
  C     6.741848  9.064679 -3.655251
  N     7.872158  4.907910 -4.467214
  N     5.757613  5.383742 -5.723391
  N     4.966840  5.617871 -1.880357
  N     7.772543  8.847356 -4.447042
  N     5.730507  9.760145 -5.608982
  N     4.922388  9.109622 -1.829684
  S     7.351355  5.069004 -6.011464
  S     4.294132  5.670989 -3.411870
  S     6.616410  5.270108 -1.918488
  S     7.247254  9.181907 -5.961087
  S     4.190879  9.618038 -3.230808
  S     6.555134  8.785074 -1.976912
