16  
    
  C     5.802983  5.754147 -3.940834
  C     6.919414  4.992621 -3.441720
  C     5.599773  9.625992 -4.146137
  C     6.826751  9.025604 -3.684847
  N     7.889781  4.846885 -4.345447
  N     6.039299  6.426728 -5.069956
  N     5.157577  5.048805 -1.541439
  N     7.831336  8.904679 -4.564784
  N     5.748200 10.114801 -5.362052
  N     5.183579  8.903341 -1.643263
  S     7.406214  5.822662 -5.693149
  S     4.431723  5.755910 -2.839867
  S     6.715861  4.606213 -1.800683
  S     7.279545  9.760880 -5.899264
  S     4.309321  9.627838 -2.910278
  S     6.755492  8.503475 -2.021227
