16  
    
  C     5.106189  5.877873 -4.301830
  C     6.328106  5.476162 -3.686425
  C     5.465593  9.398126 -4.049950
  C     6.674958  8.869973 -3.436859
  N     7.334038  5.215741 -4.513350
  N     5.225551  6.021908 -5.611695
  N     4.603365  5.874852 -1.786690
  N     7.588887  8.620732 -4.329588
  N     5.474752  9.493225 -5.377777
  N     5.090613  9.537317 -1.464994
  S     6.780438  5.655143 -6.020813
  S     3.773104  6.204406 -3.200826
  S     6.200984  5.483417 -1.908950
  S     6.949298  8.983090 -5.909967
  S     4.266217  9.922577 -2.839605
  S     6.578397  8.755886 -1.676411
