16  
    
  C     5.642853  5.721468 -4.263333
  C     6.833078  5.316657 -3.629845
  C     5.537616  9.446897 -4.402487
  C     6.816249  9.173758 -3.776774
  N     7.858639  5.322453 -4.499142
  N     5.713896  6.062904 -5.563724
  N     5.030123  5.315263 -1.820789
  N     7.804207  9.044536 -4.597564
  N     5.643159  9.516659 -5.727113
  N     5.209194  9.376764 -1.814654
  S     7.281519  5.727537 -6.011386
  S     4.242056  5.883228 -3.208723
  S     6.704227  4.952636 -1.903497
  S     7.212734  9.239676 -6.118950
  S     4.320850  9.809183 -3.183273
  S     6.769661  8.954345 -2.042071
