16  
    
  C     5.488757  5.918438 -4.481450
  C     6.755364  5.582543 -3.851729
  C     5.430953  9.416240 -4.337205
  C     6.712910  9.023061 -3.763928
  N     7.817764  5.396640 -4.643637
  N     5.604297  5.962181 -5.822548
  N     5.061598  5.732755 -1.889906
  N     7.651765  8.904003 -4.696779
  N     5.445593  9.740024 -5.636570
  N     5.049479  9.432465 -1.801314
  S     7.199598  5.636884 -6.186637
  S     4.196403  5.922041 -3.348051
  S     6.684998  5.475436 -2.117368
  S     7.014852  9.365458 -6.144950
  S     4.178325  9.844932 -3.189810
  S     6.649012  9.186782 -2.030575
