16  
    
  C     5.319761  6.222851 -4.362461
  C     6.461954  5.653841 -3.768297
  C     5.665871  9.559010 -4.284950
  C     6.937455  9.203839 -3.661193
  N     7.463986  5.574079 -4.628399
  N     5.353055  6.451682 -5.661393
  N     4.825880  6.142517 -1.813669
  N     7.940332  8.996938 -4.525517
  N     5.689561  9.676329 -5.586487
  N     5.079865  9.334254 -1.748297
  S     6.929477  5.974656 -6.151051
  S     4.037906  6.517519 -3.250592
  S     6.374649  5.576553 -2.062210
  S     7.260843  9.396554 -5.989799
  S     4.336883  9.717045 -3.238712
  S     6.662636  8.941172 -1.922314
