16  
    
  C     5.603904  6.104708 -4.413641
  C     6.756767  5.562456 -3.698209
  C     5.363220  9.664671 -4.286075
  C     6.578793  9.349789 -3.580352
  N     7.861541  5.389505 -4.449663
  N     5.820591  6.327108 -5.729095
  N     4.829703  5.861261 -1.910685
  N     7.563425  9.245871 -4.403702
  N     5.452431  9.801849 -5.611552
  N     4.942407  9.332627 -1.649294
  S     7.370470  5.889262 -5.963257
  S     4.224131  6.369039 -3.380782
  S     6.467944  5.386749 -1.965114
  S     7.058130  9.555194 -5.966627
  S     4.037169  9.783272 -3.068898
  S     6.575523  9.058758 -1.901166
