16  
    
  C     5.390225  5.707436 -4.269576
  C     6.671019  5.370022 -3.616323
  C     5.436171  9.270797 -4.281821
  C     6.699707  8.923715 -3.641363
  N     7.661150  5.188753 -4.481912
  N     5.524145  5.727380 -5.584381
  N     4.917559  5.600910 -1.726793
  N     7.732010  8.917369 -4.473974
  N     5.507043  9.420196 -5.555310
  N     5.014234  9.375056 -1.762612
  S     7.106381  5.564806 -5.984082
  S     4.085297  5.975024 -3.171850
  S     6.515134  5.185628 -1.923218
  S     7.080456  9.183101 -6.001495
  S     4.120987  9.601963 -3.159775
  S     6.555471  8.664208 -1.940405
