16  
    
  C     5.563905  6.341251 -4.466121
  C     6.704523  5.711454 -3.914617
  C     5.362501  9.914846 -4.709400
  C     6.591032  9.571938 -4.081070
  N     7.768420  5.524722 -4.692910
  N     5.770368  6.618287 -5.771335
  N     5.002190  5.947878 -2.021843
  N     7.667166  9.414323 -4.853957
  N     5.502487 10.118270 -6.017173
  N     4.941023  9.744246 -2.101638
  S     7.274113  6.140441 -6.233705
  S     4.231430  6.544093 -3.376643
  S     6.638980  5.575024 -2.188023
  S     7.132100  9.743580 -6.409234
  S     4.063792 10.133214 -3.583054
  S     6.564426  9.554434 -2.316155
