16  
    
  C     5.683297  6.227041 -4.189725
  C     6.865228  5.603496 -3.687847
  C     5.842267  9.503526 -4.246313
  C     7.006155  8.907743 -3.628839
  N     7.803004  5.434024 -4.595733
  N     5.777747  6.524484 -5.468715
  N     5.151849  5.721985 -1.751608
  N     7.965387  8.705206 -4.546621
  N     5.909014  9.742910 -5.568576
  N     5.473672  9.259676 -1.713600
  S     7.292265  6.058313 -6.034234
  S     4.373809  6.222796 -3.100347
  S     6.741906  5.251316 -2.020440
  S     7.407103  9.163944 -6.014229
  S     4.592921  9.696924 -3.065646
  S     7.053169  8.807482 -1.882637
