16  
    
  C     5.457215  5.790166 -4.422281
  C     6.674840  5.314759 -3.715719
  C     5.720839  9.197627 -4.267754
  C     6.924862  8.927496 -3.533983
  N     7.718850  5.012672 -4.511077
  N     5.638718  5.867667 -5.726400
  N     4.830612  5.584064 -1.940545
  N     7.967088  8.573011 -4.280741
  N     5.844253  9.041559 -5.578715
  N     5.207994  9.305713 -1.690283
  S     7.103830  5.212212 -6.068700
  S     4.095389  5.974614 -3.371212
  S     6.539288  5.291996 -1.946025
  S     7.421319  8.673666 -5.876920
  S     4.355785  9.407933 -3.091599
  S     6.811629  9.022804 -1.829524
