16  
    
  C     5.621975  5.244503 -4.270288
  C     6.906132  5.014321 -3.710379
  C     5.601503  9.408814 -4.490131
  C     6.752060  8.965966 -3.744812
  N     7.896402  4.851718 -4.597872
  N     5.617260  5.327428 -5.604734
  N     5.277379  5.274904 -1.744302
  N     7.833902  8.754193 -4.475016
  N     5.846314  9.497685 -5.798187
  N     4.773230  9.110359 -2.074945
  S     7.210769  5.050801 -6.057077
  S     4.303950  5.434837 -3.104862
  S     6.883414  4.992098 -1.996959
  S     7.428874  9.091908 -6.014128
  S     4.172838  9.680868 -3.550047
  S     6.372669  8.696429 -2.092085
