16  
    
  C     5.498241  5.989413 -4.387874
  C     6.709465  5.708590 -3.765867
  C     5.512863  9.378942 -4.503830
  C     6.788216  9.135916 -3.881095
  N     7.683451  5.465382 -4.597338
  N     5.581635  6.121924 -5.696228
  N     4.957863  5.792960 -1.914214
  N     7.909615  9.191467 -4.617458
  N     5.688699  9.549546 -5.797405
  N     4.988368  9.280639 -1.977957
  S     7.135762  5.775114 -6.105593
  S     4.152327  6.184843 -3.296335
  S     6.651016  5.567245 -2.072917
  S     7.346797  9.313771 -6.151630
  S     4.120285  9.410522 -3.346045
  S     6.696323  8.907225 -2.131972
