16  
    
  C     5.399789  5.612349 -4.412144
  C     6.547195  5.098052 -3.700651
  C     5.505711  9.121218 -4.243614
  C     6.772641  8.824634 -3.616073
  N     7.617690  4.861788 -4.451012
  N     5.615594  5.748065 -5.718700
  N     4.622136  5.633672 -1.933612
  N     7.775993  8.606886 -4.445082
  N     5.553491  9.064314 -5.580205
  N     4.966782  8.966914 -1.692615
  S     7.190115  5.257760 -6.032460
  S     3.917276  5.834012 -3.427715
  S     6.188269  4.997285 -1.929190
  S     7.078660  8.741887 -6.011756
  S     4.200951  9.368578 -3.136743
  S     6.609015  8.761847 -1.889881
