16  
    
  C     5.766687  5.906922 -3.859167
  C     6.887198  5.060114 -3.472736
  C     5.624983  9.649746 -4.058696
  C     6.797560  8.963486 -3.559499
  N     7.803820  4.962743 -4.431995
  N     5.824202  6.398951 -5.097425
  N     5.115245  4.944666 -1.596869
  N     7.808638  8.955529 -4.410382
  N     5.695898 10.089772 -5.293381
  N     5.139623  8.899442 -1.664744
  S     7.341366  5.926845 -5.661803
  S     4.400285  5.814315 -2.804497
  S     6.770968  4.524397 -1.769948
  S     7.216847  9.599052 -5.847808
  S     4.340917  9.642482 -2.893393
  S     6.756232  8.507868 -1.891865
