16  
    
  C     5.521715  6.051317 -4.352439
  C     6.653206  5.503337 -3.679491
  C     5.726399  9.547152 -4.189999
  C     6.944452  8.955788 -3.618138
  N     7.745301  5.233027 -4.390234
  N     5.734518  6.228974 -5.651099
  N     4.709693  5.620232 -1.916140
  N     7.922493  8.806490 -4.502920
  N     5.810028  9.784185 -5.490936
  N     5.171429  9.573574 -1.691148
  S     7.293968  5.755544 -5.913985
  S     4.153899  6.375961 -3.317294
  S     6.285720  5.146825 -2.007045
  S     7.314306  9.302532 -5.959905
  S     4.379526  9.911922 -3.125619
  S     6.725062  8.833554 -1.889915
