16  
    
  C     5.353752  6.078134 -4.370676
  C     6.612762  5.729989 -3.735758
  C     5.441724  9.765311 -4.397252
  C     6.646295  9.366146 -3.709710
  N     7.605561  5.708111 -4.622556
  N     5.415222  6.201616 -5.696391
  N     4.885963  5.956083 -1.881720
  N     7.676814  9.099918 -4.475480
  N     5.584152  9.833789 -5.727265
  N     4.830543  9.367756 -1.845537
  S     7.024495  5.862234 -6.153255
  S     4.051356  6.227647 -3.312123
  S     6.521623  5.640975 -1.996251
  S     7.201532  9.422346 -6.025706
  S     4.124435  9.954221 -3.249465
  S     6.491657  9.002024 -1.965104
