16  
    
  C     5.665149  5.726299 -4.392001
  C     6.914312  5.221635 -3.949013
  C     5.685929  9.129412 -4.079894
  C     6.971514  8.676159 -3.598689
  N     7.917502  5.318124 -4.834409
  N     5.743287  6.279945 -5.599783
  N     5.371004  5.209963 -1.931333
  N     7.944451  8.639563 -4.513133
  N     5.652428  9.473205 -5.348052
  N     5.474559  8.820365 -1.568060
  S     7.365573  6.066206 -6.182288
  S     4.410271  5.877402 -3.113947
  S     6.937160  4.786314 -2.299056
  S     7.238118  9.247722 -5.880798
  S     4.536199  9.358952 -2.845277
  S     7.016734  8.327684 -1.924271
