16  
    
  C     5.587385  5.554979 -3.993577
  C     6.848169  5.149550 -3.401444
  C     5.841256  9.401605 -3.892098
  C     7.103018  9.098226 -3.253879
  N     7.831190  4.907111 -4.245198
  N     5.632040  5.618087 -5.315362
  N     5.201844  5.482392 -1.515557
  N     8.120617  8.886773 -4.071480
  N     5.893424  9.407853 -5.229877
  N     5.318041  9.138370 -1.367608
  S     7.237622  5.237231 -5.736973
  S     4.304811  5.720106 -2.917725
  S     6.795258  5.010694 -1.706099
  S     7.495261  8.959578 -5.618491
  S     4.480967  9.525820 -2.735925
  S     6.970105  8.867480 -1.569783
