16  
    
  C     5.404286  5.699935 -4.377805
  C     6.646633  5.364883 -3.732341
  C     5.377441 10.040748 -4.577846
  C     6.536878  9.372815 -3.974771
  N     7.657555  5.319948 -4.667685
  N     5.400482  5.946464 -5.697592
  N     4.929714  5.598962 -1.840328
  N     7.537944  9.263367 -4.852167
  N     5.521108 10.424104 -5.862163
  N     4.694492  9.684948 -2.059838
  S     7.004469  5.683573 -6.079671
  S     4.075808  5.642762 -3.271393
  S     6.526991  5.280454 -2.006795
  S     6.934341  9.846313 -6.315466
  S     3.975095 10.277912 -3.546278
  S     6.226187  9.139279 -2.299181
