16  
    
  C     5.567547  5.487447 -4.226129
  C     6.835913  5.347711 -3.580239
  C     5.232009  9.963455 -4.614220
  C     6.353850  9.253188 -4.018759
  N     7.869092  5.294914 -4.418360
  N     5.645872  5.408177 -5.571209
  N     4.992985  5.492446 -1.749525
  N     7.381130  8.930153 -4.825860
  N     5.444698 10.208633 -5.870413
  N     4.620300  9.741620 -2.147543
  S     7.265151  5.319034 -5.943286
  S     4.217207  5.655119 -3.242387
  S     6.666043  5.371971 -1.814842
  S     6.864074  9.528918 -6.297568
  S     3.981549 10.480297 -3.514990
  S     6.091881  9.140282 -2.234403
