16  
    
  C     5.303711  6.300962 -4.318611
  C     6.205820  5.484286 -3.593152
  C     5.632917  9.677843 -4.194055
  C     6.824143  9.129917 -3.596161
  N     7.211500  5.023690 -4.335982
  N     5.509403  6.441501 -5.643041
  N     4.444909  6.210421 -1.896729
  N     7.801957  8.857515 -4.417212
  N     5.787856  9.947077 -5.445995
  N     5.054230  9.400140 -1.675983
  S     6.882193  5.551302 -5.879648
  S     3.873079  6.748485 -3.388068
  S     5.969835  5.484466 -1.882445
  S     7.262182  9.446192 -5.899932
  S     4.303765  9.797575 -3.142641
  S     6.592321  8.860942 -1.877009
