16  
    
  C     7.660363  6.303296  2.210089
  C     7.820444 10.110158  2.442142
  C     6.403099  5.847756  1.646155
  C     6.658211  9.458864  1.792969
  N     8.642856  6.439627  1.333374
  N     8.783358 10.533215  1.608916
  N     6.383312  5.780216  0.324147
  N     6.825260  9.310205  0.506211
  N     5.935872  6.112657  4.234903
  N     6.093045  9.517953  4.356078
  S     5.177285  5.545661  2.801416
  S     5.344386  9.189422  2.879651
  S     7.928123  6.087988 -0.185222
  S     8.261023  9.888746  0.075325
  S     7.530222  6.387295  3.977816
  S     7.622000 10.202847  4.198159
