16  
    
  C     6.852696  5.725786  1.658421
  C     7.248675  9.974778  2.487499
  C     5.755188  5.003004  1.073689
  C     5.994301  9.478290  1.937434
  N     7.960079  5.741110  0.921610
  N     8.220206 10.182422  1.579158
  N     5.945954  4.738602 -0.207202
  N     6.048238  9.254183  0.627018
  N     4.844090  5.878895  3.278406
  N     5.564617  9.658054  4.465787
  S     4.320136  5.033947  1.955324
  S     4.754877  9.429443  3.062702
  S     7.511931  5.107055 -0.533490
  S     7.540640  9.602704  0.124060
  S     6.430707  6.290188  3.234897
  S     7.164115 10.289534  4.201347
