16  
    
  C     5.787083  5.546957  2.030544
  C     5.860908  8.980862  1.986165
  C     4.555668  5.214710  1.373638
  C     4.656952  8.670995  1.312975
  N     6.834914  5.536538  1.216724
  N     6.921068  9.120767  1.212729
  N     4.675012  5.070648  0.045972
  N     4.789431  8.465474  0.014257
  N     4.005419  5.577011  3.835163
  N     4.005823  9.004007  3.735487
  S     3.122237  5.469723  2.375549
  S     3.300718  8.741695  2.334335
  S     6.277881  5.174366 -0.329678
  S     6.451573  8.771377 -0.324451
  S     5.633705  5.882582  3.790663
  S     5.647942  9.167462  3.737256
