16  
    
  C    12.711807  9.065855  3.336451
  C    12.698491 12.859905  3.507428
  C    11.405464  8.739134  2.750876
  C    11.592576 12.262713  2.780795
  N    13.745414  9.204057  2.506972
  N    13.813604 13.052387  2.799155
  N    11.548764  8.565041  1.444082
  N    11.821876 12.095129  1.487932
  N    11.115129  8.883012  5.369484
  N    10.849610 12.501565  5.225784
  S    10.243887  8.494025  4.057373
  S    10.207184 12.045945  3.806577
  S    13.132381  8.768723  1.022064
  S    13.352350 12.713902  1.197231
  S    12.629163  9.491042  5.047400
  S    12.338951 13.166243  5.125250
