16  
    
  C     5.080614  5.081524  2.042928
  C     5.181990  8.557131  1.855637
  C     3.861675  4.757734  1.373800
  C     3.970548  8.517731  1.034684
  N     6.198769  5.019670  1.342662
  N     6.309677  8.526129  1.116763
  N     4.027883  4.681478  0.038323
  N     4.255924  8.279898 -0.250880
  N     3.255884  5.337948  3.885909
  N     3.183830  8.690738  3.498389
  S     2.497612  5.087446  2.426289
  S     2.518013  8.431203  1.965563
  S     5.669850  4.841792 -0.226355
  S     5.849670  8.302538 -0.458730
  S     4.959929  5.502842  3.696807
  S     4.855533  8.795657  3.538397
