16  
    
  C     9.018721  7.005465  2.385922
  C     9.161688 10.831920  2.500491
  C     7.809877  6.741556  1.629364
  C     7.923055 10.401294  1.846401
  N    10.047019  7.343742  1.632607
  N    10.145586 11.065573  1.633788
  N     7.941036  6.739430  0.306676
  N     7.988157 10.295472  0.536947
  N     7.140609  6.680997  4.125063
  N     7.446167 10.550335  4.397167
  S     6.467305  6.500614  2.640448
  S     6.598627 10.464364  2.967239
  S     9.565466  7.177416  0.026541
  S     9.547367 10.733637  0.073888
  S     8.758043  7.108457  4.113447
  S     9.027614 11.100435  4.199300
