16  
    
  C     3.998514  4.679354  1.658766
  C     3.945485  8.489858  1.527274
  C     2.739372  4.505650  0.990896
  C     2.831997  7.940570  0.884711
  N     5.091841  4.737396  0.877112
  N     5.065659  8.479933  0.780736
  N     2.890652  4.239948 -0.308085
  N     2.994422  7.716118 -0.435920
  N     2.304117  4.828005  3.588320
  N     2.075276  8.361116  3.358762
  S     1.464882  4.335086  2.237208
  S     1.415534  7.905411  1.892566
  S     4.597017  4.347415 -0.650724
  S     4.594960  8.054403 -0.736440
  S     3.999806  4.985974  3.363298
  S     3.704947  8.666194  3.274821
