16  
    
  C    11.878099  8.396395  3.240982
  C    11.448471 12.105665  3.506340
  C    10.643714  8.159564  2.562837
  C    10.312555 11.464491  2.835226
  N    12.873002  8.682236  2.445065
  N    12.485477 12.326926  2.684670
  N    10.732867  8.159840  1.246854
  N    10.456373 11.377253  1.493744
  N    10.183297  8.105957  5.135293
  N     9.730944 11.710840  5.289319
  S     9.342096  8.145877  3.701042
  S     8.975914 11.110361  3.982170
  S    12.299039  8.590441  0.887491
  S    12.004115 12.042910  1.171907
  S    11.828574  8.439305  4.999311
  S    11.279058 12.183227  5.249287
