16  
    
  C     6.867483  6.012708  2.352116
  C     7.251041  9.635187  2.089116
  C     5.763109  5.436726  1.629625
  C     6.023277  9.323265  1.439111
  N     7.814121  6.593547  1.589444
  N     8.287127  9.801087  1.289707
  N     5.968089  5.329805  0.312831
  N     6.113634  9.292468  0.126806
  N     4.925531  5.485073  4.088376
  N     5.481874  9.811080  3.946411
  S     4.438133  4.847166  2.643507
  S     4.626263  9.355455  2.633268
  S     7.411021  6.113829  0.046407
  S     7.691258  9.494591 -0.273893
  S     6.530936  6.164245  4.033955
  S     7.201319  9.762873  3.800902
