16  
    
  C     4.857439  4.905413  1.853971
  C     4.672666  8.892099  1.740077
  C     3.616523  4.563390  1.251558
  C     3.382643  8.527699  1.167039
  N     5.843003  4.966288  0.957853
  N     5.548057  9.270092  0.812427
  N     3.552916  4.515810 -0.053195
  N     3.385265  8.540336 -0.165827
  N     3.144125  4.553686  3.785114
  N     3.147774  8.403446  3.746094
  S     2.331074  4.436740  2.341430
  S     2.202835  8.140420  2.362077
  S     5.157711  4.715499 -0.523965
  S     4.897624  8.979556 -0.624798
  S     4.788983  4.921247  3.600131
  S     4.778539  8.844769  3.453486
