16  
    
  C    12.797260  9.067356  3.430220
  C    12.803787 12.761592  3.460389
  C    11.524305  8.604143  2.970788
  C    11.668427 12.140162  2.795608
  N    13.755910  9.178705  2.507218
  N    13.804489 13.027671  2.614879
  N    11.502755  8.389191  1.661276
  N    11.747199 12.104679  1.451593
  N    11.136835  9.010403  5.344708
  N    10.909968 12.386465  5.245086
  S    10.251017  8.400401  4.058440
  S    10.202048 11.989663  3.776938
  S    12.954723  8.842675  1.022145
  S    13.319007 12.616631  1.106199
  S    12.717411  9.407805  5.167733
  S    12.486360 13.045433  5.197301
