16  
    
  C     4.837847  4.849719  1.904988
  C     4.634472  8.957220  1.717069
  C     3.561921  4.609763  1.246114
  C     3.425603  8.501250  1.148800
  N     5.827990  5.032383  1.049076
  N     5.575865  9.253646  0.835675
  N     3.598094  4.538723 -0.088372
  N     3.401622  8.581132 -0.178432
  N     3.094243  4.624039  3.797408
  N     3.136311  8.349814  3.705648
  S     2.271642  4.420664  2.362827
  S     2.222284  8.115612  2.345293
  S     5.224291  4.709298 -0.481673
  S     4.902692  8.990677 -0.646738
  S     4.763816  4.940633  3.609191
  S     4.741474  8.838822  3.450550
