16  
    
  C     6.798477  5.805920  1.514213
  C     7.230708 10.035454  2.429634
  C     5.652779  5.166912  0.977238
  C     5.997382  9.529193  1.958443
  N     7.874188  5.829428  0.713772
  N     8.232396 10.023069  1.552073
  N     5.916254  4.700235 -0.239206
  N     6.036112  9.167660  0.685353
  N     4.981802  5.761323  3.399322
  N     5.619121  9.682727  4.469746
  S     4.338067  4.933441  2.104306
  S     4.701839  9.488568  3.145226
  S     7.470658  5.130618 -0.705649
  S     7.596598  9.528786  0.122520
  S     6.560311  6.375471  3.151301
  S     7.210856 10.300571  4.200810
