16  
    
  C     8.560802  6.672854  2.317693
  C     8.283601 10.331456  2.619304
  C     7.344321  6.227023  1.762231
  C     7.229975  9.689985  1.878784
  N     9.537655  6.858861  1.447439
  N     9.402307 10.606650  1.955820
  N     7.371060  5.992172  0.461880
  N     7.504504  9.422825  0.610674
  N     6.907084  6.406635  4.300921
  N     6.285171  9.830110  4.244616
  S     6.086600  5.896208  2.960140
  S     5.790023  9.301319  2.745633
  S     8.858169  6.364989 -0.058460
  S     9.029500  9.947484  0.378534
  S     8.478021  6.915514  4.064545
  S     7.797313 10.554654  4.301445
