16  
    
  C     9.945317  7.621650  2.995080
  C    10.589510 11.663374  3.033658
  C     8.831743  7.173111  2.228183
  C     9.363045 11.019186  2.553346
  N    10.990968  7.984082  2.255946
  N    11.528981 11.847835  2.083070
  N     9.016424  7.141427  0.912556
  N     9.345585 10.689437  1.251212
  N     8.060572  7.067660  4.656062
  N     9.034918 11.389409  5.069893
  S     7.413413  6.806172  3.171917
  S     8.131452 10.872630  3.761987
  S    10.583097  7.639251  0.686016
  S    10.866471 11.200780  0.688524
  S     9.628509  7.580730  4.671865
  S    10.525214 11.971741  4.728226
