16  
    
  C     5.130855  5.378390  1.818133
  C     5.133895  8.793962  1.347088
  C     3.849309  5.027300  1.310041
  C     3.842672  8.293511  0.835828
  N     6.140586  5.342293  0.944574
  N     6.096683  8.903705  0.441781
  N     3.917881  4.536662  0.073907
  N     3.822335  8.054144 -0.466524
  N     3.507999  5.615421  3.783963
  N     3.469514  8.912303  3.316720
  S     2.543919  5.277363  2.479410
  S     2.587013  8.334000  2.015072
  S     5.477141  4.812198 -0.453978
  S     5.372735  8.441607 -0.992974
  S     5.151931  5.874625  3.473120
  S     5.074467  9.102928  3.033062
