16  
    
  C    12.727377  9.117567  3.385494
  C    12.767006 12.708959  3.505405
  C    11.512808  8.677078  2.827592
  C    11.628845 12.269231  2.790787
  N    13.712229  9.119391  2.487975
  N    13.786276 13.073235  2.759977
  N    11.476380  8.482887  1.485218
  N    11.838110 12.087355  1.495207
  N    11.090337  8.913710  5.440396
  N    10.881265 12.476659  5.240392
  S    10.267270  8.462141  4.027460
  S    10.238496 12.037386  3.780243
  S    13.065584  8.809549  1.039737
  S    13.314374 12.682316  1.162325
  S    12.675964  9.472304  5.068449
  S    12.357117 13.116816  5.112980
