16  
    
  C     5.952467  5.097561  1.613192
  C     5.997236  9.002396  2.021745
  C     4.717463  4.611127  1.028943
  C     4.756869  8.704309  1.345547
  N     6.978662  5.253665  0.786240
  N     7.056765  9.156671  1.230596
  N     4.727672  4.602977 -0.297857
  N     4.875921  8.457486  0.036397
  N     4.231704  4.915858  3.456487
  N     4.263474  8.866603  3.895913
  S     3.381484  4.568587  2.134532
  S     3.405472  8.606781  2.477499
  S     6.335789  4.915093 -0.718601
  S     6.481112  8.754615 -0.333915
  S     5.874897  5.232582  3.353485
  S     5.848848  9.131340  3.759193
