16  
    
  C    12.376343  8.997507  3.769365
  C    12.615052 12.833805  3.556453
  C    11.180304  8.377677  3.229796
  C    11.334957 12.520062  2.879062
  N    13.354159  9.139542  2.864774
  N    13.568927 12.995634  2.657674
  N    11.297710  8.149874  1.922579
  N    11.413887 12.196155  1.595631
  N    10.608249  8.846743  5.612997
  N    10.827670 12.495571  5.386772
  S     9.860119  8.301478  4.309467
  S     9.977289 12.194983  3.920467
  S    12.787279  8.518877  1.429233
  S    12.968411 12.590459  1.131676
  S    12.186813  9.276033  5.527412
  S    12.482252 12.827299  5.297020
