16  
    
  C     3.751729  4.366619  1.561770
  C     3.509081  8.546506  1.189382
  C     2.557660  3.855189  0.954143
  C     2.315556  7.914152  0.677609
  N     4.698468  4.698745  0.655530
  N     4.426366  8.755137  0.265007
  N     2.570805  3.574080 -0.335528
  N     2.292848  7.783705 -0.652729
  N     1.827831  4.118462  3.391600
  N     1.966066  8.104139  3.178801
  S     1.193071  3.478879  1.933352
  S     1.015852  7.860912  1.851507
  S     3.977809  4.315495 -0.830012
  S     3.780589  8.332520 -1.182869
  S     3.381053  4.673728  3.285579
  S     3.537568  8.495073  2.917894
