16  
    
  C     5.783627  5.558061  2.068169
  C     5.853495  8.944758  1.982551
  C     4.559498  5.185246  1.393725
  C     4.653205  8.679103  1.281502
  N     6.823156  5.509639  1.225701
  N     6.904398  9.127753  1.187373
  N     4.681278  5.089035  0.065755
  N     4.804446  8.472602 -0.014921
  N     3.996519  5.574457  3.825971
  N     4.016369  9.031906  3.728187
  S     3.143555  5.496147  2.387355
  S     3.294288  8.761992  2.309876
  S     6.270657  5.198018 -0.315294
  S     6.458998  8.781356 -0.334215
  S     5.635227  5.893189  3.807622
  S     5.638802  9.188743  3.715831
