16  
    
  C     5.459784  5.324575  1.808813
  C     5.068941  9.075614  1.693468
  C     4.155332  5.189550  1.144911
  C     3.872040  8.522245  1.061636
  N     6.441362  5.455411  0.946352
  N     6.078226  9.254324  0.861374
  N     4.219021  4.939569 -0.164248
  N     3.980299  8.317837 -0.242483
  N     3.723796  5.385919  3.672275
  N     3.355131  8.747648  3.532529
  S     2.855365  5.217030  2.238932
  S     2.573503  8.321118  2.170743
  S     5.799631  5.247483 -0.589094
  S     5.576361  8.808072 -0.641137
  S     5.355454  5.438406  3.543782
  S     4.998916  8.921789  3.424735
