16  
    
  C     5.784192  5.105514  1.966360
  C     5.646741  9.204342  2.017202
  C     4.601238  4.544821  1.311856
  C     4.541854  8.430223  1.467665
  N     6.733897  5.461580  1.112145
  N     6.574142  9.534415  1.128721
  N     4.740936  4.274190  0.031120
  N     4.591749  8.300300  0.152207
  N     3.961364  4.759260  3.757721
  N     4.139499  8.750762  3.963564
  S     3.268172  4.284313  2.345784
  S     3.254047  8.166512  2.639906
  S     6.248587  4.796340 -0.360121
  S     6.070452  9.031894 -0.368530
  S     5.459707  5.465072  3.599243
  S     5.621100  9.362133  3.728768
