16  
    
  C    12.188229  9.109021  3.454222
  C    12.064074 12.437833  3.456816
  C    11.045693  8.552490  2.730140
  C    10.784908 12.171370  2.745984
  N    13.288253  9.220441  2.710507
  N    13.158918 12.598772  2.724153
  N    11.263852  8.367689  1.412050
  N    11.020579 12.121585  1.446552
  N    10.439863  8.845822  5.197935
  N    10.299288 12.302203  5.312555
  S     9.693365  8.326183  3.879769
  S     9.453173 11.887814  3.867048
  S    12.900136  8.834456  1.167191
  S    12.651877 12.367446  1.150916
  S    12.029921  9.290925  5.176939
  S    11.863245 12.819565  5.166147
