16  
    
  C    12.405128  9.195835  3.365055
  C    12.231139 12.682954  3.508053
  C    11.209600  8.621030  2.817744
  C    11.134415 12.151519  2.781137
  N    13.370642  9.313098  2.468466
  N    13.289552 12.825347  2.722404
  N    11.156421  8.404629  1.515320
  N    11.336049 11.755426  1.525426
  N    10.700965  8.929771  5.247226
  N    10.238986 12.591523  5.206329
  S     9.899592  8.450709  3.920600
  S     9.632401 12.075033  3.696342
  S    12.736042  8.729520  1.035605
  S    12.825916 12.331548  1.140458
  S    12.228890  9.470157  5.112701
  S    11.854528 12.990894  5.238424
