16  
    
  C    12.737431  9.273626  3.344060
  C    12.656113 12.955001  3.564149
  C    11.496119  8.757818  2.761840
  C    11.544271 12.433400  2.783553
  N    13.768313  9.245556  2.502960
  N    13.712159 13.183057  2.786048
  N    11.573733  8.576144  1.468917
  N    11.830399 12.198691  1.503165
  N    11.041193  8.913679  5.307357
  N    10.833225 12.545014  5.309358
  S    10.162630  8.533258  3.934569
  S    10.122510 12.022883  3.823883
  S    13.217479  8.784978  1.040997
  S    13.405873 12.639509  1.232967
  S    12.634878  9.500893  5.047336
  S    12.354375 13.253401  5.240657
