16  
    
  C    11.036458  8.011138  3.092314
  C    11.521984 11.695297  3.166176
  C     9.800848  7.428552  2.596367
  C    10.362065 11.313059  2.401701
  N    11.981664  8.232280  2.175951
  N    12.656340 11.761902  2.479805
  N     9.776649  7.186959  1.281491
  N    10.623761 11.088041  1.122086
  N     9.351701  8.057097  5.069259
  N     9.648524 11.495967  4.824558
  S     8.544939  7.273196  3.811077
  S     8.999984 11.142248  3.387858
  S    11.310720  7.587967  0.747099
  S    12.225406 11.513787  0.843850
  S    10.932613  8.443661  4.791897
  S    11.188247 11.982424  4.887827
