16  
    
  C     6.843774  6.093795  2.341900
  C     7.271358  9.686021  2.099033
  C     5.820311  5.400222  1.593061
  C     5.991779  9.376659  1.477297
  N     7.876660  6.513690  1.617846
  N     8.278452  9.828215  1.242951
  N     5.990432  5.347662  0.277352
  N     6.071615  9.302738  0.137612
  N     4.906097  5.580704  4.031822
  N     5.452326  9.762844  3.991949
  S     4.461464  4.899241  2.569003
  S     4.667083  9.345350  2.594561
  S     7.472382  6.045760  0.054982
  S     7.710181  9.493291 -0.248730
  S     6.466493  6.111168  4.018063
  S     7.180799  9.777727  3.840642
