16  
    
  C     6.561130  5.760938  1.993663
  C     6.630899  9.422155  1.887209
  C     5.290200  5.431925  1.424633
  C     5.462122  8.848118  1.254539
  N     7.549064  5.939192  1.114507
  N     7.612069  9.631510  1.015990
  N     5.297643  5.181915  0.108961
  N     5.519992  8.715870 -0.078594
  N     4.939356  5.758675  4.006172
  N     4.855501  8.931227  3.803173
  S     4.105452  5.376594  2.619383
  S     4.109929  8.722349  2.332499
  S     6.857265  5.513137 -0.334354
  S     6.999854  9.326352 -0.495806
  S     6.505023  6.078174  3.721972
  S     6.445645  9.671118  3.622732
