16  
    
  C     9.022439  7.072318  2.673757
  C     8.858320 11.074254  2.342447
  C     7.807735  6.504048  2.193829
  C     7.735062 10.496241  1.699861
  N     9.878856  7.381510  1.710450
  N     9.780969 11.516936  1.480668
  N     7.823317  6.118106  0.921174
  N     7.807425 10.405922  0.384820
  N     7.432688  6.859387  4.665715
  N     7.129493 10.778550  4.184043
  S     6.570164  6.319331  3.386756
  S     6.449103 10.027061  2.843772
  S     9.264973  6.683203  0.354595
  S     9.298781 11.038562  0.009457
  S     8.932224  7.613622  4.320466
  S     8.729308 11.179448  4.102440
