16  
    
  C     9.267028  6.710068  2.447929
  C     9.589466 10.634083  2.755388
  C     8.098407  6.278864  1.752747
  C     8.356828 10.204672  2.224639
  N    10.340515  6.852476  1.668287
  N    10.616973 10.612971  1.904530
  N     8.211311  6.205080  0.436575
  N     8.334540  9.991369  0.922514
  N     7.452880  6.399471  4.262882
  N     7.913834 10.550449  4.764519
  S     6.689414  6.045869  2.816891
  S     7.025684 10.210965  3.407115
  S     9.794060  6.644272  0.120519
  S     9.939718 10.300787  0.434398
  S     9.032737  6.757365  4.147722
  S     9.500594 10.925957  4.496136
