16  
    
  C     4.461199  5.001459  1.306091
  C     4.216574  8.553022  1.579996
  C     3.183306  4.682243  0.722503
  C     3.143006  8.117727  0.775919
  N     5.408827  5.130968  0.402196
  N     5.369346  8.814933  0.962775
  N     3.185393  4.432863 -0.580665
  N     3.341636  8.198872 -0.527139
  N     2.717659  4.970621  3.235613
  N     2.351425  7.795525  3.258594
  S     1.875263  4.672915  1.830251
  S     1.715804  7.737880  1.675169
  S     4.677483  4.873155 -1.100627
  S     4.946208  8.631420 -0.705550
  S     4.400412  5.118328  3.063977
  S     3.853104  8.517770  3.284936
