16  
    
  C    11.803828  8.686218  3.448618
  C    11.510472 12.188207  3.263297
  C    10.568124  8.284216  2.854110
  C    10.387193 11.624985  2.544277
  N    12.775254  8.800507  2.585819
  N    12.618332 12.459547  2.546552
  N    10.641832  8.042454  1.556895
  N    10.657799 11.435502  1.250935
  N    10.143531  8.705706  5.411777
  N     9.554151 11.977054  5.008420
  S     9.283120  8.324765  4.028803
  S     9.051139 11.220125  3.578338
  S    12.209761  8.448416  1.069652
  S    12.240735 12.059596  1.012092
  S    11.755069  9.049033  5.175988
  S    11.193336 12.563784  4.869826
