16  
    
  C    12.631245  8.940896  3.701452
  C    12.426701 12.747452  3.946971
  C    11.429473  8.380962  3.055322
  C    11.357929 12.122260  3.201472
  N    13.658160  9.119713  2.896307
  N    13.513814 12.982527  3.253254
  N    11.525953  8.269197  1.730199
  N    11.640558 11.962087  1.893403
  N    11.037429  8.455043  5.722207
  N    10.573283 12.320512  5.715220
  S    10.190308  8.188904  4.230973
  S     9.969450 11.895025  4.275386
  S    13.135445  8.664790  1.446256
  S    13.106722 12.671560  1.651026
  S    12.577496  9.075455  5.416116
  S    12.082811 13.050151  5.573600
