16  
    
  C     7.660050  6.224883  2.259436
  C     7.732032 10.146570  2.462457
  C     6.343827  5.924438  1.703171
  C     6.592400  9.534693  1.783069
  N     8.578856  6.412802  1.328688
  N     8.743663 10.377601  1.640329
  N     6.379482  5.773008  0.390690
  N     6.768495  9.330608  0.498359
  N     5.964307  6.288126  4.149317
  N     6.085546  9.518320  4.274375
  S     5.116327  5.649881  2.924538
  S     5.265275  9.242829  2.901115
  S     7.914554  6.187955 -0.139834
  S     8.346864  9.940209  0.148208
  S     7.611524  6.464931  3.940532
  S     7.566245 10.252629  4.147526
