16  
    
  C    11.363351  8.422330  3.393097
  C    11.409015 12.188336  3.301251
  C    10.189643  7.899085  2.710885
  C    10.133812 11.691277  2.848722
  N    12.393730  8.510639  2.541849
  N    12.389066 12.018569  2.404267
  N    10.396017  7.518804  1.460250
  N    10.062750 11.278113  1.586666
  N     9.491528  8.295687  5.149045
  N     9.936695 12.069020  5.300685
  S     8.783993  7.842902  3.701647
  S     8.943567 11.851492  4.056414
  S    11.972910  7.838290  1.093261
  S    11.598574 11.503311  1.012076
  S    11.069281  8.688438  5.068055
  S    11.384533 12.761737  5.017748
