16  
    
  C     4.641665  5.034834  1.989406
  C     4.679528  8.708622  1.434582
  C     3.427060  4.720479  1.280503
  C     3.492664  8.108729  0.780405
  N     5.659572  5.366591  1.155966
  N     5.746071  8.779694  0.634070
  N     3.565854  4.550196 -0.029161
  N     3.633767  7.939567 -0.533688
  N     2.628689  4.913054  3.704681
  N     2.872634  8.315164  3.232694
  S     2.015012  4.468358  2.211745
  S     2.127747  7.953366  1.821973
  S     5.122604  4.933000 -0.359345
  S     5.236447  8.353312 -0.876371
  S     4.299748  5.207308  3.705487
  S     4.441245  8.816561  3.129728
