16  
    
  C     5.361194  5.644563  1.730961
  C     5.187868  8.791817  1.764741
  C     4.218942  5.258464  0.995068
  C     3.931629  8.619162  1.076392
  N     6.484438  5.513838  1.019485
  N     6.224855  9.066276  0.968723
  N     4.388121  5.125294 -0.330354
  N     4.051439  8.603685 -0.264884
  N     3.400429  5.315290  3.434657
  N     3.396413  8.436620  3.594038
  S     2.770268  5.140709  1.874162
  S     2.620586  8.233317  2.142179
  S     5.998740  5.290101 -0.538274
  S     5.591308  9.006036 -0.568729
  S     5.017405  5.767203  3.451998
  S     5.026963  8.912121  3.504565
