16  
    
  C     4.205005  4.842256  1.420086
  C     4.271005  8.350219  1.333378
  C     2.975353  4.475950  0.753863
  C     3.018645  8.041901  0.686169
  N     5.258048  5.026950  0.626893
  N     5.336024  8.431831  0.520454
  N     3.129993  4.455160 -0.575516
  N     3.137842  7.744120 -0.608882
  N     2.501491  4.820559  3.288983
  N     2.507145  8.269313  3.216129
  S     1.604577  4.540333  1.936181
  S     1.733978  7.843295  1.843984
  S     4.767811  4.698121 -0.948413
  S     4.741792  8.021890 -1.035223
  S     4.134262  4.992024  3.131098
  S     4.110493  8.653101  3.065700
