16  
    
  C     3.793466  4.687450  1.538605
  C     3.832360  8.426955  1.663843
  C     2.497081  4.510217  0.937290
  C     2.591088  7.902548  1.088796
  N     4.800986  4.713111  0.667109
  N     4.877527  8.432271  0.836204
  N     2.517330  4.342005 -0.385065
  N     2.738102  7.566965 -0.166314
  N     1.882523  4.567179  3.475529
  N     2.019685  8.398500  3.599914
  S     1.130696  4.358347  2.007693
  S     1.221393  7.908323  2.194288
  S     4.063682  4.639314 -0.867275
  S     4.311251  7.828751 -0.615144
  S     3.511992  4.904882  3.359467
  S     3.632028  8.746173  3.372397
