16  
    
  C     9.182243  6.787303  2.351772
  C     9.160767 10.835524  3.016900
  C     7.974363  6.239351  1.792812
  C     7.900211 10.425497  2.408550
  N    10.256856  6.773096  1.589512
  N    10.161626 10.867249  2.130661
  N     8.196436  5.732062  0.585567
  N     7.978542  9.980807  1.167970
  N     7.425887  7.004389  4.168653
  N     7.395239 10.992340  4.819123
  S     6.595780  6.324912  2.885022
  S     6.564547 10.576861  3.453839
  S     9.810606  6.081650  0.201271
  S     9.600645 10.353058  0.699901
  S     9.094032  7.231334  3.983221
  S     9.022344 11.157584  4.697835
