16  
    
  C     9.840769  7.363896  2.539744
  C    10.411963 11.220737  2.606209
  C     8.645543  6.737372  1.993180
  C     9.139731 10.901902  1.952989
  N    10.790106  7.583658  1.608712
  N    11.404491 11.435613  1.739531
  N     8.688107  6.547480  0.674077
  N     9.210827 10.700526  0.634798
  N     8.152617  7.240321  4.502948
  N     8.666087 11.059136  4.512534
  S     7.386038  6.557477  3.159421
  S     7.822500 10.905508  3.049800
  S    10.197346  7.071461  0.173555
  S    10.745205 11.122401  0.190721
  S     9.642152  7.913047  4.146125
  S    10.277343 11.475677  4.309961
