16  
    
  C    12.708069  9.152364  3.585957
  C    12.781328 12.611035  3.498636
  C    11.436485  8.611843  3.090481
  C    11.568453 12.192987  2.851677
  N    13.619259  9.437414  2.676461
  N    13.773321 12.867451  2.675140
  N    11.542876  8.280105  1.820569
  N    11.657552 12.171587  1.520334
  N    11.231734  8.755528  5.643639
  N    11.129950 12.317174  5.359440
  S    10.253390  8.263983  4.362918
  S    10.265295 11.873012  4.009127
  S    12.989421  8.886335  1.272407
  S    13.226112 12.460072  1.113489
  S    12.812547  9.223301  5.341378
  S    12.730167 12.736405  5.216924
