16  
    
  C     6.687474  6.174562  2.387811
  C     7.120632  9.789246  2.193715
  C     5.587199  5.412670  1.801693
  C     5.860766  9.502832  1.573726
  N     7.555150  6.601680  1.485446
  N     8.192322  9.825269  1.404928
  N     5.610574  5.283287  0.475205
  N     5.988101  9.324642  0.252811
  N     5.319795  5.234983  4.370100
  N     5.434851  9.341788  4.162257
  S     4.536204  4.673571  3.035125
  S     4.549768  9.456461  2.717914
  S     6.994084  6.077029  0.012824
  S     7.550385  9.521742 -0.125204
  S     6.722589  6.238938  4.156385
  S     7.039863  9.834016  3.936075
