16  
    
  C    10.508685  7.272406  2.830086
  C    10.256120 11.053105  2.806157
  C     9.252620  7.487764  2.203988
  C     8.999776 10.846909  2.169799
  N    11.527972  7.030332  1.993267
  N    11.300551 11.165254  1.983018
  N     9.258635  7.457993  0.867441
  N     9.044021 10.716030  0.837752
  N     8.682514  7.417377  4.660007
  N     8.472967 11.024045  4.657858
  S     7.865191  7.343108  3.239698
  S     7.699137 10.645614  3.271906
  S    10.848780  7.130768  0.433316
  S    10.647323 10.896569  0.410743
  S    10.306976  7.233422  4.561451
  S    10.145547 11.157043  4.530863
