16  
    
  C    12.883619  9.204922  3.410836
  C    13.003671 12.843612  3.470204
  C    11.750298  8.557898  2.847853
  C    11.734094 12.438021  2.886059
  N    13.908648  9.447953  2.590701
  N    13.990473 12.971487  2.591884
  N    11.916880  8.257608  1.583617
  N    11.820709 12.071024  1.606494
  N    10.905561  9.168798  5.271338
  N    11.202862 13.053777  5.361882
  S    10.403670  8.413962  3.874050
  S    10.353226 12.567013  3.983338
  S    13.425256  8.825659  1.060225
  S    13.374138 12.465294  1.205497
  S    12.588841  9.545183  5.134679
  S    12.815656 13.438646  5.151102
