16  
    
  C     7.360660  5.994989  2.173668
  C     7.778725  9.706330  2.246623
  C     6.146338  5.598571  1.484775
  C     6.478893  9.342525  1.658646
  N     8.433088  6.230629  1.430719
  N     8.813584  9.866888  1.419459
  N     6.320100  5.515852  0.160017
  N     6.573867  9.241363  0.334939
  N     5.550482  5.605879  4.033968
  N     6.123223  9.581093  4.229035
  S     4.823605  5.190534  2.583563
  S     5.225269  9.286153  2.863453
  S     7.890090  5.934878 -0.129087
  S     8.167247  9.632217 -0.103344
  S     7.131669  6.058314  3.914435
  S     7.720816  9.805301  3.983171
