16  
    
  C     4.405843  4.889361  1.209021
  C     4.408104  8.364351  1.285636
  C     3.104962  4.795672  0.577748
  C     3.247668  7.810964  0.674847
  N     5.389815  5.034157  0.294870
  N     5.460229  8.440940  0.476584
  N     3.112634  4.635087 -0.729337
  N     3.348466  7.712395 -0.653014
  N     2.519719  4.709344  3.107945
  N     2.603442  8.173593  3.190909
  S     1.737610  4.621211  1.645867
  S     1.880158  7.741158  1.754021
  S     4.687714  4.748987 -1.202082
  S     4.904564  8.162531 -1.033493
  S     4.147942  5.228519  3.015158
  S     4.254690  8.520391  3.041980
