16  
    
  C    12.338385  8.882904  3.703306
  C    12.466461 12.699058  3.408765
  C    11.146109  8.414158  3.107141
  C    11.253451 12.257577  2.809636
  N    13.340965  8.973195  2.828594
  N    13.458103 13.025004  2.586272
  N    11.284158  8.057211  1.823959
  N    11.371492 11.987603  1.513937
  N    10.675739  8.971884  5.538052
  N    10.794874 12.710794  5.343276
  S     9.784547  8.563189  4.230484
  S     9.968076 12.110526  4.036143
  S    12.788914  8.512341  1.373698
  S    12.958181 12.520637  1.101943
  S    12.270914  9.396835  5.350730
  S    12.381152 12.852538  5.124158
