16  
    
  C    10.922575  7.770521  3.136162
  C    11.455066 11.872600  2.992360
  C     9.808132  7.507883  2.333593
  C    10.306925 11.189929  2.421105
  N    12.088820  7.855257  2.486984
  N    12.418939 12.076546  2.099246
  N    10.063427  7.379373  1.038374
  N    10.425264 10.789161  1.142437
  N     8.961535  7.648944  4.828563
  N     9.883311 11.470363  4.958873
  S     8.354144  7.457097  3.245889
  S     9.072731 10.900899  3.622977
  S    11.695246  7.610460  0.875740
  S    11.950130 11.394036  0.729301
  S    10.620990  7.883244  4.851818
  S    11.297847 12.325501  4.639028
