16  
    
  C    12.780481  9.239719  3.396691
  C    12.653935 13.082147  3.583221
  C    11.610292  8.663923  2.822499
  C    11.545880 12.469515  2.934140
  N    13.796934  9.463092  2.537626
  N    13.735566 13.170199  2.814665
  N    11.716712  8.431974  1.510252
  N    11.749042 12.137076  1.661383
  N    10.928907  9.208228  5.192077
  N    10.849467 12.607212  5.406661
  S    10.246323  8.652589  3.841626
  S    10.198841 12.129106  3.911104
  S    13.263453  8.920794  1.058175
  S    13.278023 12.607537  1.346127
  S    12.552102  9.475574  5.157928
  S    12.387502 13.204451  5.295082
