16  
    
  C     4.605188  5.046452  1.979530
  C     4.674585  8.695316  1.443673
  C     3.390392  4.693797  1.270429
  C     3.525861  8.132629  0.787001
  N     5.663628  5.363456  1.228246
  N     5.749023  8.858924  0.679351
  N     3.609376  4.596665 -0.043987
  N     3.628865  7.972816 -0.524019
  N     2.628645  4.971092  3.698580
  N     2.884583  8.328288  3.263826
  S     2.005096  4.460346  2.226442
  S     2.159473  7.930357  1.801700
  S     5.178919  4.906397 -0.297750
  S     5.224005  8.406613 -0.872887
  S     4.333320  5.183817  3.714864
  S     4.476792  8.805764  3.137779
