16  
    
  C     8.048001  6.343028  2.263660
  C     8.067007 10.112814  2.244122
  C     6.870269  5.893146  1.650083
  C     6.841502  9.773457  1.635005
  N     9.065440  6.543990  1.422901
  N     9.100794 10.186016  1.396207
  N     6.898704  5.838232  0.327738
  N     6.863960  9.705522  0.304091
  N     6.330878  6.088998  4.116982
  N     6.315338  9.868208  4.134266
  S     5.526194  5.664989  2.707940
  S     5.536965  9.524680  2.726538
  S     8.428882  6.236379 -0.073859
  S     8.415717  9.892805 -0.123447
  S     7.906724  6.402300  4.001267
  S     7.867519 10.474834  3.989342
