16  
    
  C    12.063699  8.472209  3.293506
  C    11.896312 12.229039  3.168115
  C    10.726963  8.284894  2.727407
  C    10.584855 11.928075  2.633167
  N    13.032047  8.714648  2.413391
  N    12.920629 12.078846  2.313694
  N    10.678556  8.336983  1.394973
  N    10.640612 11.842308  1.308944
  N    10.310735  8.422076  5.274528
  N    10.304165 11.995367  5.272136
  S     9.427619  8.206377  3.872763
  S     9.441054 11.646421  3.849666
  S    12.278200  8.568199  0.900231
  S    12.188530 11.990221  0.812996
  S    11.981047  8.708811  5.005293
  S    11.907562 12.280299  4.881616
