16  
    
  C     5.503843  5.324201  1.818041
  C     5.249866  8.883470  1.705325
  C     4.182043  5.128980  1.302335
  C     4.076664  8.462608  0.996278
  N     6.464403  5.318522  0.922213
  N     6.342868  8.994667  0.931398
  N     4.115312  5.070475 -0.036728
  N     4.243827  8.329917 -0.316707
  N     4.068504  5.135815  3.848841
  N     3.385119  8.666526  3.518237
  S     2.999342  5.029578  2.629738
  S     2.735143  8.182308  2.066264
  S     5.709789  5.281808 -0.537741
  S     5.796571  8.694567 -0.627804
  S     5.677716  5.444602  3.558787
  S     4.906139  9.291592  3.381485
