16  
    
  C     7.869944  6.188998  2.182715
  C     8.050111 10.353443  2.185409
  C     6.605737  5.849223  1.517024
  C     6.855988  9.791501  1.516529
  N     8.863166  6.587605  1.378805
  N     9.067357 10.663612  1.386414
  N     6.765640  5.800817  0.181177
  N     7.048730  9.595794  0.226266
  N     6.225325  5.767103  4.043710
  N     6.287656 10.138662  4.077698
  S     5.362288  5.469431  2.668427
  S     5.526271  9.686018  2.638753
  S     8.300269  6.318290 -0.140284
  S     8.633276 10.140324 -0.139813
  S     7.847353  6.289464  3.854344
  S     7.902664 10.595809  3.897651
