16  
    
  C    10.994421  7.674719  3.165340
  C    11.238041 11.789339  2.856275
  C     9.733064  7.532000  2.403793
  C    10.115744 11.109735  2.299713
  N    12.022815  7.763713  2.332744
  N    12.231026 11.945019  2.004906
  N     9.889273  7.547293  1.091488
  N    10.173124 10.864539  0.995145
  N     9.132047  7.627939  4.883180
  N     9.512517 11.805571  4.716428
  S     8.392948  7.256421  3.487784
  S     8.872563 10.902121  3.472572
  S    11.518253  7.663120  0.818884
  S    11.624722 11.371985  0.518403
  S    10.758895  7.641820  4.901191
  S    11.166356 12.148950  4.564410
