16  
    
  C     5.500146  5.300047  1.819772
  C     5.229312  8.921244  1.698889
  C     4.166516  5.178832  1.293246
  C     4.045295  8.441653  0.985073
  N     6.458429  5.318842  0.898408
  N     6.329874  8.995801  0.922317
  N     4.127917  5.041820 -0.037260
  N     4.224389  8.348979 -0.338868
  N     4.051349  5.136139  3.825471
  N     3.401133  8.655645  3.515157
  S     3.002250  5.052741  2.627285
  S     2.712694  8.193564  2.073390
  S     5.712894  5.278972 -0.538537
  S     5.779201  8.690775 -0.637122
  S     5.651863  5.435461  3.547691
  S     4.901069  9.286669  3.406896
