16  
    
  C    11.902353  8.383052  3.300910
  C    11.522714 12.047094  3.487509
  C    10.643246  8.116121  2.607391
  C    10.347544 11.478397  2.860976
  N    12.895624  8.661425  2.453375
  N    12.568223 12.341659  2.713559
  N    10.723043  8.196043  1.271635
  N    10.489476 11.306153  1.573783
  N    10.182036  8.158093  5.114425
  N     9.713604 11.715765  5.310273
  S     9.318449  8.181623  3.687279
  S     8.987114 11.132407  3.967463
  S    12.336369  8.553969  0.885924
  S    11.981600 12.044612  1.163521
  S    11.790386  8.457524  5.022951
  S    11.305700 12.135125  5.220610
