16  
    
  C     5.835176  5.549439  2.141068
  C     5.905782  9.083886  1.832438
  C     4.556092  5.371315  1.508041
  C     4.672305  8.827224  1.119296
  N     6.895240  5.464237  1.352640
  N     6.976804  9.040832  1.061277
  N     4.696252  5.249905  0.188825
  N     4.846198  8.630017 -0.181084
  N     4.021651  5.796624  3.971306
  N     4.013393  9.246523  3.507389
  S     3.174427  5.591876  2.563559
  S     3.248183  8.806171  2.125670
  S     6.291146  5.300750 -0.183879
  S     6.511228  8.815946 -0.475297
  S     5.673261  5.851707  3.825909
  S     5.627026  9.366792  3.476129
