16  
    
  C     6.608613  5.798043  2.045999
  C     6.639291  9.397359  1.912074
  C     5.327038  5.356304  1.492969
  C     5.413848  8.897614  1.253043
  N     7.594844  5.889970  1.156683
  N     7.613329  9.666792  1.048598
  N     5.400016  5.200944  0.177334
  N     5.530247  8.739295 -0.056385
  N     4.868849  5.805805  3.973272
  N     4.849727  9.013949  3.756219
  S     3.988486  5.295644  2.651277
  S     4.078564  8.586302  2.323384
  S     6.935862  5.586680 -0.350726
  S     7.031115  9.291081 -0.519228
  S     6.523799  6.087603  3.736273
  S     6.368553  9.607995  3.648393
