16  
    
  C    11.798039  8.611700  3.209321
  C    11.347621 12.148566  3.427496
  C    10.519752  8.236378  2.592745
  C    10.211928 11.674099  2.689036
  N    12.734139  8.778427  2.327584
  N    12.349844 12.542302  2.638472
  N    10.501122  8.241070  1.279790
  N    10.373457 11.477640  1.361498
  N    10.252723  8.043112  5.152823
  N     9.539964 11.609123  5.276923
  S     9.357884  7.772805  3.737734
  S     8.890046 11.245952  3.716913
  S    12.091450  8.621233  0.809998
  S    11.921964 12.109011  1.045176
  S    11.778841  8.592376  4.933416
  S    11.141337 12.303565  5.165489
