16  
    
  C     7.898582  6.338864  2.219341
  C     8.041896 10.240787  2.193335
  C     6.684158  5.844444  1.551457
  C     6.812313  9.793967  1.525239
  N     8.928497  6.516926  1.374168
  N     9.117654 10.348003  1.419288
  N     6.779963  5.864003  0.204468
  N     6.992566  9.644569  0.220283
  N     6.240925  5.923653  4.110942
  N     6.299806 10.081888  4.060486
  S     5.460569  5.462095  2.702593
  S     5.524772  9.637170  2.693480
  S     8.345547  6.305709 -0.150567
  S     8.539388 10.109175 -0.138326
  S     7.820076  6.237094  3.925741
  S     7.877560 10.546277  3.866442
