16  
    
  C     7.703835  6.560523  2.444683
  C     7.816613 10.059389  2.096929
  C     6.513158  6.102049  1.846785
  C     6.546268  9.900487  1.461594
  N     8.744192  6.642267  1.643334
  N     8.856093 10.027419  1.273654
  N     6.590290  5.840065  0.569178
  N     6.634411  9.763376  0.152542
  N     5.893971  6.879663  4.237944
  N     5.998316 10.069531  3.972925
  S     5.163942  6.159934  2.876965
  S     5.193576  9.956875  2.497473
  S     8.198994  6.157017  0.165797
  S     8.301383  9.768325 -0.208054
  S     7.493649  7.079349  4.069705
  S     7.619244 10.390730  3.811635
