16  
    
  C     8.925394  7.145012  2.368323
  C     9.180003 10.829762  2.325256
  C     7.741978  6.794434  1.607298
  C     7.890018 10.554264  1.662250
  N    10.018244  7.424524  1.661124
  N    10.196319 10.950400  1.477290
  N     7.950766  6.899192  0.291245
  N     8.001512 10.363219  0.348362
  N     7.147718  6.565220  4.174618
  N     7.463277 10.636134  4.238250
  S     6.315130  6.392187  2.729390
  S     6.577885 10.455998  2.875378
  S     9.517721  7.361734  0.068216
  S     9.566479 10.641807 -0.029036
  S     8.684571  7.160629  4.070074
  S     9.085615 10.916081  4.039948
