16  
    
  C     5.314557  5.456069  1.655359
  C     5.152526  9.030306  1.317455
  C     3.983419  5.210977  1.170840
  C     3.961763  8.472248  0.779224
  N     6.288371  5.509193  0.746556
  N     6.194130  8.934992  0.496100
  N     3.966309  4.900730 -0.124081
  N     4.041078  8.242973 -0.539972
  N     3.823525  5.513160  3.712022
  N     3.448673  8.934034  3.260139
  S     2.789570  5.055690  2.482277
  S     2.717201  8.236127  1.981034
  S     5.513040  5.084013 -0.690172
  S     5.606302  8.408465 -0.944928
  S     5.357120  5.865061  3.362220
  S     5.020138  9.383451  2.997534
