16  
    
  C     5.678502  5.273772  1.892361
  C     5.347283  8.902996  1.726553
  C     4.317340  5.102800  1.414352
  C     4.229774  8.303675  1.020443
  N     6.528042  5.533251  0.876465
  N     6.444638  9.087697  0.992098
  N     4.182363  5.019273  0.098211
  N     4.424759  8.287559 -0.301684
  N     4.047243  5.162154  3.939497
  N     3.463574  8.858082  3.389901
  S     3.136725  4.837096  2.657770
  S     2.784644  8.080241  2.068120
  S     5.682634  5.293907 -0.518815
  S     5.969983  8.694767 -0.555940
  S     5.622513  5.468025  3.627409
  S     5.065675  9.232940  3.420744
