16  
    
  C    12.778233  8.958736  3.825369
  C    12.548139 12.761188  3.995682
  C    11.537710  8.480213  3.241480
  C    11.495785 12.119601  3.240676
  N    13.733428  9.239473  2.913453
  N    13.589457 13.053709  3.220380
  N    11.608443  8.157694  1.950054
  N    11.671613 12.054395  1.934855
  N    11.033100  8.549500  5.682193
  N    10.663669 12.278332  5.641451
  S    10.184605  8.130560  4.296611
  S     9.991141 11.888816  4.145893
  S    13.106871  8.759304  1.408043
  S    13.218450 12.555114  1.689692
  S    12.562630  9.023671  5.610985
  S    12.262499 12.914039  5.699823
