16  
    
  C     5.954243  5.737022  2.192798
  C     5.973059  9.204813  1.617195
  C     4.670894  5.567413  1.582732
  C     4.717827  8.944246  0.941765
  N     6.956439  5.438267  1.352466
  N     7.060197  9.170943  0.843435
  N     4.669422  5.406492  0.266653
  N     4.908024  8.654741 -0.331384
  N     4.167415  5.888890  4.026496
  N     4.162078  9.077148  3.397148
  S     3.342260  5.672814  2.661143
  S     3.344849  8.777014  1.997034
  S     6.260290  5.281271 -0.150118
  S     6.508572  8.758718 -0.665140
  S     5.812289  5.813983  3.879115
  S     5.725917  9.525847  3.307461
