16  
    
  C     7.564109  6.014092  2.187720
  C     7.938191  9.866940  2.276082
  C     6.335719  5.501533  1.555488
  C     6.681245  9.413536  1.684226
  N     8.475736  6.450882  1.310486
  N     8.909613 10.066575  1.368668
  N     6.406832  5.364752  0.237400
  N     6.682918  9.313783  0.338323
  N     5.821424  5.785008  4.059166
  N     6.346061  9.537898  4.273352
  S     5.046516  5.183942  2.710641
  S     5.486081  9.104777  2.931801
  S     7.891225  6.022329 -0.233165
  S     8.170186  9.727025 -0.152708
  S     7.415950  6.196289  3.955558
  S     7.865211 10.150412  4.000936
