16  
    
  C     6.690066  5.689237  1.916874
  C     6.664132  9.532761  1.970429
  C     5.372602  5.463323  1.393589
  C     5.416854  9.119709  1.448224
  N     7.668509  5.785185  1.008510
  N     7.607973  9.648313  1.027864
  N     5.410721  5.334279  0.089490
  N     5.343010  9.020593  0.135055
  N     4.945535  5.885167  3.812735
  N     5.038919  9.316342  4.007772
  S     4.014219  5.429664  2.511613
  S     4.100150  8.985630  2.556810
  S     6.945856  5.564357 -0.487541
  S     6.913457  9.282749 -0.395378
  S     6.651574  5.964159  3.663991
  S     6.623144  9.801444  3.670813
