16  
    
  C    11.796243  8.581479  3.199723
  C    11.369230 12.221399  3.450152
  C    10.531227  8.265946  2.581392
  C    10.214747 11.724635  2.730723
  N    12.785831  8.810775  2.308960
  N    12.405259 12.480720  2.656399
  N    10.519576  8.269763  1.232161
  N    10.407140 11.489302  1.443359
  N    10.244945  8.008633  5.175202
  N     9.561896 11.588511  5.266337
  S     9.365377  7.806399  3.721866
  S     8.903912 11.196327  3.743227
  S    12.108195  8.600131  0.819105
  S    11.896260 12.067638  1.049014
  S    11.821170  8.550014  4.968727
  S    11.137153 12.301460  5.178925
