16  
    
  C     9.976473  7.589067  2.674120
  C     9.883735 11.259780  3.001334
  C     8.693953  7.360840  2.051048
  C     8.698255 10.819643  2.252888
  N    10.994198  7.746525  1.813938
  N    10.929204 11.543782  2.211042
  N     8.712949  7.303411  0.718023
  N     8.930076 10.632837  0.934568
  N     8.153935  7.356249  4.600322
  N     7.974851 11.103981  4.716205
  S     7.349604  7.210664  3.126784
  S     7.377637 10.505215  3.287244
  S    10.273452  7.554067  0.280316
  S    10.491336 11.109092  0.621198
  S     9.754944  7.777424  4.418814
  S     9.640084 11.394798  4.699862
