16  
    
  C     8.048115  6.387235  2.281785
  C     8.055652 10.159436  2.280490
  C     6.836030  5.850976  1.635071
  C     6.790835  9.764573  1.608839
  N     9.094199  6.524551  1.465311
  N     9.097580 10.189005  1.461317
  N     6.960173  5.809867  0.292184
  N     6.864592  9.614651  0.288136
  N     6.305633  6.122995  4.133109
  N     6.329070  9.860694  4.171592
  S     5.554988  5.732138  2.745352
  S     5.533034  9.506159  2.785538
  S     8.474963  6.230821 -0.035859
  S     8.429507  9.868510 -0.102627
  S     7.953563  6.468442  3.971368
  S     7.870519 10.424543  3.993300
