16  
    
  C     9.307493  6.623842  2.398976
  C     9.358917 10.574353  2.829095
  C     8.118664  6.195801  1.661720
  C     8.073976 10.362110  2.125963
  N    10.416007  6.656926  1.638669
  N    10.434872 10.299633  2.062749
  N     8.330371  6.087213  0.339806
  N     8.246760 10.069178  0.822970
  N     7.352315  6.815863  4.097560
  N     7.478155 10.968321  4.603183
  S     6.677169  6.202486  2.732154
  S     6.719023 10.713472  3.160666
  S     9.937341  6.336758  0.084022
  S     9.857571  9.914061  0.553810
  S     9.015306  7.012503  4.100028
  S     9.153195 10.984406  4.529809
