16  
    
  C     5.379208  5.649258  1.729332
  C     5.199923  8.836551  1.772597
  C     4.213316  5.315985  0.975725
  C     3.927127  8.603639  1.060296
  N     6.487447  5.535807  1.015419
  N     6.249702  9.065547  0.979887
  N     4.401499  5.111738 -0.311775
  N     4.048172  8.639961 -0.261716
  N     3.426434  5.322638  3.396684
  N     3.377460  8.468808  3.589995
  S     2.784892  5.120760  1.874731
  S     2.622377  8.205317  2.134060
  S     6.007947  5.302157 -0.545303
  S     5.650403  8.994380 -0.578401
  S     4.987400  5.760886  3.433049
  S     5.032570  8.904052  3.524902
