16  
    
  C     6.686840  6.097750  2.409417
  C     7.071962  9.841573  2.245454
  C     5.523885  5.439345  1.808418
  C     5.819213  9.495366  1.554827
  N     7.512121  6.567980  1.487251
  N     8.142995  9.844419  1.462758
  N     5.607652  5.238813  0.487713
  N     5.969918  9.307928  0.253141
  N     5.332609  5.288103  4.420853
  N     5.449868  9.359911  4.174451
  S     4.560233  4.689070  3.043626
  S     4.533494  9.439769  2.740570
  S     6.971433  6.071198  0.019674
  S     7.538311  9.551246 -0.102837
  S     6.719364  6.211684  4.127056
  S     7.010685  9.832325  3.936875
