16  
    
  C     9.242634  6.874287  2.818958
  C     9.691174 10.809476  2.646166
  C     8.021009  6.453681  2.150227
  C     8.497333 10.220622  2.005529
  N    10.260119  7.259927  2.078850
  N    10.583355 11.308449  1.795385
  N     8.175193  6.512126  0.838972
  N     8.593451 10.149429  0.712249
  N     7.544226  6.499864  4.676084
  N     8.044753 10.200830  4.544757
  S     6.795032  5.981324  3.281366
  S     7.316587  9.659460  3.101744
  S     9.751803  7.001159  0.542770
  S    10.067547 10.873220  0.296564
  S     9.157449  6.994636  4.528686
  S     9.561591 10.904364  4.395814
