16  
    
  C    12.728044  9.221000  3.693409
  C    12.846290 12.492794  3.535800
  C    11.521599  8.591975  3.211294
  C    11.556807 12.218324  2.882110
  N    13.644691  9.415870  2.735883
  N    13.800802 12.781891  2.650947
  N    11.480365  8.375430  1.896472
  N    11.636878 12.094330  1.558442
  N    11.240238  8.616520  5.743226
  N    11.067202 12.287147  5.416315
  S    10.254402  8.226878  4.338338
  S    10.275401 11.871211  4.029448
  S    12.978947  8.861005  1.278983
  S    13.213072 12.521789  1.151491
  S    12.785555  9.232535  5.373757
  S    12.705652 12.740095  5.292687
