16  
    
  C     9.083633  7.024104  2.403468
  C     9.169818 10.843650  2.550244
  C     7.881735  6.753364  1.651574
  C     7.940092 10.450975  1.925843
  N    10.113521  7.299289  1.601690
  N    10.149590 11.105606  1.705833
  N     7.979791  6.652163  0.335067
  N     8.034408 10.262648  0.592321
  N     7.186309  6.783238  4.102990
  N     7.434826 10.569865  4.417967
  S     6.481338  6.505058  2.595761
  S     6.578229 10.429448  3.032864
  S     9.528268  7.047614  0.032508
  S     9.497731 10.778515  0.175533
  S     8.813159  7.067646  4.135915
  S     8.999947 11.188864  4.290797
