16  
    
  C     5.543518  5.339282  1.865481
  C     5.325226  8.827784  1.736107
  C     4.195799  5.027002  1.336402
  C     4.120297  8.474812  1.048033
  N     6.501444  5.373666  0.937522
  N     6.373877  9.015369  0.947894
  N     4.118656  5.138420  0.007917
  N     4.265156  8.289443 -0.250284
  N     4.075230  5.140429  3.959068
  N     3.357985  8.713922  3.489981
  S     3.020993  4.964388  2.614804
  S     2.771255  8.144567  2.050015
  S     5.696160  5.277702 -0.545921
  S     5.870107  8.704653 -0.599262
  S     5.710894  5.464673  3.573103
  S     4.948044  9.286710  3.324132
