16  
    
  C     8.965157  7.001493  2.238439
  C     8.993586 10.553531  2.392132
  C     7.761591  6.631849  1.584051
  C     7.787165 10.116041  1.766431
  N    10.006972  7.245889  1.447424
  N    10.038478 10.736153  1.609490
  N     7.895131  6.305330  0.286200
  N     7.920680  9.801951  0.494397
  N     7.230122  6.716887  4.148208
  N     7.268848 10.429655  4.252846
  S     6.473572  6.314852  2.745296
  S     6.429911 10.100733  2.863226
  S     9.458711  6.712450 -0.108762
  S     9.447086 10.259426  0.036817
  S     8.810800  7.219508  3.962958
  S     8.895626 10.807949  4.120710
