16  
    
  C     5.828321  5.372039  1.781906
  C     5.925374  8.905746  2.118628
  C     4.529503  5.156053  1.138483
  C     4.685841  8.597313  1.420645
  N     6.826586  5.470383  0.894584
  N     7.008616  8.972562  1.345546
  N     4.645141  4.876307 -0.156675
  N     4.857436  8.549758  0.088379
  N     3.999826  5.438705  3.620082
  N     4.148305  8.735057  4.026810
  S     3.217371  4.998394  2.230826
  S     3.378468  8.531986  2.538126
  S     6.237918  4.987178 -0.575884
  S     6.456143  8.756262 -0.192672
  S     5.747576  5.667008  3.511390
  S     5.792888  9.072823  3.856157
