16  
    
  C    12.069274  8.670906  3.566937
  C    12.174217 12.102606  3.385740
  C    10.903379  8.253281  2.825002
  C    10.987455 11.691985  2.678157
  N    13.196459  8.720286  2.861710
  N    13.206918 12.312709  2.538493
  N    11.070290  8.042118  1.542517
  N    11.136285 11.514027  1.351909
  N    10.166601  8.322030  5.292450
  N    10.297267 11.900887  5.089138
  S     9.499015  8.023984  3.770409
  S     9.706464 11.276116  3.747414
  S    12.666429  8.394396  1.272792
  S    12.682873 11.787299  1.005845
  S    11.764610  8.740602  5.339774
  S    11.824600 12.519457  5.092796
