16  
    
  C     5.466055  5.533431  1.654967
  C     5.334493  8.896521  1.694768
  C     4.264769  5.046139  1.057688
  C     4.156411  8.424985  0.931514
  N     6.466885  5.715569  0.765757
  N     6.374877  9.218321  0.918226
  N     4.313134  4.981544 -0.266062
  N     4.425670  8.174705 -0.349413
  N     3.667436  5.153472  3.566217
  N     3.329868  8.727478  3.368138
  S     2.850682  5.060735  2.064229
  S     2.692066  8.343132  1.903429
  S     5.783800  5.488890 -0.719975
  S     5.964828  8.710900 -0.628713
  S     5.284890  5.674163  3.397596
  S     4.972309  9.147920  3.381426
