16  
    
  C     5.984951  4.848115  1.762868
  C     5.876098  9.156537  1.958679
  C     4.808612  4.464796  1.011033
  C     4.689148  8.652246  1.349230
  N     7.090592  4.929882  1.030753
  N     6.921142  9.320770  1.160216
  N     5.028827  4.430922 -0.302454
  N     4.801319  8.464045  0.019362
  N     3.991634  4.893755  3.391135
  N     4.121868  8.934933  3.833719
  S     3.349958  4.258650  1.986854
  S     3.377996  8.398047  2.517552
  S     6.617666  4.832923 -0.561062
  S     6.316681  8.936026 -0.336142
  S     5.578571  5.049396  3.521445
  S     5.652326  9.576647  3.625388
