16  
    
  C     8.315602  6.650488  2.634082
  C     8.780713 10.508949  2.816622
  C     7.233857  6.015568  1.911471
  C     7.579359 10.054191  2.172193
  N     9.403050  6.859677  1.890347
  N     9.821579 10.690794  2.006603
  N     7.324882  5.976877  0.591136
  N     7.658006  9.859433  0.852831
  N     6.301468  6.274644  4.262416
  N     6.919891 10.353975  4.622697
  S     5.733439  5.868838  2.764279
  S     6.174000  9.953833  3.192792
  S     8.879140  6.503228  0.268432
  S     9.229068 10.120728  0.502341
  S     7.900209  6.855005  4.356218
  S     8.584363 10.502439  4.550391
