16  
    
  C    11.869669  8.677222  3.525923
  C    11.570460 12.316537  3.258230
  C    10.603714  8.350401  2.929673
  C    10.463599 11.723323  2.565450
  N    12.875471  8.818199  2.657710
  N    12.674081 12.440280  2.531429
  N    10.674433  8.200689  1.606934
  N    10.679129 11.476349  1.281979
  N    10.049427  8.559617  5.372921
  N     9.564591 11.876801  4.975750
  S     9.245206  8.276213  3.925983
  S     8.999499 11.431771  3.451819
  S    12.248932  8.437784  1.176061
  S    12.257813 11.893034  0.996036
  S    11.635094  9.012898  5.203041
  S    11.197107 12.349854  5.010069
