16  
    
  C    12.880087  9.191775  3.435237
  C    12.998474 12.864143  3.466607
  C    11.733721  8.607175  2.827518
  C    11.782819 12.367125  2.917321
  N    13.895859  9.419462  2.575011
  N    14.030661 12.990094  2.593885
  N    11.921652  8.220683  1.563913
  N    11.848461 12.092886  1.616727
  N    10.931799  9.165787  5.263475
  N    11.223775 13.016407  5.342050
  S    10.422665  8.386639  3.847549
  S    10.424051 12.592340  3.972680
  S    13.400241  8.812680  1.077655
  S    13.391576 12.470265  1.195357
  S    12.581158  9.532532  5.140020
  S    12.784190 13.443782  5.125808
