16  
    
  C     3.686935  4.669848  1.597648
  C     3.819193  8.338749  1.677006
  C     2.451460  4.171381  0.987089
  C     2.604844  7.932937  1.064437
  N     4.618320  5.031807  0.712582
  N     4.827222  8.504434  0.826722
  N     2.450331  4.067395 -0.349759
  N     2.648738  7.848354 -0.246485
  N     1.849049  4.327911  3.470264
  N     2.136934  8.049089  3.594655
  S     1.190289  3.734339  2.055308
  S     1.316857  7.875762  2.184288
  S     3.973632  4.629905 -0.793783
  S     4.235211  8.197995 -0.657291
  S     3.489442  4.782644  3.356653
  S     3.780416  8.422665  3.419013
