16  
    
  C    12.604521  8.835578  3.678137
  C    12.404819 12.779220  3.883585
  C    11.396077  8.481827  3.020744
  C    11.326639 12.104460  3.232867
  N    13.635431  9.046746  2.881873
  N    13.489503 13.059401  3.139536
  N    11.503827  8.249577  1.697991
  N    11.510502 12.038455  1.925235
  N    11.055386  8.491173  5.550361
  N    10.563417 12.420581  5.709856
  S    10.149854  8.186154  4.216090
  S     9.907536 11.818464  4.256013
  S    13.138078  8.670451  1.325759
  S    13.056390 12.647923  1.609368
  S    12.566396  9.117182  5.401524
  S    12.049075 13.100252  5.584129
