16  
    
  C    11.901597  8.621729  3.368783
  C    11.557747 12.265483  3.170681
  C    10.647464  8.095409  2.861227
  C    10.419558 11.596539  2.507979
  N    12.852624  8.769014  2.440747
  N    12.543114 12.532763  2.328449
  N    10.643966  7.794964  1.556873
  N    10.516736 11.549138  1.176451
  N    10.356224  8.606716  5.366822
  N     9.906346 12.018844  5.084799
  S     9.437706  7.983491  4.145634
  S     9.159420 11.421093  3.694690
  S    12.131315  8.309504  0.990751
  S    12.100099 11.994660  0.849389
  S    11.910594  9.090519  5.015746
  S    11.517989 12.366590  4.911488
