16  
    
  C    11.625339  8.606280  3.208171
  C    11.378697 12.262099  3.301204
  C    10.435411  7.981157  2.618061
  C    10.238194 11.736769  2.599638
  N    12.513915  8.963075  2.314901
  N    12.396288 12.607582  2.488392
  N    10.490453  7.933807  1.305865
  N    10.425589 11.523286  1.297817
  N    10.017895  8.227121  5.159823
  N     9.466233 11.890551  5.079916
  S     9.241667  7.764813  3.823043
  S     8.833773 11.344906  3.556837
  S    11.971560  8.558336  0.812358
  S    11.890379 12.282426  0.974375
  S    11.560703  8.860608  4.953378
  S    11.120050 12.227702  5.048920
