16  
    
  C     9.787234  7.649478  2.708624
  C     9.818202 11.241049  2.962582
  C     8.584673  7.140751  2.028542
  C     8.654613 10.637571  2.246954
  N    10.836285  7.811420  1.895843
  N    10.858465 11.476642  2.162654
  N     8.713017  6.958270  0.705356
  N     8.866767 10.456074  0.963182
  N     8.057101  7.253886  4.553036
  N     8.043984 10.649022  4.738136
  S     7.254817  6.977447  3.144138
  S     7.345847 10.259322  3.293724
  S    10.275544  7.436775  0.323257
  S    10.401825 10.997881  0.611074
  S     9.642377  7.656747  4.466955
  S     9.547022 11.355941  4.655629
