16  
    
  C     5.773601  5.089062  1.970847
  C     5.643032  9.189284  1.996001
  C     4.595493  4.559929  1.325236
  C     4.550644  8.427401  1.472208
  N     6.726990  5.480636  1.121116
  N     6.598456  9.516084  1.132001
  N     4.715757  4.264334  0.042304
  N     4.590509  8.311992  0.151863
  N     3.953851  4.792747  3.798475
  N     4.098884  8.750544  3.962420
  S     3.266013  4.263681  2.354414
  S     3.254618  8.150217  2.646407
  S     6.227917  4.815801 -0.363492
  S     6.055054  9.032392 -0.376938
  S     5.469664  5.490344  3.600042
  S     5.620256  9.336435  3.721319
