16  
    
  C     8.596980  7.288767  2.665070
  C     8.891244 11.059584  2.208079
  C     7.476872  6.555410  2.133932
  C     7.752110 10.552139  1.524412
  N     9.604268  7.514560  1.835898
  N     9.939400 11.387731  1.493366
  N     7.520152  6.357854  0.817270
  N     7.899128 10.613557  0.195864
  N     7.099435  6.985177  4.648870
  N     7.241774 10.408396  4.092384
  S     6.370293  6.179576  3.416341
  S     6.469729 10.126480  2.635634
  S     9.069250  6.884680  0.403258
  S     9.411800 11.150292 -0.063590
  S     8.702686  7.499912  4.370143
  S     8.790647 11.078318  3.968751
