16  
    
  C     9.371125  6.734589  2.430540
  C     9.416600 10.550236  2.838970
  C     8.167553  6.334315  1.713644
  C     8.140710 10.410942  2.129118
  N    10.424985  6.817849  1.603034
  N    10.492757 10.360210  2.038601
  N     8.297064  6.049021  0.430035
  N     8.271667  9.998099  0.874099
  N     7.374508  6.609284  4.100043
  N     7.620348 10.985851  4.570618
  S     6.719862  6.205799  2.628417
  S     6.797462 10.626860  3.187020
  S     9.856107  6.400625  0.055344
  S     9.886600  9.978054  0.525283
  S     9.009513  6.864272  4.114816
  S     9.258069 10.908478  4.477103
