16  
    
  C     9.204610  6.828796  2.354607
  C     9.155615 10.856010  2.957392
  C     8.038584  6.209252  1.802870
  C     7.944853 10.418354  2.408005
  N    10.327836  6.743066  1.631798
  N    10.227988 10.775416  2.187665
  N     8.211039  5.733488  0.577386
  N     8.041581 10.035682  1.122520
  N     7.431922  6.925833  4.179963
  N     7.379924 10.981811  4.799207
  S     6.638630  6.347360  2.825384
  S     6.563142 10.618605  3.411760
  S     9.801085  6.033456  0.208475
  S     9.601442 10.204197  0.713543
  S     9.049635  7.223605  3.999978
  S     9.044350 11.102885  4.669635
