16  
    
  C    11.059003  8.247217  2.953050
  C    10.791988 11.948373  3.017732
  C     9.847724  7.688305  2.347556
  C     9.679995 11.300240  2.393706
  N    12.050351  8.463536  2.093755
  N    11.834303 12.153041  2.208194
  N     9.945465  7.501178  1.051936
  N     9.775525 11.085763  1.079312
  N     9.357609  7.802687  4.919539
  N     9.037633 11.589074  4.909316
  S     8.567421  7.447627  3.477468
  S     8.348869 11.037339  3.465563
  S    11.507201  7.950775  0.564969
  S    11.339635 11.678855  0.696157
  S    10.929023  8.539738  4.651702
  S    10.610953 12.080564  4.826232
