16  
    
  C     9.817486  7.684957  2.800323
  C    10.593597 11.499191  3.114985
  C     8.785111  7.053571  2.024354
  C     9.401245 11.140109  2.460601
  N    10.911548  8.032108  2.173458
  N    11.701563 11.572896  2.370055
  N     9.083748  6.963927  0.746859
  N     9.563306 10.983709  1.151983
  N     7.847112  7.278067  4.430168
  N     8.727176 11.400880  4.915012
  S     7.382591  6.617811  2.977063
  S     8.039647 10.925983  3.495737
  S    10.705767  7.530927  0.593199
  S    11.120501 11.240536  0.804480
  S     9.400695  7.935022  4.465329
  S    10.355997 11.829855  4.818022
