16  
    
  C     6.724328  5.789508  2.257288
  C     6.774348  9.733691  2.332272
  C     5.422990  5.435061  1.751334
  C     5.549522  9.249665  1.745565
  N     7.608823  6.150285  1.334430
  N     7.724640  9.968158  1.458318
  N     5.453161  5.276274  0.421403
  N     5.550941  9.212640  0.415845
  N     5.148388  5.521733  4.308385
  N     5.117675  9.589855  4.268535
  S     4.193069  5.104000  2.975191
  S     4.247291  9.086945  2.942038
  S     6.940422  5.781986 -0.140388
  S     7.156072  9.606974 -0.040292
  S     6.731401  6.006679  3.960855
  S     6.798198  9.932843  4.014865
