16  
    
  C    12.504579  9.040471  3.369883
  C    12.284859 12.797120  3.591501
  C    11.325557  8.556643  2.725289
  C    11.132191 12.137926  3.026437
  N    13.558158  9.378124  2.609974
  N    13.188375 13.144588  2.707005
  N    11.590851  8.347738  1.432621
  N    11.208241 11.872788  1.737247
  N    10.788525  8.561620  5.202318
  N    10.691613 12.282924  5.506318
  S    10.008508  8.261049  3.823632
  S     9.883254 11.893721  4.148642
  S    13.074659  8.878031  1.087257
  S    12.604924 12.627767  1.215345
  S    12.295829  9.026450  5.129455
  S    12.121741 13.147097  5.257184
