16  
    
  C     5.120024  4.855996  1.748153
  C     4.992819  8.750146  1.806719
  C     3.745751  4.823404  1.268881
  C     3.759721  8.329755  1.272864
  N     5.973163  5.130361  0.767956
  N     6.011072  8.655037  0.939248
  N     3.571161  4.854706 -0.044865
  N     3.822151  8.078537 -0.039656
  N     3.571218  4.697547  3.803403
  N     3.366461  8.679373  3.783676
  S     2.607548  4.697356  2.521429
  S     2.445431  8.374283  2.452069
  S     5.104478  4.985083 -0.691373
  S     5.374215  8.225310 -0.517579
  S     5.166596  4.903377  3.507818
  S     4.926992  9.099263  3.542128
