16  
    
  C    12.228552  8.887584  3.546474
  C    12.010564 12.545071  3.444461
  C    11.067025  8.476661  2.780224
  C    10.726405 12.249857  2.790690
  N    13.284142  9.247185  2.808204
  N    13.031649 12.433994  2.601511
  N    11.253683  8.368237  1.472983
  N    10.811203 12.140318  1.487231
  N    10.294842  8.700927  5.290740
  N    10.232691 12.120531  5.334224
  S     9.611414  8.347922  3.722929
  S     9.511628 11.861697  3.895264
  S    12.820612  8.840084  1.212355
  S    12.387522 12.309655  1.051738
  S    11.894107  9.181387  5.161184
  S    11.825536 12.632101  5.203204
