16  
    
  C     6.014648  5.558589  2.176749
  C     5.958535  9.234672  1.568549
  C     4.664989  5.583652  1.552042
  C     4.726269  8.794249  0.913818
  N     7.029696  5.523618  1.290485
  N     7.041203  9.218095  0.804525
  N     4.710935  5.358769  0.240721
  N     4.902254  8.519119 -0.372294
  N     4.248593  5.821485  4.091349
  N     4.183916  9.007428  3.471808
  S     3.311184  5.725385  2.653744
  S     3.384267  8.785556  2.005174
  S     6.304645  5.292504 -0.209871
  S     6.533756  8.816511 -0.722978
  S     5.963151  5.858689  3.930451
  S     5.806925  9.524726  3.238045
