16  
    
  C     7.246885  5.921731  2.214971
  C     7.500254  9.618756  2.397864
  C     6.140831  5.480631  1.425339
  C     6.289749  9.410092  1.723996
  N     8.331829  6.220364  1.522113
  N     8.610640  9.708901  1.654951
  N     6.441124  5.351973  0.128795
  N     6.452109  9.283507  0.412500
  N     5.331526  5.671695  3.901079
  N     5.714048  9.641157  4.247357
  S     4.685440  5.276190  2.406620
  S     4.921364  9.359749  2.802997
  S     8.004139  5.899623 -0.077798
  S     8.091232  9.522283  0.085276
  S     6.875458  6.071619  3.879841
  S     7.329003  9.813169  4.106047
