16  
    
  C    12.890160  9.332544  3.500255
  C    12.790318 12.930289  3.578749
  C    11.684533  8.894092  2.837093
  C    11.519478 12.462330  3.015880
  N    13.917177  9.478946  2.644371
  N    13.824634 12.906556  2.694696
  N    11.824122  8.603850  1.554632
  N    11.598519 12.142829  1.723507
  N    10.991525  9.040923  5.325679
  N    11.092022 12.781955  5.474232
  S    10.337013  8.511467  3.871249
  S    10.176654 12.400706  4.102193
  S    13.430523  8.820200  1.115424
  S    13.156331 12.496446  1.283893
  S    12.538450  9.754299  5.172900
  S    12.694870 13.203081  5.375061
