16  
    
  C    11.861276  8.679369  3.516953
  C    11.548119 12.313571  3.258336
  C    10.616809  8.345057  2.922384
  C    10.455910 11.683744  2.549017
  N    12.885420  8.808756  2.644953
  N    12.650902 12.453863  2.537944
  N    10.672959  8.180478  1.598193
  N    10.689261 11.499130  1.262544
  N    10.063474  8.572715  5.382286
  N     9.579283 11.884743  4.937453
  S     9.239521  8.281922  3.935581
  S     9.010561 11.418340  3.462761
  S    12.242583  8.447437  1.171019
  S    12.249242 11.892320  1.000884
  S    11.641394  9.015200  5.202306
  S    11.196349 12.374841  5.022627
