16  
    
  C    11.411975  8.601918  3.368743
  C    11.497717 12.408305  3.337225
  C    10.251765  7.959128  2.785657
  C    10.379819 11.693054  2.742638
  N    12.422892  8.736631  2.522107
  N    12.551917 12.630753  2.528677
  N    10.328982  7.626545  1.491015
  N    10.529241 11.486778  1.447417
  N     9.544715  8.530560  5.168264
  N     9.592303 12.117599  5.063527
  S     8.919724  7.687374  3.888865
  S     8.943749 11.569878  3.692988
  S    11.895265  8.135618  1.035010
  S    12.038497 11.974914  0.962511
  S    11.082688  9.191656  4.976919
  S    11.112006 12.688509  5.015735
