16  
    
  C     4.377484  5.050215  1.175381
  C     4.345213  8.459587  1.503882
  C     3.116596  4.633459  0.605611
  C     3.141514  8.060594  0.716330
  N     5.381579  5.142279  0.296821
  N     5.417608  8.754271  0.793447
  N     3.161817  4.544547 -0.729554
  N     3.413158  7.901223 -0.570821
  N     2.708663  4.807436  3.112708
  N     2.426279  8.185952  3.164129
  S     1.807490  4.719145  1.735791
  S     1.786891  7.647660  1.676546
  S     4.721241  4.816384 -1.243652
  S     4.961782  8.408752 -0.826939
  S     4.329730  5.181984  2.923209
  S     4.077726  8.388117  3.198851
