16  
    
  C     9.269301  6.806390  2.360549
  C     9.472516 10.572463  2.779181
  C     8.114592  6.315230  1.679192
  C     8.189790 10.290087  2.171224
  N    10.373518  6.888796  1.612534
  N    10.528576 10.416687  1.999342
  N     8.286024  6.099020  0.388323
  N     8.285808 10.009222  0.872582
  N     7.412770  6.529928  4.123420
  N     7.685930 10.879731  4.606046
  S     6.738666  6.183365  2.663833
  S     6.833637 10.561841  3.223204
  S     9.856376  6.442172  0.101449
  S     9.889604 10.039950  0.532706
  S     9.052504  6.782561  4.119790
  S     9.359259 10.897309  4.478157
