16  
    
  C     5.638725  5.271510  1.945144
  C     5.660267  8.970733  1.931908
  C     4.527350  4.592114  1.431975
  C     4.463446  8.493123  1.306369
  N     6.560090  5.629686  1.063765
  N     6.650584  9.279541  1.093778
  N     4.553344  4.403867  0.109433
  N     4.530508  8.463028 -0.023562
  N     3.932981  5.051752  3.957694
  N     3.925678  8.620607  3.859469
  S     3.305240  4.237400  2.614725
  S     3.195942  8.008603  2.452885
  S     6.022352  5.004666 -0.356041
  S     6.020330  8.931236 -0.419520
  S     5.468609  5.654663  3.602657
  S     5.554722  9.155439  3.684326
