16  
    
  C     7.973208  6.307889  2.343989
  C     8.078137 10.501209  2.115674
  C     6.708345  5.964042  1.591848
  C     6.820324  9.903146  1.586648
  N     8.950252  6.651322  1.512102
  N     8.992285 10.735241  1.163425
  N     6.896584  5.864144  0.289749
  N     6.844908  9.665040  0.291311
  N     5.950432  6.332283  3.963125
  N     6.468592 10.235626  4.142412
  S     5.281698  5.683106  2.547890
  S     5.595571  9.756599  2.812748
  S     8.377842  6.336194 -0.032549
  S     8.275979 10.101186 -0.271555
  S     7.605541  6.529854  4.061478
  S     7.992824 10.899675  3.834369
