16  
    
  C    12.407112  9.168724  3.458709
  C    12.513294 12.682528  3.499044
  C    11.271891  8.535295  2.703510
  C    11.198824 12.278029  2.969399
  N    13.425844  9.562148  2.704917
  N    13.371720 12.887105  2.483069
  N    11.420331  8.546507  1.399786
  N    11.157537 12.048215  1.650346
  N    10.592201  8.382782  5.096333
  N    10.842728 12.612543  5.530213
  S     9.972007  7.966741  3.670741
  S     9.955050 11.954742  4.200012
  S    12.970239  9.254179  1.137558
  S    12.621645 12.443886  1.044042
  S    12.035929  9.233986  5.193291
  S    12.380560 13.103087  5.208089
