16  
    
  C    12.393601  9.220204  3.475992
  C    12.522555 12.657775  3.480860
  C    11.299582  8.550622  2.739415
  C    11.219081 12.252059  2.979019
  N    13.416635  9.569516  2.713460
  N    13.381960 12.898365  2.471899
  N    11.417724  8.535541  1.429749
  N    11.143588 12.056987  1.651098
  N    10.578620  8.369703  5.138528
  N    10.844540 12.588405  5.540071
  S     9.978388  7.961511  3.666215
  S     9.959066 11.985845  4.188748
  S    12.953953  9.250092  1.135979
  S    12.632171 12.443872  1.050783
  S    12.031491  9.225167  5.187830
  S    12.388947 13.108719  5.215658
