16  
    
  C     9.438601  7.114297  2.956147
  C     9.576524 10.840022  2.582487
  C     8.345139  6.550975  2.241460
  C     8.340182 10.476264  2.022493
  N    10.456330  7.556926  2.253163
  N    10.566714 11.123694  1.768489
  N     8.584141  6.505292  0.943429
  N     8.401220 10.318723  0.717254
  N     7.742059  6.463682  4.770712
  N     7.923092 10.409523  4.572592
  S     7.054240  6.027990  3.292261
  S     7.071645 10.109907  3.156361
  S    10.075696  7.283956  0.675280
  S     9.953779 10.800630  0.268483
  S     9.264665  7.030469  4.711376
  S     9.507804 10.916529  4.355258
