16  
    
  C     9.844032  7.429125  2.600131
  C    10.342676 11.390911  2.580156
  C     8.672184  6.699439  2.076698
  C     9.116226 10.838442  1.969694
  N    10.746551  7.676758  1.624464
  N    11.298169 11.542811  1.656088
  N     8.671441  6.405188  0.780573
  N     9.187408 10.652240  0.644365
  N     7.982633  7.356800  4.415828
  N     8.653944 11.092589  4.441446
  S     7.300097  6.550591  3.147881
  S     7.792979 10.849781  3.076800
  S    10.070372  7.058118  0.188827
  S    10.705686 11.109511  0.196093
  S     9.530750  7.929772  4.210038
  S    10.254646 11.543048  4.277396
