16  
    
  C    11.350950  8.767138  3.208179
  C    11.365682 12.358893  3.288769
  C    10.257389  8.018530  2.682444
  C    10.240820 11.791033  2.550797
  N    12.343511  9.073790  2.372779
  N    12.504158 12.426728  2.613249
  N    10.411305  7.635502  1.398529
  N    10.510615 11.706405  1.243757
  N     9.794428  8.397009  5.235749
  N     9.651656 11.767381  4.980415
  S     9.029476  7.757657  3.887717
  S     8.884942 11.375308  3.597144
  S    11.938992  8.240196  0.976599
  S    12.076339 12.216648  0.979587
  S    11.243667  9.116924  4.968365
  S    11.089218 12.531926  4.950219
