16  
    
  C     8.761425  6.937195  2.302495
  C     9.017320 10.407118  2.600237
  C     7.588808  6.394473  1.615460
  C     7.742136 10.069652  1.981722
  N     9.768865  7.077502  1.440383
  N    10.022303 10.364916  1.675210
  N     7.687363  6.320388  0.304475
  N     7.793956  9.911636  0.669328
  N     6.824431  6.679275  4.061867
  N     7.239911 10.292156  4.493203
  S     6.230424  6.120420  2.591977
  S     6.432483  9.897994  3.087567
  S     9.219654  6.790127 -0.082708
  S     9.383957 10.136716  0.223650
  S     8.378303  7.127611  4.027555
  S     8.869909 10.602043  4.363622
