16  
    
  C    10.733493  8.367746  2.967966
  C    10.751522 11.872919  3.061355
  C     9.543798  7.884141  2.321006
  C     9.636430 11.412440  2.319110
  N    11.739033  8.440419  2.099341
  N    11.853388 12.021659  2.348707
  N     9.656346  7.555459  1.029251
  N     9.875417 11.218280  1.028612
  N     8.973572  8.045612  4.807466
  N     8.851260 11.785793  4.788169
  S     8.210269  7.697277  3.410896
  S     8.209450 11.275578  3.319786
  S    11.189657  8.040638  0.626806
  S    11.447092 11.487456  0.823492
  S    10.589317  8.475439  4.721000
  S    10.496606 12.126469  4.750663
