16  
    
  C     7.319519  5.952546  2.236224
  C     7.670561  9.591256  2.411370
  C     6.191031  5.472277  1.460759
  C     6.450773  9.307121  1.712331
  N     8.378822  6.232366  1.489521
  N     8.685513  9.766423  1.551270
  N     6.361845  5.412758  0.132728
  N     6.461307  9.318202  0.374152
  N     5.325497  5.669281  3.905796
  N     5.804029  9.755755  4.166697
  S     4.707146  5.259337  2.387382
  S     5.034073  9.286672  2.742157
  S     7.938097  5.906743 -0.097430
  S     8.069528  9.578336  0.008034
  S     7.006754  6.037990  3.998139
  S     7.481271  9.774003  4.147232
