16  
    
  C    12.039997  8.500311  3.427620
  C    12.066224 12.183156  3.282315
  C    10.830893  8.143914  2.755715
  C    10.942130 11.636219  2.570915
  N    13.092087  8.671062  2.670904
  N    13.110998 12.522495  2.512936
  N    10.954593  8.067722  1.434531
  N    11.218279 11.267145  1.310091
  N    10.242100  8.362941  5.307045
  N    10.337876 12.022634  5.050915
  S     9.451857  8.066623  3.906573
  S     9.609592 11.400904  3.682820
  S    12.551296  8.425809  1.088956
  S    12.786866 11.869279  1.064156
  S    11.901991  8.790604  5.126553
  S    11.901391 12.394438  4.950307
