16  
    
  C    11.851719  8.816708  3.322773
  C    11.514055 12.364617  3.236099
  C    10.560548  8.358327  2.838048
  C    10.491904 11.588028  2.569778
  N    12.790584  8.805182  2.383763
  N    12.480691 12.672116  2.386102
  N    10.576108  7.909369  1.583773
  N    10.635040 11.400669  1.245052
  N    10.304492  8.553453  5.418172
  N     9.757717 11.802463  5.073808
  S     9.370786  8.215528  4.087747
  S     9.148922 11.296842  3.546084
  S    12.083557  8.278848  0.991568
  S    12.074019 12.003244  0.896449
  S    11.861370  9.135448  5.119534
  S    11.275781 12.574187  4.939806
