16  
    
  C     9.940247  7.857151  2.692533
  C    10.588532 11.486863  3.111849
  C     8.946822  7.094518  2.055854
  C     9.442798 11.215578  2.321488
  N    10.983794  8.132530  1.909116
  N    11.722972 11.689211  2.413964
  N     9.223033  6.693513  0.811741
  N     9.648830 10.930346  1.007183
  N     8.140307  7.376591  4.410551
  N     8.617523 11.275829  4.795506
  S     7.548070  6.719811  3.018783
  S     7.948156 11.216491  3.242405
  S    10.694881  7.385399  0.461045
  S    11.307409 11.242535  0.849329
  S     9.586546  8.124555  4.321301
  S    10.246599 11.627981  4.789074
