16  
    
  C    12.731753  9.123478  3.391223
  C    12.772972 12.699644  3.500184
  C    11.517070  8.668892  2.833307
  C    11.627127 12.264024  2.790333
  N    13.711104  9.114313  2.489281
  N    13.787625 13.075123  2.749391
  N    11.471912  8.476465  1.497238
  N    11.836834 12.088753  1.496479
  N    11.092347  8.918968  5.442115
  N    10.880807 12.471932  5.242742
  S    10.267862  8.458700  4.024191
  S    10.239095 12.035557  3.777545
  S    13.059384  8.812863  1.038825
  S    13.313049 12.678841  1.160556
  S    12.679311  9.469563  5.072100
  S    12.362184 13.113850  5.116649
