16  
    
  C    12.067130  8.552335  3.283237
  C    12.132355 12.132347  3.217855
  C    10.788697  8.315332  2.748697
  C    10.891126 11.703468  2.624843
  N    12.994833  8.716255  2.326109
  N    13.143793 12.268099  2.365678
  N    10.744381  8.239081  1.410072
  N    10.931322 11.405067  1.339648
  N    10.375349  8.464976  5.328187
  N    10.262865 11.954586  5.083064
  S     9.490253  8.083863  3.901821
  S     9.570614 11.566975  3.625941
  S    12.293812  8.344189  0.893963
  S    12.451670 11.945539  0.891028
  S    12.005949  8.692538  5.027067
  S    11.877657 12.383331  4.970301
