16  
    
  C    11.892400  8.570367  3.213197
  C    11.425753 12.183155  3.496404
  C    10.630728  8.241966  2.642191
  C    10.252809 11.666799  2.797882
  N    12.879261  8.787646  2.340639
  N    12.436036 12.448977  2.681360
  N    10.645960  8.241806  1.319520
  N    10.333521 11.544544  1.490142
  N    10.266078  7.995300  5.126976
  N     9.635159 11.629593  5.290846
  S     9.319314  7.957869  3.758669
  S     8.999849 11.109859  3.853002
  S    12.222794  8.596669  0.789485
  S    11.937135 11.967116  1.180379
  S    11.814668  8.427359  4.932282
  S    11.171837 12.272000  5.185688
