16  
    
  C     8.294314  6.698189  2.257496
  C     8.136367 10.113229  2.579452
  C     7.092275  6.091243  1.689688
  C     7.050609  9.401280  1.909303
  N     9.369973  6.649594  1.468459
  N     9.202391 10.406312  1.791919
  N     7.249886  5.764725  0.399502
  N     7.258374  9.133537  0.634504
  N     6.564265  6.440520  4.157983
  N     6.233998  9.858204  4.309887
  S     5.733234  6.037968  2.791483
  S     5.621374  9.218952  2.907509
  S     8.797678  6.071225 -0.012053
  S     8.678827  9.867839  0.224405
  S     8.132581  7.064474  3.978744
  S     7.796238 10.397632  4.302139
