16  
    
  C    10.284068  7.652206  2.618953
  C    10.516116 11.415948  2.835808
  C     9.035656  7.206508  2.071248
  C     9.307130 11.264383  2.081103
  N    11.307455  7.730601  1.738310
  N    11.684715 11.267484  2.187565
  N     9.065527  7.020787  0.752746
  N     9.524548 11.174420  0.778649
  N     8.529206  7.717808  4.504029
  N     8.571449 11.357665  4.535087
  S     7.720639  7.113421  3.115239
  S     7.860101 11.441478  3.023490
  S    10.673942  7.264804  0.263967
  S    11.171897 11.166359  0.541809
  S    10.185463  8.042220  4.331984
  S    10.218398 11.627808  4.555992
