16  
    
  C    12.066194  8.581752  3.359374
  C    12.097426 12.149733  3.257670
  C    10.813411  8.247641  2.745255
  C    11.008522 11.441987  2.654507
  N    13.060768  8.634205  2.510212
  N    13.114850 12.485637  2.441854
  N    10.803341  8.074254  1.425313
  N    11.207731 11.315260  1.338643
  N    10.378246  8.429060  5.266749
  N    10.225644 12.021635  5.087715
  S     9.499284  8.062195  3.864967
  S     9.527102 11.519057  3.644411
  S    12.385888  8.390218  1.010216
  S    12.669491 11.914688  0.886505
  S    11.947728  8.748881  5.102818
  S    11.915349 12.375799  4.998458
