16  
    
  C    10.788984  8.370799  3.256791
  C    10.705996 11.881475  3.243674
  C     9.668996  7.728397  2.686617
  C     9.483459 11.431318  2.623561
  N    11.812355  8.621432  2.401183
  N    11.733482 12.052379  2.403222
  N     9.795783  7.438865  1.375960
  N     9.624873 11.251147  1.313809
  N     9.029102  8.064021  5.157637
  N     9.006867 11.544537  5.138740
  S     8.364237  7.501763  3.775616
  S     8.252534 11.056975  3.768938
  S    11.266552  7.964904  0.969704
  S    11.194162 11.663420  0.894845
  S    10.583728  8.706227  4.991866
  S    10.529112 12.096649  4.929500
