16  
    
  C     9.385157  6.669693  2.421866
  C     9.419936 10.543908  2.829242
  C     8.166203  6.337521  1.721801
  C     8.136178 10.428861  2.128130
  N    10.427011  6.787819  1.591100
  N    10.452538 10.339853  2.040923
  N     8.290159  6.042628  0.446160
  N     8.228677 10.007056  0.866476
  N     7.378502  6.660306  4.110214
  N     7.577866 11.012975  4.586824
  S     6.700683  6.204953  2.635833
  S     6.778104 10.646216  3.171872
  S     9.887513  6.387878  0.039624
  S     9.904983  9.957011  0.524781
  S     8.996031  6.903729  4.119331
  S     9.225688 10.921997  4.489315
