16  
    
  C     3.503742  4.476489  1.491539
  C     3.500990  8.345558  1.188927
  C     2.421525  3.811473  0.843428
  C     2.226447  8.056737  0.607887
  N     4.578868  4.712309  0.757098
  N     4.421585  8.665003  0.284181
  N     2.536362  3.798575 -0.484922
  N     2.251583  7.848452 -0.712741
  N     1.789248  4.326843  3.316043
  N     1.968619  8.128450  3.229349
  S     1.128771  3.479886  2.026640
  S     1.018870  7.843532  1.874800
  S     4.123571  4.297091 -0.816940
  S     3.788532  8.319316 -1.219310
  S     3.381848  4.700217  3.206860
  S     3.548889  8.508123  2.922127
