16  
    
  C    10.144794  7.718947  2.616411
  C    10.590171 11.395448  2.994124
  C     8.983037  7.047219  2.042250
  C     9.371326 11.241454  2.186174
  N    11.156723  7.928583  1.798838
  N    11.741367 11.495287  2.293305
  N     9.204988  6.728466  0.781486
  N     9.604767 11.031873  0.870298
  N     8.315106  7.723644  4.453132
  N     8.532927 11.458531  4.619991
  S     7.677545  6.924668  3.130392
  S     7.938976 11.355001  3.065121
  S    10.678086  7.378423  0.328084
  S    11.269258 11.258842  0.703030
  S     9.891158  8.110154  4.291999
  S    10.192922 11.580170  4.712699
