16  
    
  C    10.495900  7.400680  2.690407
  C    10.389782 11.310604  2.678583
  C     9.143552  7.382006  2.089681
  C     9.101683 11.111140  2.026499
  N    11.494955  7.344817  1.786209
  N    11.436245 11.328365  1.815544
  N     9.141745  7.299718  0.759683
  N     9.281119 10.750254  0.737223
  N     8.837479  7.734719  4.578804
  N     8.592495 11.279063  4.503807
  S     7.874956  7.490931  3.242685
  S     7.753202 11.207827  3.068502
  S    10.703358  7.192842  0.308341
  S    10.846971 10.933872  0.334409
  S    10.490937  7.587103  4.461802
  S    10.238449 11.487421  4.407797
