16  
    
  C     5.760398  5.017268  1.858942
  C     5.700865  9.389298  1.987937
  C     4.614852  4.623357  1.108970
  C     4.621997  8.611330  1.488594
  N     6.881055  5.226460  1.152242
  N     6.688156  9.584387  1.108003
  N     4.921719  4.261710 -0.137290
  N     4.660533  8.340959  0.199663
  N     3.918302  4.694876  3.642848
  N     4.169731  8.790875  3.965550
  S     3.228355  4.299964  2.171828
  S     3.338812  8.278952  2.592863
  S     6.513231  4.734200 -0.398640
  S     6.149368  8.974118 -0.351742
  S     5.535256  5.276692  3.564422
  S     5.575348  9.511600  3.717756
