16  
    
  C     8.008259  6.748361  2.690163
  C     8.657516 10.364008  2.616856
  C     6.877965  6.142197  1.961074
  C     7.380142  9.922366  2.031174
  N     9.119885  6.786539  1.938511
  N     9.706424 10.330771  1.797343
  N     7.071046  5.941915  0.661860
  N     7.439514  9.638819  0.721776
  N     6.089248  6.218358  4.367047
  N     6.910566 10.224574  4.531028
  S     5.461284  5.886388  2.869770
  S     6.096211  9.791013  3.151600
  S     8.603708  6.310035  0.368215
  S     8.995251  9.966507  0.236830
  S     7.646683  6.803390  4.400084
  S     8.487925 10.740264  4.320884
