16  
    
  C     9.131610  7.144622  2.301619
  C     9.029882 10.683678  2.364636
  C     7.957055  6.603993  1.741013
  C     7.850366 10.154296  1.780356
  N    10.104754  7.184485  1.390193
  N    10.045533 10.803776  1.492700
  N     7.984101  6.338967  0.449537
  N     7.883317  9.959889  0.487512
  N     7.373151  6.750317  4.184707
  N     7.170177 10.686217  4.192535
  S     6.607947  6.346225  2.794482
  S     6.469602 10.059398  2.803511
  S     9.494739  6.652367 -0.050763
  S     9.444553 10.376782 -0.023518
  S     9.003571  7.231605  4.088231
  S     8.788597 10.945169  4.074616
