16  
    
  C     5.760140  5.639038  1.877306
  C     5.920652  9.041446  2.057045
  C     4.535608  5.361124  1.249762
  C     4.685138  8.744856  1.419680
  N     6.834097  5.545363  1.113042
  N     6.997689  9.091458  1.279830
  N     4.669464  4.967295 -0.017836
  N     4.847307  8.475924  0.129176
  N     3.935803  5.601432  3.764800
  N     4.065475  8.887860  3.924154
  S     3.182622  5.288463  2.375786
  S     3.258037  8.588057  2.418291
  S     6.290204  5.067822 -0.366529
  S     6.407618  8.709358 -0.234393
  S     5.600808  5.763344  3.564329
  S     5.729041  9.073991  3.802562
