16  
    
  C    12.633112  8.922431  3.706945
  C    12.412524 12.767565  3.930649
  C    11.416795  8.396774  3.028780
  C    11.343457 12.098393  3.213466
  N    13.645214  9.103409  2.893150
  N    13.519248 12.988714  3.229684
  N    11.503583  8.261901  1.710229
  N    11.625720 11.983062  1.898572
  N    11.055668  8.462576  5.698020
  N    10.561451 12.336133  5.716734
  S    10.182323  8.189086  4.225727
  S     9.959258 11.883670  4.279127
  S    13.142458  8.665072  1.431352
  S    13.095933 12.670681  1.642856
  S    12.574566  9.084142  5.411227
  S    12.072558 13.060749  5.570788
