16  
    
  C     8.502997  6.701230  2.299570
  C     8.153852 10.364962  2.591289
  C     7.322461  6.141967  1.784070
  C     7.107324  9.742460  1.879933
  N     9.497795  6.750228  1.432939
  N     9.291335 10.454698  1.923731
  N     7.296987  5.877734  0.496693
  N     7.442260  9.412454  0.642806
  N     6.828239  6.435014  4.272196
  N     6.288575  9.752502  4.276240
  S     5.984123  5.969819  2.854271
  S     5.778130  9.176423  2.816504
  S     8.852977  6.312585 -0.048616
  S     9.051852  9.880985  0.419799
  S     8.401328  7.044616  4.049064
  S     7.745563 10.535590  4.329957
