16  
    
  C     6.621426  5.952660  2.088372
  C     6.440204  9.369206  1.916487
  C     5.450429  5.386233  1.465086
  C     5.282051  8.893206  1.216904
  N     7.691244  6.041642  1.290159
  N     7.501712  9.579975  1.131401
  N     5.566488  5.202322  0.157078
  N     5.464772  8.702508 -0.074800
  N     4.817835  5.473692  3.962710
  N     4.580631  8.989025  3.667599
  S     4.019745  5.115351  2.523022
  S     3.922474  8.497528  2.279230
  S     7.122724  5.611875 -0.240320
  S     7.032416  9.211716 -0.415992
  S     6.417639  6.093128  3.850278
  S     6.188990  9.460630  3.663132
