16  
    
  C     9.568022  7.527643  2.603343
  C    10.248055 11.395743  2.516839
  C     8.489612  6.746770  2.031186
  C     9.001803 10.980216  1.928624
  N    10.491868  7.795910  1.718354
  N    11.212597 11.532654  1.628070
  N     8.703598  6.317120  0.777459
  N     9.057270 10.680620  0.629964
  N     7.829452  7.513208  4.474588
  N     8.557586 11.132138  4.523251
  S     7.212819  6.541016  3.232996
  S     7.722250 10.730410  3.163021
  S    10.147520  7.017132  0.311093
  S    10.623073 11.052919  0.210767
  S     9.454773  7.914472  4.262958
  S    10.152473 11.586731  4.263812
