16  
    
  C    12.002100  8.808140  3.388004
  C    11.864982 12.196955  3.280835
  C    10.741256  8.525163  2.713486
  C    10.569478 11.798482  2.748804
  N    13.093283  8.905025  2.679517
  N    12.786679 12.421536  2.340421
  N    10.956124  8.461778  1.408068
  N    10.528114 11.759203  1.396849
  N    10.247854  8.504572  5.225350
  N    10.278506 12.108422  5.353295
  S     9.401914  8.271121  3.801357
  S     9.341285 11.871899  3.955864
  S    12.564153  8.654164  1.094161
  S    12.060286 12.214157  0.869247
  S    11.882193  8.771302  5.111553
  S    11.911241 12.172044  4.959138
