16  
    
  C     9.853121  7.604755  2.964464
  C    10.615434 11.468765  3.103193
  C     8.763052  7.096377  2.141897
  C     9.336757 11.050499  2.469103
  N    10.932161  7.907658  2.244091
  N    11.612907 11.659882  2.251970
  N     9.025924  7.015968  0.833119
  N     9.446163 10.815606  1.160315
  N     7.875480  7.290143  4.425427
  N     8.856435 11.437505  5.024683
  S     7.349692  6.666268  3.033587
  S     8.067682 10.850368  3.660368
  S    10.603361  7.668948  0.627870
  S    10.997177 11.249481  0.730449
  S     9.450194  7.701714  4.637546
  S    10.470374 11.957547  4.772000
