16  
    
  C     6.717175  5.787140  2.120624
  C     6.714092  9.759625  2.206866
  C     5.436014  5.630443  1.554081
  C     5.479940  9.275294  1.728027
  N     7.685305  5.903831  1.231304
  N     7.656606  9.835181  1.269098
  N     5.422977  5.361860  0.251755
  N     5.421431  9.035004  0.423764
  N     5.025788  5.575061  4.080851
  N     5.155408  9.276066  4.249168
  S     4.229060  5.304347  2.695494
  S     4.215529  9.106467  2.846063
  S     6.967895  5.623957 -0.239686
  S     6.952172  9.420658 -0.152654
  S     6.654839  5.971789  3.830154
  S     6.722913  9.859481  4.012343
