16  
    
  C    11.059474  8.237482  2.952170
  C    10.789549 11.951981  3.019733
  C     9.849696  7.685814  2.349962
  C     9.683154 11.296071  2.399572
  N    12.058304  8.464692  2.097234
  N    11.838308 12.146864  2.210452
  N     9.942143  7.509749  1.050128
  N     9.777206 11.081870  1.080913
  N     9.355197  7.799824  4.916761
  N     9.035274 11.590686  4.913164
  S     8.562210  7.452926  3.474349
  S     8.345237 11.041356  3.463504
  S    11.504617  7.950559  0.563567
  S    11.341983 11.684132  0.694473
  S    10.922697  8.539164  4.651693
  S    10.610292 12.085952  4.822438
