16  
    
  C     8.191018  6.544407  2.272716
  C     8.018796 10.125880  2.384533
  C     7.029365  5.964706  1.697434
  C     6.876151  9.497279  1.779299
  N     9.261392  6.600398  1.452970
  N     9.045177 10.442537  1.595726
  N     7.121522  5.778140  0.356610
  N     7.016973  9.271515  0.487020
  N     6.377596  6.326626  4.165946
  N     6.302046  9.907290  4.255208
  S     5.621882  5.932287  2.788424
  S     5.513707  9.395553  2.891155
  S     8.662573  6.079017 -0.042499
  S     8.522269  9.800583  0.095677
  S     8.011897  6.786249  4.008029
  S     7.899365 10.298190  4.120840
