16  
    
  C     9.423112  7.022507  2.956857
  C     9.647789 10.753363  2.590109
  C     8.256218  6.571864  2.271899
  C     8.463113 10.334945  1.965645
  N    10.380753  7.350015  2.117718
  N    10.588705 11.156976  1.742622
  N     8.313538  6.478044  0.956369
  N     8.473137 10.241092  0.652635
  N     7.586614  6.494467  4.764565
  N     7.952236 10.338745  4.557500
  S     6.989887  5.981930  3.298524
  S     7.155036  9.866830  3.127380
  S     9.820876  7.096991  0.554090
  S    10.017306 10.896811  0.221093
  S     9.208192  6.908294  4.743065
  S     9.509953 10.875126  4.335329
