16  
    
  C     5.915838  5.065528  1.662117
  C     5.999890  8.909410  2.062144
  C     4.663179  4.662296  1.040542
  C     4.757593  8.650288  1.399499
  N     6.896533  5.222671  0.799577
  N     7.007732  9.078324  1.230720
  N     4.746487  4.623486 -0.287530
  N     4.840261  8.479069  0.088687
  N     4.254028  5.041148  3.522827
  N     4.186267  8.835108  3.929521
  S     3.338313  4.618165  2.141468
  S     3.466193  8.610532  2.465311
  S     6.291877  4.976894 -0.719298
  S     6.487006  8.782583 -0.289102
  S     5.884560  5.350315  3.368067
  S     5.859005  9.119929  3.783458
