16  
    
  C     8.854131  7.242748  2.438013
  C     9.177582 10.827038  2.246453
  C     7.632538  6.909647  1.706427
  C     7.859735 10.610389  1.609882
  N     9.882791  7.564278  1.664655
  N    10.186965 10.815272  1.384886
  N     7.808113  6.943922  0.390094
  N     7.929391 10.481580  0.301517
  N     7.082934  6.624676  4.150472
  N     7.442291 10.709083  4.134041
  S     6.373612  6.301472  2.675297
  S     6.579220 10.428751  2.716572
  S     9.391699  7.405143  0.109765
  S     9.578242 10.621219 -0.141755
  S     8.655778  7.144347  4.134291
  S     9.097848 10.843070  3.955818
