16  
    
  C    12.159527  8.947611  3.542672
  C    12.006902 12.408526  3.411216
  C    11.017035  8.472379  2.778632
  C    10.658474 12.163138  2.822510
  N    13.232989  9.051984  2.735116
  N    12.934995 12.571676  2.462741
  N    11.236100  8.344830  1.489117
  N    10.591553 12.126290  1.501348
  N    10.233278  8.580218  5.170836
  N    10.235797 12.039777  5.326878
  S     9.538137  8.349998  3.709656
  S     9.374008 11.864193  3.908105
  S    12.750182  8.830313  1.175074
  S    12.195987 12.215092  1.021187
  S    11.785844  9.038568  5.279074
  S    11.910596 12.430226  5.138299
