16  
    
  C     8.646956  7.181371  2.576797
  C     9.039896 10.812047  2.128539
  C     7.513344  6.582888  1.892855
  C     7.827203 10.559310  1.401961
  N     9.605628  7.687807  1.810374
  N    10.112353 11.027367  1.393466
  N     7.602573  6.591108  0.559087
  N     7.980380 10.502508  0.068577
  N     7.062793  6.623761  4.445072
  N     7.323888 10.474496  3.950450
  S     6.236856  6.300356  3.046276
  S     6.474401 10.365389  2.547918
  S     9.068935  7.414651  0.261431
  S     9.533410 10.895640 -0.220092
  S     8.606642  7.318926  4.263703
  S     8.915001 10.912647  3.825724
