16  
    
  C    12.748962  8.983259  3.817368
  C    12.595185 12.795786  3.966475
  C    11.563591  8.376869  3.223451
  C    11.484333 12.184575  3.252273
  N    13.710307  9.222971  2.935544
  N    13.657730 13.066415  3.219085
  N    11.635312  8.213272  1.909472
  N    11.713946 12.077199  1.947374
  N    10.964320  8.587294  5.778036
  N    10.652552 12.305853  5.648304
  S    10.244294  8.118562  4.301111
  S    10.060782 11.872853  4.146659
  S    13.075558  8.809883  1.456939
  S    13.242888 12.505437  1.652600
  S    12.602460  9.040407  5.659912
  S    12.299738 12.814103  5.686164
