16  
    
  C     4.650042  5.060444  1.992198
  C     4.674448  8.679901  1.416243
  C     3.455358  4.715622  1.276761
  C     3.482641  8.121406  0.768998
  N     5.650433  5.347633  1.127842
  N     5.732848  8.743710  0.613843
  N     3.539310  4.524283 -0.024289
  N     3.650035  7.920923 -0.531336
  N     2.644873  4.877170  3.706287
  N     2.865638  8.313211  3.223808
  S     2.016769  4.475858  2.208470
  S     2.106284  7.961809  1.833278
  S     5.096099  4.952777 -0.399719
  S     5.238899  8.322684 -0.880146
  S     4.279536  5.220977  3.697552
  S     4.424213  8.827184  3.131490
