16  
    
  C     9.871230  7.588490  2.970518
  C    10.591326 11.521222  3.114118
  C     8.797489  7.085933  2.157074
  C     9.359828 11.040653  2.499073
  N    10.926910  7.927983  2.248799
  N    11.574686 11.666472  2.220523
  N     9.007827  7.050951  0.831741
  N     9.464927 10.786603  1.176152
  N     7.891957  7.256379  4.501233
  N     8.880451 11.419295  5.028585
  S     7.345859  6.689537  3.031946
  S     8.074046 10.853193  3.687228
  S    10.593097  7.664248  0.631638
  S    10.964050 11.245428  0.712666
  S     9.485639  7.678066  4.676848
  S    10.491962 11.965642  4.752735
