16  
    
  C    12.847524  9.358722  3.469383
  C    12.782954 12.835927  3.606990
  C    11.657555  8.830101  2.832687
  C    11.509954 12.456846  3.011817
  N    13.928917  9.469190  2.670037
  N    13.805828 12.955846  2.762129
  N    11.823259  8.591482  1.539566
  N    11.604055 12.107778  1.732024
  N    10.983116  9.088320  5.348134
  N    11.063111 12.738351  5.492609
  S    10.333855  8.526213  3.839069
  S    10.207457 12.397412  4.114023
  S    13.399516  8.850215  1.146820
  S    13.156725 12.526291  1.290121
  S    12.560959  9.731330  5.159853
  S    12.647578 13.195759  5.340914
