16  
    
  C    11.237117  8.195981  3.192816
  C    11.449742 11.607552  3.272760
  C     9.955981  7.750004  2.610319
  C    10.147965 11.461473  2.704293
  N    12.260174  8.208054  2.369769
  N    12.436444 11.692421  2.398483
  N    10.013917  7.428273  1.326625
  N    10.175973 11.286895  1.387709
  N     9.461993  8.167778  5.139314
  N     9.703043 11.790849  5.142018
  S     8.718754  7.623830  3.777091
  S     8.802531 11.642657  3.781422
  S    11.607345  7.682352  0.896202
  S    11.772162 11.479897  0.890361
  S    11.142063  8.459377  4.921562
  S    11.334994 11.946452  4.986521
