16  
    
  C    10.733118  8.443877  3.205128
  C    10.700595 11.947654  3.207056
  C     9.590744  7.820773  2.664457
  C     9.526729 11.432948  2.517994
  N    11.736191  8.628277  2.348099
  N    11.793497 11.990773  2.433634
  N     9.701211  7.526506  1.366970
  N     9.720253 11.299610  1.184662
  N     8.945386  8.212942  5.092249
  N     8.890181 11.739503  5.014029
  S     8.287727  7.502141  3.730652
  S     8.194439 11.085260  3.604754
  S    11.225319  7.980680  0.926993
  S    11.285217 11.567804  0.894792
  S    10.569783  8.764249  4.926270
  S    10.530611 12.043573  4.942479
