16  
    
  C     8.819916  6.958897  2.199655
  C     8.993614 10.518591  2.422152
  C     7.669664  6.388585  1.581229
  C     7.773088 10.047392  1.835941
  N     9.888045  7.150932  1.440096
  N    10.007152 10.649860  1.553680
  N     7.848836  6.377140  0.258092
  N     7.873990  9.857634  0.539164
  N     7.161637  6.730949  4.088754
  N     7.304876 10.302863  4.353689
  S     6.296251  6.259419  2.713545
  S     6.433127 10.073745  2.933008
  S     9.449245  6.818545 -0.059467
  S     9.477500 10.178929  0.143799
  S     8.735532  7.232556  3.888268
  S     8.901258 10.718542  4.142738
