16  
    
  C     4.421280  5.025231  1.706706
  C     4.213389  8.630955  1.611420
  C     3.199498  4.692633  1.035334
  C     3.067168  8.149811  0.809615
  N     5.506314  5.193550  0.972570
  N     5.226036  9.071706  0.873018
  N     3.425551  4.481020 -0.275295
  N     3.254079  8.218363 -0.509990
  N     2.735868  4.849106  3.635101
  N     2.299967  8.152511  3.274554
  S     1.855946  4.824374  2.255573
  S     1.690930  7.763916  1.814132
  S     5.024337  4.788633 -0.556789
  S     4.790480  8.848547 -0.741994
  S     4.336691  5.334379  3.438355
  S     3.849772  8.591845  3.327743
