16  
    
  C    12.336356  9.110497  3.676503
  C    12.583268 12.791181  3.540140
  C    11.258687  8.418318  3.042987
  C    11.335271 12.522989  2.924397
  N    13.335033  9.527625  2.889295
  N    13.523723 13.051040  2.636725
  N    11.384964  8.270384  1.737199
  N    11.305882 12.308232  1.614889
  N    10.660976  8.448148  5.456739
  N    10.818272 12.719323  5.458033
  S     9.959062  7.962882  4.064544
  S    10.065454 12.229063  4.086147
  S    12.830675  9.096445  1.343455
  S    12.881780 12.598511  1.176425
  S    12.041155  9.224096  5.438040
  S    12.464701 12.866529  5.283925
