16  
    
  C     5.389457  5.564608  1.728549
  C     5.188426  8.953650  1.780237
  C     4.183328  5.392245  0.951711
  C     4.014811  8.571477  1.081588
  N     6.522870  5.656717  1.016936
  N     6.259837  9.083778  1.002251
  N     4.415515  5.093061 -0.332477
  N     4.113405  8.684030 -0.248873
  N     3.431057  5.307657  3.340999
  N     3.372984  8.587639  3.575888
  S     2.771642  5.082682  1.909511
  S     2.648385  8.170604  2.108245
  S     6.046840  5.317902 -0.583789
  S     5.765395  8.947972 -0.590601
  S     5.006051  5.745646  3.404312
  S     5.002689  8.873017  3.527677
