16  
    
  C     8.051213  6.384674  2.279262
  C     8.051349 10.166137  2.280375
  C     6.834975  5.857246  1.625431
  C     6.780224  9.764984  1.616712
  N     9.096917  6.524571  1.474900
  N     9.090449 10.191623  1.471305
  N     6.964065  5.797324  0.294700
  N     6.860385  9.590895  0.292310
  N     6.303727  6.132802  4.139881
  N     6.332629  9.861802  4.183970
  S     5.556679  5.744601  2.753572
  S     5.529581  9.501147  2.795832
  S     8.491936  6.230238 -0.032670
  S     8.440715  9.865370 -0.096494
  S     7.962529  6.483743  3.967518
  S     7.872454 10.412945  3.992848
