16  
    
  C     5.924203  5.227497  1.678577
  C     6.051141  8.834980  2.117374
  C     4.634076  4.842019  1.114296
  C     4.752064  8.572996  1.472816
  N     6.951761  5.251570  0.827862
  N     7.117853  8.948923  1.328223
  N     4.643852  4.701280 -0.213193
  N     4.864943  8.508008  0.155126
  N     4.112824  5.238292  3.577015
  N     4.234967  8.758005  3.924713
  S     3.328850  4.825768  2.252940
  S     3.361743  8.570329  2.512196
  S     6.226491  5.037133 -0.690505
  S     6.443263  8.814437 -0.249433
  S     5.723667  5.524419  3.381728
  S     5.817213  9.110206  3.841925
