16  
    
  C     4.442953  5.087146  1.705374
  C     4.577869  8.468812  1.481384
  C     3.236045  4.619422  1.093365
  C     3.353380  8.016523  0.823982
  N     5.450404  5.444251  0.944935
  N     5.621033  8.499750  0.675039
  N     3.383883  4.531081 -0.215767
  N     3.512200  7.820124 -0.473666
  N     2.849738  4.762349  3.636236
  N     2.718630  8.621949  3.188430
  S     1.952594  4.481566  2.248602
  S     2.022432  7.882758  1.889518
  S     5.012866  4.967681 -0.563592
  S     5.073723  8.072260 -0.798415
  S     4.387095  5.345664  3.391989
  S     4.312369  8.901012  3.108345
