16  
    
  C    11.450608  8.829573  3.209651
  C    11.426837 12.251245  3.285584
  C    10.362490  8.063064  2.728273
  C    10.236470 11.877699  2.549773
  N    12.385539  9.082388  2.311420
  N    12.464575 12.601239  2.503051
  N    10.507958  7.688471  1.468401
  N    10.406336 11.804624  1.212927
  N     9.831699  8.322373  5.199874
  N     9.484663 11.820292  5.097542
  S     9.054343  7.763406  3.853510
  S     8.912870 11.328466  3.544603
  S    11.927998  8.346847  0.884960
  S    12.014697 12.183553  0.960475
  S    11.378181  9.011496  4.934103
  S    11.079816 12.374598  4.960643
