16  
    
  C    11.332114  8.137278  3.270329
  C    11.412149 11.729263  3.305854
  C    10.022511  7.804550  2.669634
  C    10.128530 11.449877  2.768819
  N    12.364713  8.068201  2.451305
  N    12.378312 11.773104  2.414519
  N    10.152145  7.602372  1.384195
  N    10.051571 11.344611  1.436720
  N     9.491614  8.320950  5.086718
  N     9.719273 12.110782  5.269053
  S     8.685278  7.649239  3.765584
  S     8.835281 11.717001  3.889103
  S    11.761305  7.756872  0.941189
  S    11.605781 11.456661  0.915955
  S    11.108602  8.480746  4.971967
  S    11.411508 12.044313  4.987986
