16  
    
  C    11.239141  8.195256  3.196206
  C    11.453371 11.608081  3.269690
  C     9.966434  7.758372  2.609314
  C    10.142706 11.451167  2.712904
  N    12.264314  8.198343  2.374037
  N    12.438421 11.697663  2.387514
  N    10.022888  7.434593  1.329639
  N    10.171707 11.294540  1.393759
  N     9.462164  8.172385  5.132640
  N     9.707872 11.803892  5.139840
  S     8.716048  7.625242  3.777703
  S     8.799965 11.647977  3.788188
  S    11.612032  7.685634  0.898548
  S    11.765139 11.479201  0.894798
  S    11.141602  8.460213  4.924436
  S    11.335572 11.949963  4.988772
