16  
    
  C     8.580152  6.663062  2.335127
  C     8.200419 10.382421  2.647455
  C     7.305096  6.220144  1.785690
  C     7.148791  9.761908  1.873079
  N     9.502670  6.787043  1.389321
  N     9.335349 10.496269  1.915538
  N     7.342776  5.905797  0.507281
  N     7.493456  9.419235  0.645622
  N     6.819381  6.411354  4.272198
  N     6.281800  9.773656  4.269682
  S     6.015080  5.933880  2.880470
  S     5.783413  9.208949  2.775886
  S     8.849550  6.335166 -0.054520
  S     9.040409  9.898908  0.405038
  S     8.454677  7.014898  4.072449
  S     7.759071 10.544179  4.327485
