16  
    
  C     5.778971  5.125717  1.951369
  C     5.656395  9.208083  2.025966
  C     4.608619  4.527415  1.305681
  C     4.531831  8.443511  1.459357
  N     6.742702  5.438589  1.103155
  N     6.558158  9.550615  1.126289
  N     4.761572  4.281939  0.019012
  N     4.598483  8.291087  0.146303
  N     3.968098  4.737453  3.730056
  N     4.156348  8.746607  3.966760
  S     3.266397  4.298248  2.339463
  S     3.258924  8.179659  2.635148
  S     6.267127  4.784669 -0.359119
  S     6.077080  9.028879 -0.357982
  S     5.454340  5.446665  3.603499
  S     5.623406  9.382617  3.733825
