16  
    
  C    11.070121  8.147487  2.975132
  C    10.853927 11.805396  3.053039
  C     9.836451  7.696341  2.328213
  C     9.683031 11.330564  2.416325
  N    12.041127  8.349640  2.068386
  N    11.887809 12.128858  2.264248
  N     9.911615  7.591898  1.013145
  N     9.911725 11.108059  1.124924
  N     9.312561  7.819063  4.798404
  N     9.011843 11.597779  4.855323
  S     8.479568  7.557876  3.413074
  S     8.280116 11.123246  3.470685
  S    11.432088  7.992601  0.593875
  S    11.342514 11.713834  0.725565
  S    10.776591  8.497896  4.659747
  S    10.577263 12.195232  4.705420
