16  
    
  C    10.764201  8.275897  2.908898
  C    10.825749 12.000850  3.021627
  C     9.577361  7.834676  2.263770
  C     9.609824 11.513205  2.349604
  N    11.821860  8.498432  2.143114
  N    11.937652 11.985587  2.297362
  N     9.681474  7.657781  0.969887
  N     9.808345 11.251232  1.085197
  N     8.976870  8.125462  4.851461
  N     8.867018 11.826743  4.751564
  S     8.231050  7.671565  3.386091
  S     8.245739 11.190080  3.362971
  S    11.282154  7.997000  0.590469
  S    11.479582 11.502513  0.772393
  S    10.622112  8.367559  4.637824
  S    10.480540 12.138719  4.735053
