16  
    
  C    12.740335  8.970002  3.813955
  C    12.515391 12.671026  3.965789
  C    11.514796  8.453928  3.196693
  C    11.362633 12.154270  3.216559
  N    13.687500  9.208429  2.937316
  N    13.560022 13.033057  3.231320
  N    11.629258  8.216277  1.921140
  N    11.648686 11.959605  1.924207
  N    10.994837  8.482181  5.664097
  N    10.685799 12.288774  5.686859
  S    10.189097  8.160122  4.293358
  S     9.987086 11.904816  4.173167
  S    13.110778  8.701593  1.405156
  S    13.195585 12.625548  1.702140
  S    12.566629  9.030673  5.503184
  S    12.180992 12.980445  5.669132
