16  
    
  C     5.067798  4.927990  1.656616
  C     4.919801  8.752676  1.764458
  C     3.690347  4.768239  1.256312
  C     3.623119  8.357553  1.283842
  N     5.915724  4.951126  0.621925
  N     5.872470  8.793548  0.845618
  N     3.500212  4.715930 -0.050873
  N     3.576137  8.139328 -0.023845
  N     3.595476  4.823542  3.802076
  N     3.368114  8.698592  3.816215
  S     2.510744  4.480156  2.505598
  S     2.397826  8.320715  2.509560
  S     5.010364  4.909380 -0.743735
  S     5.140369  8.418658 -0.559184
  S     5.226312  4.768469  3.391081
  S     4.930732  9.047151  3.477464
