16  
    
  C     5.444727  5.457569  1.680687
  C     5.252313  9.006834  1.717485
  C     4.195598  5.163884  0.973780
  C     4.178557  8.433187  0.996262
  N     6.466800  5.740088  0.886197
  N     6.343628  9.190139  0.977440
  N     4.364505  4.913043 -0.343925
  N     4.426337  8.295822 -0.301100
  N     3.664560  5.132298  3.463697
  N     3.359821  8.749859  3.378969
  S     2.858975  5.081016  2.037402
  S     2.697424  8.312094  1.894226
  S     5.883118  5.499516 -0.680162
  S     5.952427  8.776963 -0.576176
  S     5.199004  5.678342  3.372230
  S     4.995201  9.040850  3.460840
