16  
    
  C    10.485927  7.420268  2.668016
  C    10.397335 11.311539  2.666375
  C     9.139432  7.391620  2.081800
  C     9.110903 11.128489  2.021689
  N    11.486239  7.348034  1.780301
  N    11.450111 11.330751  1.809227
  N     9.148571  7.296635  0.762980
  N     9.281418 10.763311  0.735756
  N     8.829553  7.751122  4.580819
  N     8.584183 11.280888  4.501514
  S     7.866341  7.475210  3.243077
  S     7.758006 11.224902  3.064411
  S    10.703622  7.193288  0.309695
  S    10.858900 10.938359  0.343761
  S    10.491237  7.600316  4.449304
  S    10.240590 11.493229  4.409918
