16  
    
  C    10.688096  8.333032  3.097771
  C    10.784273 11.786582  3.126370
  C     9.489178  7.755552  2.505877
  C     9.626134 11.324146  2.433865
  N    11.688016  8.553929  2.240363
  N    11.905483 11.964979  2.405989
  N     9.627310  7.557470  1.192983
  N     9.855522 11.100745  1.153147
  N     9.033910  7.989526  5.001891
  N     8.810022 11.720600  4.910611
  S     8.206792  7.672953  3.654534
  S     8.163056 11.318375  3.411292
  S    11.202956  8.049412  0.779057
  S    11.383642 11.576871  0.842293
  S    10.503583  8.740458  4.754163
  S    10.423131 12.067041  4.819551
