16  
    
  C     3.627570  4.532380  1.594018
  C     3.717399  8.408028  1.542852
  C     2.471832  3.927418  0.995659
  C     2.533930  8.045379  0.869498
  N     4.489156  4.950589  0.673008
  N     4.740270  8.569742  0.741212
  N     2.463399  3.758367 -0.320581
  N     2.562447  8.078938 -0.453856
  N     1.930366  3.923306  3.511834
  N     1.980450  8.079623  3.343760
  S     1.277043  3.428855  2.074632
  S     1.216363  7.696287  1.943931
  S     3.896600  4.337046 -0.806801
  S     4.141558  8.433293 -0.801647
  S     3.449686  4.690129  3.385199
  S     3.579229  8.500169  3.280419
