16  
    
  C     5.571686  5.486981  1.923095
  C     5.422092  8.896057  1.761872
  C     4.337813  4.927158  1.404316
  C     4.280287  8.423994  1.052291
  N     6.508227  5.593621  0.979847
  N     6.463767  9.188175  0.991583
  N     4.276025  4.811351  0.082701
  N     4.494487  8.150276 -0.222384
  N     4.039227  5.116875  4.008258
  N     3.467557  8.887755  3.494626
  S     3.131792  4.721558  2.626409
  S     2.944492  8.096600  2.090234
  S     5.744558  5.300729 -0.500261
  S     6.091551  8.726101 -0.556149
  S     5.693671  5.506044  3.691407
  S     5.133593  9.121663  3.472795
