16  
    
  C     3.625596  4.407647  1.564891
  C     3.575868  8.430131  1.225336
  C     2.579182  3.645902  0.948449
  C     2.308242  8.058298  0.699661
  N     4.554353  4.761998  0.682912
  N     4.496316  8.808551  0.331790
  N     2.588961  3.660415 -0.374387
  N     2.363683  7.781855 -0.597383
  N     1.905805  3.940171  3.403705
  N     1.930340  8.138100  3.196326
  S     1.196970  3.497985  1.996699
  S     1.016676  7.803696  1.823372
  S     4.013667  4.275125 -0.844709
  S     3.804763  8.358071 -1.138186
  S     3.430010  4.665847  3.305008
  S     3.543080  8.553710  2.977202
