16  
    
  C    12.249017  9.154560  3.443466
  C    12.096250 12.414166  3.495222
  C    11.050983  8.639275  2.733680
  C    10.852800 12.139267  2.766183
  N    13.337926  9.246793  2.704989
  N    13.167111 12.685079  2.770861
  N    11.244132  8.351555  1.423041
  N    11.110869 12.088047  1.453718
  N    10.485469  8.895118  5.262433
  N    10.310842 12.365577  5.234188
  S     9.721401  8.317092  3.891429
  S     9.491260 11.930167  3.858622
  S    12.884751  8.812005  1.112228
  S    12.699594 12.369264  1.185345
  S    12.065942  9.319335  5.159119
  S    11.850572 12.854931  5.126220
