16  
    
  C     8.279939  6.697453  2.241617
  C     8.144441 10.118627  2.583136
  C     7.121068  6.080252  1.696287
  C     7.075196  9.419774  1.924349
  N     9.384849  6.661235  1.478634
  N     9.192031 10.400651  1.817401
  N     7.244052  5.773562  0.396048
  N     7.257678  9.147923  0.643000
  N     6.601695  6.452498  4.195409
  N     6.245474  9.842457  4.308153
  S     5.730812  6.044506  2.805678
  S     5.622018  9.198194  2.912673
  S     8.831533  6.086711 -0.021091
  S     8.724080  9.874434  0.248437
  S     8.143938  7.077151  3.967098
  S     7.790627 10.413626  4.295610
