16  
    
  C    10.292435  7.123308  2.732198
  C    10.280744 10.973095  2.784675
  C     9.028883  7.056732  2.070783
  C     9.044184 10.821242  2.132480
  N    11.348263  7.250825  1.946722
  N    11.352632 11.129975  2.003491
  N     9.128365  7.096289  0.734105
  N     9.099448 10.691234  0.793408
  N     8.563192  7.411727  4.554504
  N     8.524156 10.767269  4.633173
  S     7.713613  7.088859  3.220870
  S     7.705179 10.894183  3.221168
  S    10.790178  7.198372  0.401992
  S    10.716200 10.965743  0.438839
  S    10.216201  7.387496  4.415198
  S    10.186322 11.000216  4.514008
