16  
    
  C    12.699759  8.870026  3.885763
  C    12.621254 12.760633  3.917815
  C    11.566330  8.348275  3.239770
  C    11.494401 12.355206  3.160708
  N    13.646781  9.239401  3.046889
  N    13.705193 12.977480  3.143119
  N    11.572417  8.298749  1.923262
  N    11.715473 11.986234  1.880450
  N    11.010396  8.604709  5.775521
  N    10.739792 12.371548  5.665274
  S    10.311527  8.100365  4.366079
  S    10.151951 11.848802  4.190957
  S    13.096149  8.888165  1.486988
  S    13.296770 12.521305  1.626356
  S    12.610862  9.083458  5.583476
  S    12.313819 12.687465  5.629537
