16  
    
  C    11.839863  8.685000  3.452514
  C    11.524312 12.244204  3.230111
  C    10.569185  8.278466  2.866976
  C    10.425353 11.593504  2.566549
  N    12.776194  8.841640  2.539710
  N    12.648259 12.436693  2.555032
  N    10.623344  8.049965  1.548725
  N    10.703502 11.438727  1.269172
  N    10.170740  8.711812  5.417600
  N     9.570890 11.960190  5.003721
  S     9.290054  8.323588  4.033466
  S     9.038218 11.203972  3.614949
  S    12.188963  8.417731  1.083514
  S    12.206081 12.083453  0.984230
  S    11.762773  9.052288  5.147093
  S    11.177721 12.578845  4.850823
