16  
    
  C     8.671740  7.145143  2.603273
  C     9.050806 10.839005  2.140715
  C     7.489906  6.592556  1.913947
  C     7.803881 10.570048  1.407604
  N     9.571493  7.684246  1.806476
  N    10.082576 11.077528  1.392529
  N     7.594395  6.563019  0.595448
  N     7.968105 10.501302  0.080011
  N     7.081885  6.625624  4.459697
  N     7.314343 10.460843  3.945704
  S     6.245663  6.309173  3.056476
  S     6.482660 10.356471  2.542648
  S     9.054678  7.387971  0.269185
  S     9.539137 10.908319 -0.222247
  S     8.597933  7.335774  4.278588
  S     8.899106 10.908690  3.833041
