16  
    
  C    12.188255  8.942598  3.541730
  C    12.027857 12.397471  3.428193
  C    11.018094  8.453156  2.808360
  C    10.691863 12.239866  2.811151
  N    13.281245  9.091825  2.730998
  N    12.955632 12.563094  2.503239
  N    11.228958  8.340075  1.497370
  N    10.627583 12.128715  1.501376
  N    10.225838  8.588048  5.145701
  N    10.265598 12.053877  5.306068
  S     9.553537  8.355128  3.716448
  S     9.417499 11.860471  3.904330
  S    12.765714  8.840879  1.187782
  S    12.209909 12.225660  1.029697
  S    11.798319  9.071841  5.268251
  S    11.867162 12.467317  5.158100
