16  
    
  C    11.790351  8.653097  3.496255
  C    11.681543 11.863101  3.360639
  C    10.597050  8.232609  2.849096
  C    10.448511 11.679982  2.601944
  N    12.886436  8.862996  2.733780
  N    12.755973 12.038086  2.621430
  N    10.753262  8.133948  1.507138
  N    10.673481 11.597385  1.299263
  N     9.957533  8.594032  5.273401
  N     9.693068 11.881190  5.043670
  S     9.165223  8.246808  3.839453
  S     8.998316 11.528223  3.600048
  S    12.328580  8.442427  1.228421
  S    12.224819 11.916179  1.002532
  S    11.547446  8.875908  5.195481
  S    11.345395 12.033566  5.029659
