16  
    
  C     5.348927  5.585262  1.665958
  C     5.269217  8.951877  1.764537
  C     4.206099  5.091507  0.931330
  C     4.092749  8.664559  1.019269
  N     6.442824  5.733358  0.920024
  N     6.361666  9.215093  1.036769
  N     4.430067  5.110297 -0.409352
  N     4.274406  8.460780 -0.291829
  N     3.530567  5.204725  3.468039
  N     3.311864  8.748530  3.449888
  S     2.761328  5.080257  1.949781
  S     2.744853  8.215088  2.005668
  S     6.057961  5.395791 -0.622167
  S     5.863983  8.853565 -0.517017
  S     5.132308  5.706273  3.392697
  S     4.976257  8.896936  3.486878
