16  
    
  C     7.959424  6.311530  2.353381
  C     8.065710 10.500109  2.110532
  C     6.713044  5.951413  1.601011
  C     6.819235  9.899992  1.585090
  N     8.950402  6.653022  1.528349
  N     8.972510 10.751046  1.173845
  N     6.885778  5.860326  0.303101
  N     6.839284  9.655197  0.285794
  N     5.925598  6.336986  3.962403
  N     6.476094 10.237176  4.147376
  S     5.282205  5.699451  2.549873
  S     5.579290  9.766092  2.820589
  S     8.393150  6.340048 -0.014259
  S     8.269835 10.088524 -0.272837
  S     7.607172  6.540032  4.054969
  S     8.001639 10.880635  3.815307
