16  
    
  C    11.365528  8.789435  3.214697
  C    11.374540 12.359370  3.257827
  C    10.272126  8.019748  2.682634
  C    10.233435 11.804247  2.556993
  N    12.352720  9.089806  2.349153
  N    12.501970 12.439089  2.583894
  N    10.442142  7.643921  1.384421
  N    10.504763 11.740117  1.255756
  N     9.821210  8.390292  5.221929
  N     9.619981 11.768465  4.997653
  S     9.029661  7.760964  3.888117
  S     8.880860 11.358623  3.591472
  S    11.933109  8.253316  0.961927
  S    12.069299 12.217030  0.981880
  S    11.261077  9.096522  4.973775
  S    11.088446 12.500975  4.941547
