16  
    
  C     4.015723  4.692545  1.644906
  C     3.952386  8.473242  1.524360
  C     2.754254  4.499937  0.995567
  C     2.830708  7.938353  0.874793
  N     5.106332  4.749546  0.866759
  N     5.068855  8.488734  0.761608
  N     2.894460  4.265294 -0.313647
  N     3.006584  7.709426 -0.436833
  N     2.318535  4.821051  3.585202
  N     2.096033  8.365818  3.355257
  S     1.465850  4.331076  2.223259
  S     1.421232  7.911441  1.887273
  S     4.599525  4.350180 -0.652845
  S     4.598325  8.058702 -0.743842
  S     4.004842  4.989680  3.366639
  S     3.714086  8.661617  3.272774
