16  
    
  C     7.859008  6.371818  2.341009
  C     7.983234 10.499437  2.075649
  C     6.739855  5.887848  1.655552
  C     6.791882  9.897058  1.616218
  N     8.937231  6.633273  1.598060
  N     8.899003 10.750548  1.158813
  N     6.844842  5.853005  0.326631
  N     6.781722  9.599450  0.308065
  N     5.884168  6.354645  4.000015
  N     6.493374 10.247881  4.140143
  S     5.298096  5.760491  2.563331
  S     5.538862  9.796947  2.840121
  S     8.459625  6.352270  0.039005
  S     8.293661 10.073873 -0.269284
  S     7.584528  6.567005  4.021646
  S     8.022708 10.810818  3.754306
