16  
    
  C     9.451411  7.024837  2.992870
  C     9.595989 10.840199  2.636423
  C     8.323633  6.497946  2.254501
  C     8.366508 10.381168  1.996453
  N    10.435633  7.546964  2.254172
  N    10.551815 11.112589  1.769399
  N     8.500252  6.504127  0.926944
  N     8.397088 10.335709  0.654900
  N     7.695626  6.408799  4.790894
  N     7.954155 10.378190  4.532391
  S     6.995849  6.010898  3.321071
  S     7.096876 10.047056  3.113453
  S     9.985789  7.210413  0.699694
  S     9.941763 10.811629  0.261080
  S     9.296610  6.991862  4.645235
  S     9.520784 10.901831  4.337948
