16  
    
  C     4.647871  5.036078  2.071620
  C     4.726883  8.780276  1.525087
  C     3.485709  4.810121  1.262790
  C     3.560531  8.165302  0.850136
  N     5.793212  5.156168  1.405713
  N     5.767710  9.046829  0.730973
  N     3.785707  4.544461 -0.029175
  N     3.667876  8.182347 -0.476940
  N     2.655509  4.913830  3.781848
  N     2.962855  8.351088  3.370611
  S     2.027839  4.533384  2.295312
  S     2.238074  7.835505  1.955854
  S     5.387325  4.880100 -0.197517
  S     5.216252  8.784886 -0.876992
  S     4.316712  5.136903  3.744456
  S     4.544029  8.785221  3.262013
