16  
    
  C     6.594970  5.821435  1.914068
  C     6.574186  9.585373  1.834454
  C     5.284033  5.574541  1.381154
  C     5.384182  9.056728  1.272337
  N     7.586031  5.883784  1.019911
  N     7.590404  9.697609  0.977343
  N     5.313156  5.223732  0.088070
  N     5.465187  8.850627 -0.055448
  N     5.017089  5.742708  3.961143
  N     4.953508  9.096071  3.892918
  S     3.991656  5.414989  2.617664
  S     4.059517  8.882141  2.464553
  S     6.858576  5.458724 -0.426707
  S     7.027373  9.268298 -0.488133
  S     6.599185  6.021248  3.626715
  S     6.572165  9.697157  3.603479
