16  
    
  C    10.835260  8.190437  2.900707
  C    10.823702 11.918520  3.060924
  C     9.608561  7.782152  2.252017
  C     9.626537 11.505703  2.307044
  N    11.859587  8.414803  2.084880
  N    11.905622 11.999575  2.294085
  N     9.769124  7.671678  0.957027
  N     9.886932 11.227326  1.031927
  N     9.077491  8.068415  4.734586
  N     8.890861 11.781259  4.801962
  S     8.257798  7.650055  3.404610
  S     8.288097 11.150907  3.385995
  S    11.372597  8.007321  0.598299
  S    11.429934 11.566995  0.735276
  S    10.683969  8.366348  4.638019
  S    10.523768 12.210580  4.767724
