16  
    
  C     6.756745  5.809284  2.110347
  C     6.748321  9.693210  2.199748
  C     5.454554  5.599071  1.528293
  C     5.458384  9.238304  1.697221
  N     7.734764  5.888138  1.194729
  N     7.652114  9.833541  1.237567
  N     5.426525  5.385126  0.212066
  N     5.418532  9.029906  0.388626
  N     5.017680  5.604467  4.047746
  N     5.188837  9.282614  4.181594
  S     4.171004  5.318108  2.656075
  S     4.178716  9.096606  2.833273
  S     6.972506  5.604900 -0.269224
  S     6.926366  9.394684 -0.159355
  S     6.657358  5.968183  3.810798
  S     6.713752  9.851021  3.994141
