16  
    
  C     8.696114  7.112817  2.621381
  C     9.017337 10.910815  2.133387
  C     7.514162  6.619687  1.998325
  C     7.794062 10.577075  1.448521
  N     9.531667  7.669552  1.761920
  N    10.054280 11.192047  1.328053
  N     7.597571  6.533626  0.674512
  N     7.924240 10.517105  0.138005
  N     7.108022  6.648511  4.506252
  N     7.280493 10.429711  3.959773
  S     6.256448  6.313184  3.088534
  S     6.494523 10.333456  2.522565
  S     9.016992  7.312653  0.270351
  S     9.557338 10.931935 -0.216118
  S     8.568275  7.358269  4.329588
  S     8.867826 10.899772  3.869050
