16  
    
  C    11.342107  8.063721  3.346939
  C    11.364384 11.916662  3.266939
  C    10.083914  7.753802  2.634285
  C    10.048559 11.689405  2.752388
  N    12.388459  8.121478  2.558091
  N    12.295318 11.785633  2.339296
  N    10.231648  7.657356  1.319577
  N     9.992619 11.270760  1.473889
  N     9.428142  8.398707  5.108830
  N     9.841905 12.224065  5.268383
  S     8.758969  7.708972  3.747058
  S     8.848954 11.763152  4.045024
  S    11.842123  7.810553  1.026058
  S    11.580537 11.450083  0.948111
  S    11.106883  8.518098  5.005823
  S    11.438274 12.204961  5.027696
