16  
    
  C     5.745900  5.099521  1.956998
  C     5.662649  9.159950  1.976929
  C     4.586432  4.553600  1.343801
  C     4.543648  8.442313  1.460438
  N     6.718712  5.479742  1.123353
  N     6.625212  9.496504  1.130292
  N     4.695947  4.259668  0.049242
  N     4.598941  8.324184  0.137058
  N     3.946847  4.838068  3.840517
  N     4.037488  8.747614  3.965889
  S     3.259021  4.238575  2.372809
  S     3.265153  8.130915  2.650771
  S     6.206700  4.845505 -0.368982
  S     6.027983  9.027854 -0.377692
  S     5.482816  5.520823  3.610857
  S     5.618116  9.305992  3.711718
