16  
    
  C     5.754579  5.154708  1.922205
  C     5.668010  9.202856  2.023650
  C     4.623085  4.504508  1.298758
  C     4.521449  8.474868  1.445680
  N     6.761190  5.401587  1.091861
  N     6.545911  9.575693  1.124451
  N     4.786768  4.288622 -0.000479
  N     4.614229  8.279948  0.133813
  N     3.977865  4.714194  3.705775
  N     4.157890  8.734723  3.973377
  S     3.258733  4.312790  2.327391
  S     3.272031  8.198369  2.630100
  S     6.296147  4.773082 -0.361204
  S     6.079336  9.021619 -0.340638
  S     5.451893  5.423752  3.613448
  S     5.629139  9.410955  3.739359
