16  
    
  C     5.302537  5.634410  1.616541
  C     5.235502  8.959211  1.420561
  C     4.004308  5.173935  1.144622
  C     3.957566  8.545994  0.802034
  N     6.298660  5.489248  0.754026
  N     6.264687  8.979603  0.576372
  N     3.997708  4.958049 -0.192892
  N     4.085794  8.193724 -0.464306
  N     3.770541  5.548541  3.717373
  N     3.453888  8.916735  3.262570
  S     2.858086  5.001204  2.449300
  S     2.700492  8.200040  1.911889
  S     5.594179  5.208677 -0.712880
  S     5.705778  8.442257 -0.892125
  S     5.410781  5.766136  3.302839
  S     5.023917  9.428750  3.077400
