16  
    
  C     6.716795  5.822965  2.015664
  C     6.701568  9.528194  2.136161
  C     5.443699  5.442482  1.485864
  C     5.430097  9.149480  1.624452
  N     7.710556  5.844595  1.128954
  N     7.647393  9.783431  1.258210
  N     5.460013  5.449884  0.160594
  N     5.392179  9.003677  0.302248
  N     5.029716  5.715843  3.949149
  N     5.097398  9.291469  4.148761
  S     4.075159  5.358499  2.577138
  S     4.177494  9.084509  2.827742
  S     7.035392  5.582858 -0.380651
  S     6.918115  9.365086 -0.235221
  S     6.661135  5.958010  3.789565
  S     6.686576  9.835806  3.845003
