16  
    
  C    12.070841  8.605029  3.352307
  C    12.154960 12.141455  3.277176
  C    10.807093  8.239120  2.761504
  C    10.995251 11.503845  2.641754
  N    13.085978  8.662777  2.475053
  N    13.115105 12.436776  2.429104
  N    10.766320  8.120957  1.428165
  N    11.190169 11.307612  1.345787
  N    10.368820  8.433198  5.227641
  N    10.253399 12.009143  5.051163
  S     9.505353  8.066848  3.877090
  S     9.531981 11.541371  3.646408
  S    12.349195  8.365563  0.970946
  S    12.605802 11.925157  0.862186
  S    11.963696  8.732841  5.093261
  S    11.883202 12.371975  5.006090
