16  
    
  C    12.739532  8.987965  3.795503
  C    12.799677 12.417523  3.697369
  C    11.496850  8.565496  3.217550
  C    11.580907 12.084854  3.059355
  N    13.669957  9.218630  2.905431
  N    13.819983 12.764855  2.914582
  N    11.459970  8.430250  1.899257
  N    11.680355 12.104641  1.727155
  N    11.240297  8.437756  5.813660
  N    10.952995 12.284435  5.503262
  S    10.337035  8.145106  4.412910
  S    10.226340 11.869946  4.111754
  S    13.015946  8.948465  1.371175
  S    13.221630 12.580617  1.377792
  S    12.634978  9.247795  5.574531
  S    12.570490 12.707095  5.421390
