16  
    
  C     9.004058  7.154985  2.625548
  C     8.832828 11.128528  2.349011
  C     7.764101  6.465407  2.155938
  C     7.699914 10.433566  1.711937
  N     9.961943  7.394259  1.732377
  N     9.788087 11.543970  1.530460
  N     7.837294  6.141619  0.876607
  N     7.850283 10.366954  0.356670
  N     7.482050  6.916001  4.669578
  N     7.111212 10.764456  4.227316
  S     6.571756  6.309290  3.410780
  S     6.419709 10.045895  2.880316
  S     9.347842  6.671046  0.327834
  S     9.306246 10.982206 -0.006768
  S     8.988596  7.555225  4.284374
  S     8.739217 11.190700  4.071412
