16  
    
  C    10.529027  7.343352  2.738329
  C    10.367492 11.319187  2.688178
  C     9.188595  7.348647  2.119921
  C     9.115376 11.025340  2.020917
  N    11.492772  7.322871  1.816265
  N    11.388391 11.313427  1.866956
  N     9.117623  7.303304  0.770408
  N     9.241388 10.718186  0.739491
  N     8.857889  7.671005  4.598173
  N     8.606158 11.263303  4.514577
  S     7.908991  7.545513  3.243605
  S     7.741617 11.147226  3.094086
  S    10.714461  7.194677  0.304462
  S    10.809464 10.920312  0.312453
  S    10.475952  7.540667  4.488636
  S    10.228694 11.470260  4.399428
