16  
    
  C     5.044260  5.006284  1.785718
  C     5.108650  8.676533  1.878399
  C     3.736802  4.831158  1.265626
  C     3.806026  8.331999  1.257816
  N     6.021547  5.102459  0.872210
  N     6.136054  8.654251  1.036088
  N     3.676444  4.868744 -0.061912
  N     3.873906  8.024177 -0.030818
  N     3.574166  4.650713  3.893168
  N     3.314166  8.692883  3.728771
  S     2.537026  4.805329  2.540384
  S     2.452977  8.403065  2.321705
  S     5.262420  5.036598 -0.566059
  S     5.516754  8.173502 -0.436341
  S     5.168464  4.987722  3.510980
  S     4.944133  9.079460  3.582014
