16  
    
  C     9.986554  7.520392  2.494282
  C    10.355234 11.041604  2.653514
  C     8.766084  6.984530  1.959859
  C     9.114214 11.066504  1.981810
  N    11.021378  7.629881  1.633638
  N    11.434401 11.042121  1.885847
  N     8.823830  6.711686  0.659619
  N     9.183723 11.023551  0.668210
  N     8.305542  7.229073  4.490793
  N     8.607156 11.138289  4.538036
  S     7.538482  6.596706  3.155915
  S     7.792252 10.865468  3.104433
  S    10.405530  7.009520  0.202530
  S    10.812790 11.014800  0.286432
  S     9.922656  7.684843  4.204734
  S    10.295259 11.192850  4.360978
