16  
    
  C     8.253623  6.701702  2.495672
  C     8.532620 10.084369  2.358311
  C     7.041126  6.207742  1.816452
  C     7.233171  9.674914  1.841758
  N     9.257556  6.788751  1.613007
  N     9.403996 10.251894  1.359927
  N     7.100842  6.140655  0.495919
  N     7.183092  9.580140  0.514413
  N     6.431849  6.293083  4.295103
  N     6.894024 10.232419  4.331670
  S     5.735457  5.932940  2.863281
  S     5.955655  9.777613  3.017652
  S     8.727410  6.426088  0.127920
  S     8.716405  9.913155 -0.047995
  S     8.014650  6.728419  4.226614
  S     8.489373 10.521466  4.021508
