16  
    
  C     8.372348  6.690940  2.385542
  C     8.384554 10.322621  2.315953
  C     7.187402  6.156817  1.780379
  C     7.139999  9.929879  1.766060
  N     9.403718  6.794900  1.558073
  N     9.398838 10.230692  1.442012
  N     7.240238  6.110635  0.456242
  N     7.198097  9.674969  0.452647
  N     6.754786  6.199482  4.287106
  N     6.751608 10.149088  4.315943
  S     5.852543  5.905461  2.936885
  S     5.920213  9.616869  2.971837
  S     8.859430  6.552095  0.029798
  S     8.815725  9.842861 -0.002094
  S     8.332691  6.778935  4.139551
  S     8.328780 10.536071  4.080927
