16  
    
  C     8.346438  6.639738  2.597333
  C     8.779697 10.484590  2.806818
  C     7.251448  6.052759  1.903282
  C     7.594334 10.048059  2.172294
  N     9.413042  6.887013  1.847762
  N     9.829155 10.666578  1.960735
  N     7.351063  5.984696  0.586420
  N     7.664590  9.880831  0.863562
  N     6.344804  6.272991  4.267866
  N     6.936482 10.347656  4.621394
  S     5.739595  5.872131  2.746313
  S     6.201346  9.955532  3.195357
  S     8.916227  6.512759  0.248519
  S     9.233342 10.134009  0.515115
  S     7.928136  6.866607  4.347251
  S     8.591415 10.496265  4.562304
