16  
    
  C     5.058294  5.425466  1.855923
  C     5.111645  8.668708  1.396810
  C     3.807516  4.903926  1.336501
  C     3.849033  8.354670  0.868742
  N     6.101757  5.359924  1.040360
  N     6.055021  8.864124  0.469177
  N     3.894882  4.599881  0.017694
  N     3.889282  8.061787 -0.426864
  N     3.437537  5.776249  3.833886
  N     3.400750  8.875221  3.362218
  S     2.501235  5.247195  2.451281
  S     2.573605  8.336005  2.042627
  S     5.531671  4.703936 -0.379171
  S     5.390614  8.414570 -0.962584
  S     5.090146  5.796084  3.518784
  S     5.045735  9.020500  3.113871
