16  
    
  C     3.773787  4.747855  1.596512
  C     3.792741  8.368649  1.731302
  C     2.474930  4.470125  0.965176
  C     2.557461  7.921052  1.060949
  N     4.821156  4.639227  0.754921
  N     4.813119  8.517738  0.876158
  N     2.490195  4.493420 -0.364521
  N     2.807033  7.430915 -0.175879
  N     2.006213  4.780543  3.397780
  N     1.958445  8.397390  3.471084
  S     1.145525  4.463261  2.057467
  S     1.229753  7.919514  2.077133
  S     4.141714  4.396925 -0.731993
  S     4.367373  7.850965 -0.524987
  S     3.670204  4.903130  3.322332
  S     3.563570  8.812548  3.380304
