16  
    
  C     4.474889  5.048972  1.756697
  C     4.166147  8.656898  1.624964
  C     3.247724  4.634359  1.108036
  C     3.042407  8.259804  0.825004
  N     5.510278  5.141612  0.920438
  N     5.185953  9.144761  0.914124
  N     3.299732  4.606565 -0.229847
  N     3.311287  8.257349 -0.485421
  N     2.758163  4.864619  3.592856
  N     2.215407  8.121642  3.226450
  S     1.882064  4.772378  2.200077
  S     1.644086  7.710773  1.705966
  S     4.945633  4.788845 -0.591027
  S     4.805276  8.901177 -0.643891
  S     4.335080  5.318029  3.404315
  S     3.879283  8.515222  3.328744
