16  
    
  C     3.723786  4.393413  1.560724
  C     3.565869  8.488015  1.218612
  C     2.552592  3.717182  0.975140
  C     2.287318  7.984888  0.700557
  N     4.655127  4.736054  0.674668
  N     4.457191  8.795782  0.279747
  N     2.570586  3.614986 -0.348873
  N     2.341786  7.775304 -0.595380
  N     1.879077  4.028144  3.401480
  N     1.970704  8.118871  3.167869
  S     1.201401  3.492004  1.941588
  S     1.003464  7.835327  1.831250
  S     3.981451  4.291816 -0.847238
  S     3.787253  8.343242 -1.166538
  S     3.398934  4.673478  3.313207
  S     3.534952  8.519234  2.941234
