16  
    
  C     8.044648  6.350690  2.265739
  C     8.063244 10.117684  2.248963
  C     6.868477  5.884711  1.651106
  C     6.838055  9.771934  1.628791
  N     9.069700  6.540649  1.427527
  N     9.103120 10.185849  1.404029
  N     6.907972  5.837191  0.321355
  N     6.866072  9.697456  0.300443
  N     6.329764  6.092672  4.118118
  N     6.316263  9.866147  4.136501
  S     5.530331  5.673110  2.711522
  S     5.537472  9.522792  2.733784
  S     8.431721  6.235414 -0.067995
  S     8.414165  9.889158 -0.121452
  S     7.911521  6.409202  3.997694
  S     7.867670 10.469721  3.990773
