16  
    
  C     8.912212  7.152625  2.701074
  C     8.955411 11.059457  2.324596
  C     7.726359  6.446018  2.232133
  C     7.758452 10.515325  1.685156
  N     9.839728  7.357313  1.756337
  N     9.947357 11.384697  1.502355
  N     7.713598  6.128348  0.939513
  N     7.830794 10.575277  0.336348
  N     7.267716  6.862227  4.752178
  N     7.127301 10.622377  4.175239
  S     6.456091  6.287299  3.465651
  S     6.501746 10.025762  2.747889
  S     9.125252  6.771843  0.297624
  S     9.277214 11.177201 -0.036039
  S     8.718124  7.654582  4.394274
  S     8.711376 11.157480  4.067116
