16  
    
  C    12.802109  9.058125  3.434237
  C    12.800870 12.770349  3.458881
  C    11.531839  8.604432  2.972492
  C    11.672665 12.139109  2.793801
  N    13.756105  9.189166  2.505092
  N    13.802903 13.021956  2.616953
  N    11.506793  8.384815  1.662620
  N    11.744011 12.104013  1.450438
  N    11.135053  9.014268  5.339869
  N    10.916870 12.383474  5.243983
  S    10.248752  8.397685  4.067083
  S    10.200464 11.986873  3.779853
  S    12.950014  8.843146  1.024118
  S    13.318314 12.612332  1.100310
  S    12.719205  9.403144  5.172288
  S    12.492915 13.038885  5.200119
