16  
    
  C     3.501197  4.474819  1.490503
  C     3.500949  8.344228  1.189419
  C     2.415629  3.816110  0.835940
  C     2.233952  8.058520  0.611014
  N     4.573708  4.721006  0.759907
  N     4.424676  8.656543  0.283218
  N     2.528087  3.803802 -0.496441
  N     2.249190  7.856471 -0.708604
  N     1.791713  4.332576  3.317670
  N     1.970051  8.130117  3.223888
  S     1.123528  3.479688  2.028605
  S     1.015211  7.841129  1.875924
  S     4.129323  4.294923 -0.814666
  S     3.789343  8.319412 -1.218500
  S     3.380714  4.703306  3.205678
  S     3.547972  8.509620  2.923303
