16  
    
  C     8.811593  6.894412  2.239309
  C     9.021295 10.476081  2.462006
  C     7.624248  6.377202  1.549632
  C     7.771983 10.091623  1.862032
  N     9.878647  7.134931  1.509817
  N    10.054604 10.604738  1.633469
  N     7.780536  6.335594  0.228326
  N     7.875515  9.861983  0.535953
  N     7.083845  6.740083  4.073421
  N     7.281124 10.264253  4.412060
  S     6.246662  6.217949  2.677191
  S     6.445276 10.030972  2.999272
  S     9.387248  6.852724 -0.078776
  S     9.436778 10.135736  0.145495
  S     8.651492  7.225230  3.896588
  S     8.884062 10.671817  4.186383
