16  
    
  C     5.919249  5.037602  1.678118
  C     6.013979  8.910514  2.089869
  C     4.650639  4.735573  1.048736
  C     4.777800  8.603128  1.415426
  N     6.876827  5.219358  0.794375
  N     7.013571  9.035017  1.234835
  N     4.751528  4.613644 -0.283284
  N     4.850028  8.496828  0.086016
  N     4.227063  5.087299  3.564032
  N     4.171224  8.818120  3.933681
  S     3.332734  4.647095  2.154347
  S     3.462012  8.608687  2.470733
  S     6.274482  5.001144 -0.715926
  S     6.470765  8.791845 -0.267914
  S     5.869820  5.394222  3.366775
  S     5.859151  9.116933  3.793756
