16  
    
  C     7.822327  6.661053  2.443972
  C     8.014621 10.281911  2.047588
  C     6.653081  6.189096  1.699924
  C     6.686424  9.861500  1.527545
  N     8.928009  6.721728  1.685779
  N     8.930131 10.369410  1.100523
  N     6.884879  5.901475  0.428099
  N     6.634136  9.654498  0.212511
  N     5.870699  6.330710  4.111180
  N     6.257920 10.380837  3.990387
  S     5.236437  6.014672  2.618022
  S     5.405660  9.880556  2.659510
  S     8.426564  6.147493  0.209730
  S     8.152733  9.890605 -0.334732
  S     7.447635  6.868440  4.122096
  S     7.867802 10.605411  3.780879
