16  
    
  C    12.028321  8.541968  3.614182
  C    12.066704 11.968094  3.328954
  C    10.896902  8.116232  2.831756
  C    10.834860 11.521772  2.702661
  N    13.151425  8.688691  2.924669
  N    13.072488 12.297540  2.522355
  N    11.105786  8.041053  1.523562
  N    11.034448 11.355220  1.390716
  N    10.166784  8.352814  5.344889
  N    10.348004 11.986690  5.131585
  S     9.457982  7.972525  3.893085
  S     9.477094 11.473882  3.873736
  S    12.733614  8.460647  1.360794
  S    12.510629 11.933342  0.967519
  S    11.758174  8.744427  5.302705
  S    11.920573 12.367344  5.010816
