16  
    
  C    12.360754  9.257431  3.496980
  C    12.510013 12.650228  3.446357
  C    11.333583  8.584040  2.781041
  C    11.233265 12.202358  2.990034
  N    13.395532  9.584072  2.723107
  N    13.397419 12.904797  2.472366
  N    11.442413  8.529067  1.457066
  N    11.126337 12.069606  1.666011
  N    10.570801  8.361190  5.208369
  N    10.839899 12.556258  5.537256
  S     9.986709  7.955549  3.664202
  S     9.974035 12.029361  4.176905
  S    12.930890  9.238738  1.134962
  S    12.647984 12.448516  1.064767
  S    12.024702  9.211757  5.180873
  S    12.402065 13.110389  5.217681
