16  
    
  C    12.233182  9.062620  3.758922
  C    12.594585 12.719144  3.587509
  C    11.082667  8.423522  3.153961
  C    11.356986 12.399643  2.880555
  N    13.325405  9.219335  2.988625
  N    13.614776 12.868552  2.763991
  N    11.315599  8.203851  1.853681
  N    11.437805 12.462697  1.556930
  N    10.550472  8.779932  5.690079
  N    10.903198 12.291531  5.482461
  S     9.872707  8.075241  4.345584
  S    10.049554 12.293308  4.030110
  S    12.847042  8.713750  1.506494
  S    13.028949 12.700768  1.185715
  S    12.234182  9.233949  5.452434
  S    12.403055 12.947167  5.235791
