16  
    
  C     9.192529  6.814153  2.358771
  C     9.172125 10.850650  3.024493
  C     7.982791  6.220278  1.802891
  C     7.901198 10.421421  2.399921
  N    10.264386  6.762331  1.608244
  N    10.168915 10.843864  2.143982
  N     8.194899  5.728265  0.589835
  N     7.983273  9.988586  1.172400
  N     7.432869  6.988501  4.172734
  N     7.395446 10.995122  4.807052
  S     6.597993  6.329900  2.871320
  S     6.564955 10.585700  3.445365
  S     9.813833  6.072153  0.204907
  S     9.602668 10.323283  0.704072
  S     9.089732  7.226120  3.974072
  S     9.027300 11.141549  4.687766
