16  
    
  C    12.713642  9.080429  3.351422
  C    12.727156 12.786897  3.527045
  C    11.454327  8.717097  2.785335
  C    11.620632 12.276087  2.788017
  N    13.729874  9.163375  2.490901
  N    13.794820 13.059896  2.798407
  N    11.516444  8.527285  1.445104
  N    11.833352 12.085407  1.488020
  N    11.092994  8.889925  5.409666
  N    10.871953 12.495722  5.227055
  S    10.259613  8.481380  4.047750
  S    10.226767 12.045050  3.796813
  S    13.101774  8.787171  1.035778
  S    13.330819 12.702134  1.177376
  S    12.652015  9.485508  5.054140
  S    12.339303 13.139536  5.106334
