16  
    
  C    10.971567  7.868479  3.139550
  C    11.517307 11.941993  3.028661
  C     9.749695  7.486641  2.431108
  C    10.393691 11.267451  2.424549
  N    12.073264  8.002474  2.364835
  N    12.565249 12.055762  2.199691
  N     9.970598  7.382388  1.103866
  N    10.588664 10.845342  1.163516
  N     9.025257  7.887068  4.845314
  N     9.736234 11.533697  4.965104
  S     8.342882  7.342010  3.427040
  S     9.133328 10.899998  3.515002
  S    11.582801  7.578744  0.816578
  S    12.100961 11.436306  0.769408
  S    10.718715  8.125655  4.821147
  S    11.305604 12.223970  4.802501
