16  
    
  C     7.721274  6.602231  2.425016
  C     7.835357 10.151050  2.168387
  C     6.495419  6.072185  1.850745
  C     6.605837  9.926181  1.461839
  N     8.736723  6.600590  1.570877
  N     8.888695 10.048498  1.395039
  N     6.532840  5.802768  0.560894
  N     6.665583  9.645768  0.164272
  N     5.849234  6.867190  4.210948
  N     5.920867  9.982678  3.914487
  S     5.126884  6.167976  2.926996
  S     5.172587  9.950702  2.460481
  S     8.056822  6.135028  0.109507
  S     8.233634  9.750369 -0.196044
  S     7.560301  7.095175  4.136347
  S     7.574286 10.305256  3.933598
