16  
    
  C     4.989067  4.756701  1.721990
  C     4.712771  8.904374  1.755832
  C     3.634729  4.639825  1.235728
  C     3.438411  8.386588  1.228497
  N     5.893054  4.905175  0.743829
  N     5.634558  9.145035  0.821790
  N     3.541535  4.433673 -0.066506
  N     3.398811  8.395671 -0.102065
  N     3.365268  4.446891  3.735424
  N     3.184896  8.571841  3.778859
  S     2.357920  4.441613  2.429557
  S     2.244866  8.242068  2.493060
  S     5.022512  4.761192 -0.725976
  S     4.869791  8.891316 -0.663533
  S     4.950445  4.880448  3.493589
  S     4.787287  8.854502  3.476775
