16  
    
  C    10.945226  8.098747  3.021183
  C    10.938372 11.604421  2.729861
  C     9.704409  7.453954  2.563369
  C     9.680267 11.228268  2.184559
  N    11.892305  8.280697  2.077452
  N    11.925333 11.921378  1.870899
  N     9.693377  7.130664  1.267736
  N     9.747187 11.041063  0.872516
  N     9.527843  7.569365  5.127484
  N     9.257766 11.360540  4.678215
  S     8.647797  7.060681  3.842767
  S     8.384459 10.954040  3.336669
  S    11.132179  7.708890  0.653928
  S    11.353553 11.440798  0.388428
  S    11.005924  8.279498  4.726159
  S    10.807960 11.768602  4.445538
