16  
    
  C    12.371152  8.999681  3.426267
  C    12.323465 12.854447  3.418387
  C    11.297058  8.530993  2.602522
  C    11.100350 12.230929  2.978602
  N    13.369452  9.462867  2.719599
  N    13.341262 12.865676  2.557607
  N    11.546634  8.614052  1.290186
  N    11.087341 12.022698  1.667126
  N    10.608451  8.449517  5.192984
  N    10.742948 12.681611  5.442050
  S     9.958689  8.009075  3.669809
  S    10.013094 11.862530  4.239936
  S    13.034142  9.233838  1.108141
  S    12.624802 12.474638  1.108022
  S    12.068338  9.224215  5.110651
  S    12.365534 13.051845  5.140388
