16  
    
  C     7.500448  6.195832  2.158525
  C     7.885534  9.893588  2.305419
  C     6.357233  5.541187  1.586614
  C     6.670448  9.326984  1.755087
  N     8.517220  6.431371  1.316900
  N     8.817307 10.231849  1.429636
  N     6.448019  5.462914  0.267757
  N     6.733789  9.286182  0.410609
  N     5.874123  5.709523  4.155307
  N     6.217979  9.709013  4.289727
  S     5.114929  5.314081  2.746839
  S     5.455363  9.044049  2.979970
  S     7.987503  6.045572 -0.166220
  S     8.265916  9.871441 -0.060363
  S     7.468805  6.243155  3.847981
  S     7.838273 10.155200  3.993331
