16  
    
  C     7.632097  6.246529  2.198842
  C     7.857825 10.087002  2.411933
  C     6.372633  5.848636  1.620798
  C     6.710406  9.407706  1.808207
  N     8.569191  6.463956  1.294035
  N     8.762883 10.399805  1.492820
  N     6.454393  5.656493  0.314718
  N     6.769220  9.211135  0.521238
  N     5.934213  5.833159  4.094248
  N     6.140746  9.644686  4.261757
  S     5.125052  5.426248  2.735927
  S     5.426404  9.112427  2.888722
  S     7.965703  6.024682 -0.182040
  S     8.239489  9.931276  0.033526
  S     7.540896  6.345897  3.987181
  S     7.721383 10.157985  4.172293
