16  
    
  C     9.174279  7.140005  2.553830
  C     8.837762 11.101389  2.323920
  C     7.943044  6.598811  2.031575
  C     7.727654 10.411189  1.755487
  N    10.126166  7.306673  1.653240
  N     9.848316 11.387034  1.512083
  N     7.920274  6.247239  0.758325
  N     7.862456 10.139686  0.438661
  N     7.538153  7.031003  4.528758
  N     7.213496 10.496222  4.231689
  S     6.747265  6.299178  3.229366
  S     6.412706 10.158708  2.817313
  S     9.451305  6.632252  0.206044
  S     9.302826 10.714754 -0.009165
  S     9.126789  7.379642  4.298250
  S     8.704457 11.311810  4.073268
