16  
    
  C    10.223817  7.699817  2.621115
  C    10.570992 11.367650  2.948200
  C     9.062970  7.134144  2.043228
  C     9.416476 11.272192  2.142509
  N    11.269034  7.852863  1.769037
  N    11.678014 11.413125  2.215301
  N     9.172985  6.794530  0.747293
  N     9.592693 11.095184  0.848842
  N     8.395898  7.709489  4.419057
  N     8.517240 11.456354  4.570381
  S     7.689405  7.009711  3.153137
  S     7.935878 11.387962  3.058489
  S    10.631705  7.348963  0.327347
  S    11.234474 11.231996  0.659957
  S     9.972479  8.082330  4.282825
  S    10.178346 11.592748  4.639921
