16  
    
  C     8.373147  6.555499  2.282168
  C     8.113531 10.155922  2.593738
  C     7.153245  6.147232  1.682063
  C     7.050536  9.529943  1.884330
  N     9.394326  6.751929  1.440313
  N     9.205200 10.447554  1.913550
  N     7.318396  5.792009  0.390426
  N     7.362475  9.334743  0.607242
  N     6.684994  6.454596  4.252020
  N     6.260769  9.758325  4.351362
  S     5.873826  6.064787  2.900467
  S     5.696574  9.141695  2.910154
  S     8.901146  6.192324 -0.005072
  S     8.912683  9.854623  0.400141
  S     8.207044  7.096036  3.916678
  S     7.772133 10.491294  4.260959
