16  
    
  C     5.997539  4.800207  1.719542
  C     5.943054  9.128525  1.963643
  C     4.825804  4.505378  0.988070
  C     4.737653  8.664428  1.380262
  N     7.076663  5.070409  1.014143
  N     6.962242  9.249550  1.129607
  N     4.988119  4.475270 -0.330386
  N     4.807789  8.457229  0.067773
  N     4.022671  4.784931  3.442514
  N     4.184516  8.881020  3.900429
  S     3.393178  4.342350  1.968261
  S     3.342861  8.474876  2.419175
  S     6.595797  4.818009 -0.563482
  S     6.392862  8.876025 -0.409553
  S     5.712812  5.006266  3.362884
  S     5.707285  9.529030  3.650707
