16  
    
  C     6.709764  5.920752  2.344021
  C     6.937004  9.711053  2.347524
  C     5.554663  5.273505  1.804852
  C     5.729227  9.321545  1.744812
  N     7.558653  6.296178  1.400532
  N     7.892126  9.927271  1.435011
  N     5.447517  5.168701  0.496096
  N     5.683115  9.189240  0.420182
  N     5.169544  5.508723  4.360053
  N     5.154883  9.742440  4.171636
  S     4.380620  4.945190  3.032631
  S     4.403849  9.154212  2.865508
  S     6.822370  5.911603 -0.045864
  S     7.215954  9.732116 -0.040069
  S     6.772663  6.041344  4.099639
  S     6.759677  9.920592  4.094509
