16  
    
  C     7.923552  6.288171  2.165989
  C     8.113777 10.614108  2.194605
  C     6.676131  5.832006  1.533081
  C     6.957801  9.939356  1.632476
  N     8.860604  6.607317  1.265365
  N     9.078626 10.822053  1.294473
  N     6.704926  5.728712  0.216604
  N     7.111729  9.566916  0.364010
  N     6.177626  5.671615  4.017238
  N     6.317822 10.116758  4.033605
  S     5.396583  5.545142  2.626213
  S     5.608929  9.706567  2.570767
  S     8.252970  6.308066 -0.258309
  S     8.606324 10.177039 -0.137418
  S     7.718453  6.323626  3.915367
  S     7.848701 10.707994  3.930168
