16  
    
  C    10.715069  8.461777  3.172307
  C    10.689334 11.905410  3.178212
  C     9.542754  7.825666  2.586903
  C     9.549394 11.396460  2.506310
  N    11.740164  8.588300  2.337655
  N    11.768392 11.990322  2.426121
  N     9.720566  7.510529  1.316190
  N     9.743639 11.298779  1.195243
  N     8.933140  8.198780  5.112045
  N     8.889384 11.758561  4.943522
  S     8.260263  7.520037  3.722788
  S     8.198753 11.127245  3.549999
  S    11.203154  8.003667  0.914215
  S    11.311796 11.551986  0.889639
  S    10.573436  8.778621  4.903335
  S    10.517999 12.043047  4.951919
