16  
    
  C    10.814938  8.411116  3.276373
  C    10.723136 11.880300  3.192478
  C     9.651033  7.751527  2.688973
  C     9.482734 11.522418  2.586598
  N    11.766919  8.670568  2.412297
  N    11.792700 12.034453  2.418250
  N     9.724415  7.497324  1.401800
  N     9.598121 11.241857  1.293579
  N     9.048836  8.162186  5.086524
  N     8.926634 11.612752  5.120214
  S     8.347754  7.496611  3.763998
  S     8.232697 11.047389  3.729030
  S    11.250370  7.949054  0.950712
  S    11.254924 11.635464  0.900727
  S    10.544082  8.715726  4.973476
  S    10.527506 12.072157  4.912835
