16  
    
  C     9.849143  7.610391  2.949766
  C    10.616276 11.456141  3.090040
  C     8.755128  7.098577  2.127870
  C     9.336536 11.050087  2.463567
  N    10.936954  7.904303  2.242572
  N    11.624265 11.655946  2.259764
  N     9.036974  7.008580  0.837339
  N     9.437535 10.828713  1.160870
  N     7.870140  7.300719  4.411084
  N     8.852440 11.443808  5.020712
  S     7.351672  6.658891  3.033590
  S     8.066490 10.850616  3.650894
  S    10.603867  7.667539  0.630252
  S    11.009734 11.250614  0.737827
  S     9.438641  7.710290  4.622713
  S    10.460767 11.953035  4.779283
