16  
    
  C     8.398710  6.618292  2.578628
  C     8.823296 10.431728  2.819562
  C     7.205031  6.170763  1.836120
  C     7.574776 10.050326  2.174420
  N     9.409199  6.944189  1.745985
  N     9.805768 10.580505  1.946876
  N     7.465666  6.000821  0.541709
  N     7.681293  9.882017  0.859681
  N     6.439112  6.283462  4.279443
  N     6.972213 10.324128  4.627148
  S     5.771062  5.883705  2.740752
  S     6.242196  9.952972  3.207033
  S     8.989239  6.532244  0.226968
  S     9.260129 10.173398  0.489334
  S     7.980966  6.879111  4.289034
  S     8.623602 10.500335  4.569904
