16  
    
  C     3.754916  4.747536  1.516851
  C     3.836370  8.342583  1.671326
  C     2.460385  4.430637  0.929082
  C     2.610964  7.972161  1.089464
  N     4.804002  4.736949  0.676122
  N     4.854304  8.423259  0.817795
  N     2.488931  4.329677 -0.390873
  N     2.712403  7.587732 -0.172189
  N     1.888221  4.502228  3.436840
  N     2.035748  8.376539  3.579977
  S     1.093308  4.340503  2.035014
  S     1.230193  7.898655  2.214131
  S     4.097555  4.671482 -0.854211
  S     4.301758  7.841583 -0.613776
  S     3.518556  4.901333  3.331056
  S     3.661802  8.742373  3.373567
