16  
    
  C     8.053893  6.366001  2.268403
  C     8.029402 10.171674  2.272965
  C     6.844801  5.886767  1.611556
  C     6.767657  9.766497  1.640457
  N     9.100939  6.529789  1.490809
  N     9.074705 10.199778  1.480932
  N     6.965643  5.768162  0.305458
  N     6.853331  9.543914  0.313105
  N     6.312865  6.156502  4.157124
  N     6.337568  9.865496  4.209788
  S     5.553949  5.766511  2.767341
  S     5.520510  9.490117  2.813584
  S     8.530635  6.228550 -0.032223
  S     8.467689  9.860594 -0.081086
  S     7.975964  6.514402  3.964563
  S     7.878867 10.390671  3.992669
