16  
    
  C    12.384048  8.870471  3.691472
  C    12.484429 12.763750  3.427832
  C    11.147166  8.431811  3.133109
  C    11.312790 12.254221  2.833332
  N    13.381485  8.995529  2.842660
  N    13.464445 13.057094  2.575996
  N    11.266456  8.025020  1.892266
  N    11.355677 12.051461  1.493783
  N    10.657815  8.949213  5.621556
  N    10.782048 12.698148  5.334875
  S     9.797565  8.519123  4.206971
  S     9.996510 12.138070  4.044845
  S    12.772339  8.518877  1.394743
  S    12.966848 12.516474  1.125202
  S    12.250861  9.371721  5.374817
  S    12.378796 12.810762  5.134501
