16  
    
  C     7.495024  6.056449  2.197142
  C     7.950293  9.906252  2.251197
  C     6.307901  5.518569  1.580938
  C     6.680625  9.477078  1.711360
  N     8.465145  6.313908  1.331811
  N     8.878803  9.949213  1.284122
  N     6.362778  5.428885  0.258730
  N     6.584502  9.285167  0.406199
  N     5.729344  5.763696  4.051943
  N     6.409670  9.361704  4.210308
  S     5.020205  5.152685  2.628957
  S     5.422904  9.206384  2.858694
  S     7.789467  5.993519 -0.144088
  S     8.154732  9.621501 -0.144713
  S     7.308937  6.133835  3.890962
  S     7.861844 10.054376  3.961720
