16  
    
  C    11.968815  8.641866  3.536098
  C    11.831557 12.241573  3.187766
  C    10.775778  8.136437  2.855188
  C    10.584530 11.789676  2.651728
  N    13.004820  8.820188  2.730906
  N    12.883392 12.222314  2.333901
  N    10.955934  7.845011  1.579360
  N    10.622458 11.634449  1.319557
  N    10.291689  8.353141  5.435465
  N    10.195193 11.871824  5.241620
  S     9.490709  7.883234  4.025810
  S     9.300411 11.552172  3.827360
  S    12.510835  8.311842  1.191901
  S    12.241309 11.874477  0.891415
  S    11.840262  8.850353  5.235451
  S    11.867577 12.238140  4.904284
