16  
    
  C    10.972789  7.926158  3.043378
  C    10.966340 11.750793  2.731383
  C     9.749247  7.381789  2.596142
  C     9.767411 11.170950  2.141820
  N    11.842713  8.216273  2.072548
  N    11.972229 11.830008  1.870171
  N     9.698341  7.236205  1.291168
  N     9.843769 10.960325  0.838231
  N     9.525406  7.531115  5.087456
  N     9.316158 11.218383  4.698136
  S     8.531522  7.077162  3.823284
  S     8.414889 11.010927  3.266441
  S    11.142668  7.702975  0.691622
  S    11.327997 11.429599  0.393476
  S    11.001115  8.138201  4.772543
  S    10.879326 11.892589  4.456254
