16  
    
  C    10.399004  7.648021  3.055939
  C    10.571492 11.710803  3.042018
  C     9.153510  7.314081  2.424381
  C     9.363688 11.135390  2.634311
  N    11.376043  7.945874  2.169681
  N    11.396368 11.982133  2.046636
  N     9.143844  7.333055  1.067453
  N     9.332143 10.825609  1.341127
  N     8.677446  7.247155  4.917226
  N     9.195011 11.494906  5.206866
  S     7.864419  6.930835  3.526587
  S     8.260065 10.849455  3.966705
  S    10.685637  7.685034  0.672019
  S    10.721152 11.387057  0.675493
  S    10.234759  7.591316  4.767671
  S    10.623158 12.138267  4.686976
