16  
    
  C     4.188497  4.869081  1.651376
  C     4.087040  8.305566  1.522286
  C     2.942328  4.491050  1.015659
  C     2.879868  7.962280  0.823365
  N     5.220480  4.801385  0.775350
  N     5.107081  8.596241  0.723044
  N     2.989402  4.389772 -0.297710
  N     3.045873  7.643064 -0.471922
  N     2.373429  4.711625  3.434417
  N     2.207907  8.355001  3.248470
  S     1.560408  4.368056  2.079910
  S     1.456309  7.948307  1.851936
  S     4.539885  4.414952 -0.708340
  S     4.618355  8.076765 -0.829766
  S     4.016052  5.004367  3.358173
  S     3.869381  8.648814  3.213800
