16  
    
  C     7.819448  6.423688  2.372951
  C     7.887034 10.483314  2.038290
  C     6.657402  6.091115  1.578026
  C     6.676136  9.904005  1.495950
  N     8.922360  6.670256  1.679683
  N     8.875315 10.642380  1.156225
  N     6.967475  5.812859  0.298371
  N     6.776113  9.488135  0.228925
  N     5.852112  6.313937  4.087073
  N     6.423362 10.329817  4.104840
  S     5.214125  5.884191  2.648306
  S     5.464811  9.856299  2.822296
  S     8.547642  6.288375  0.102789
  S     8.223630  9.996747 -0.296665
  S     7.508523  6.704586  4.095135
  S     8.023529 10.661722  3.742773
