16  
    
  C    12.402901  9.204467  3.400582
  C    12.190004 12.659273  3.485758
  C    11.200684  8.659657  2.817969
  C    11.067587 12.074229  2.802484
  N    13.346824  9.302810  2.472472
  N    13.305245 12.787635  2.722444
  N    11.218322  8.428353  1.526555
  N    11.262722 11.820291  1.500162
  N    10.598443  8.919859  5.279549
  N    10.229971 12.560614  5.253143
  S     9.879623  8.411477  3.912206
  S     9.635757 12.056814  3.704708
  S    12.754807  8.728705  1.051423
  S    12.808400 12.360728  1.186522
  S    12.192711  9.431623  5.101990
  S    11.839538 12.959605  5.199054
