16  
    
  C     9.016763  7.066992  2.689729
  C     8.871358 11.064636  2.343204
  C     7.823709  6.501516  2.208078
  C     7.728384 10.508850  1.701152
  N     9.854510  7.365542  1.701239
  N     9.784990 11.500616  1.473333
  N     7.822185  6.117757  0.932197
  N     7.792740 10.414324  0.401916
  N     7.426602  6.850047  4.675103
  N     7.131655 10.775772  4.171898
  S     6.568740  6.322024  3.376368
  S     6.464749 10.025104  2.827057
  S     9.238282  6.688226  0.357256
  S     9.297446 11.059386  0.009294
  S     8.907849  7.628008  4.335507
  S     8.725850 11.176478  4.107903
