16  
    
  C    10.507456  7.264305  2.809517
  C    10.240286 11.034286  2.783011
  C     9.224186  7.480026  2.161820
  C     8.984406 10.870586  2.169502
  N    11.561931  7.051062  2.012639
  N    11.280956 11.150689  1.965825
  N     9.267331  7.477180  0.855717
  N     9.060268 10.715278  0.862775
  N     8.703501  7.393498  4.720654
  N     8.481693 11.042528  4.673105
  S     7.889620  7.413435  3.251052
  S     7.720896 10.632310  3.252976
  S    10.846470  7.126192  0.456267
  S    10.630282 10.894059  0.413629
  S    10.340529  7.218777  4.553812
  S    10.137697 11.206622  4.522833
