16  
    
  C     7.185455  6.065257  2.126743
  C     7.413132  9.691547  2.517014
  C     6.058461  5.539786  1.393789
  C     6.188131  9.467398  1.815242
  N     8.253581  6.247605  1.363389
  N     8.444725  9.736986  1.668040
  N     6.325982  5.341890  0.106420
  N     6.259196  9.260450  0.505162
  N     5.266702  5.711579  3.776375
  N     5.577239  9.498716  4.264114
  S     4.695264  5.098953  2.314156
  S     4.791705  9.529352  2.784199
  S     7.886392  5.693168 -0.164908
  S     7.907605  9.364472  0.166401
  S     6.807703  6.257085  3.872807
  S     7.157103  9.963719  4.229153
