16  
    
  C     5.861580  5.352672  1.724045
  C     6.001172  8.807503  2.151088
  C     4.634769  4.938526  1.147698
  C     4.765919  8.641126  1.480269
  N     6.875627  5.342723  0.863024
  N     7.020935  8.946537  1.310012
  N     4.665483  4.832771 -0.164099
  N     4.835240  8.503966  0.164465
  N     4.107704  5.352143  3.607553
  N     4.152426  8.725903  3.968927
  S     3.264018  4.919431  2.239623
  S     3.357499  8.542389  2.540817
  S     6.216437  5.005266 -0.653642
  S     6.481490  8.801942 -0.226432
  S     5.701151  5.596995  3.444455
  S     5.815683  9.098057  3.836630
