16  
    
  C     6.225351  5.714221  2.044338
  C     6.054974  9.193677  1.598655
  C     4.935398  5.381643  1.508761
  C     4.818256  8.748738  1.015501
  N     7.211967  5.663131  1.153243
  N     7.071909  9.300662  0.749618
  N     4.925235  5.215667  0.195893
  N     4.891581  8.495536 -0.275740
  N     4.535688  5.844797  3.981945
  N     4.276974  9.242173  3.373771
  S     3.565265  5.561536  2.596022
  S     3.531388  8.542107  2.141883
  S     6.506842  5.318205 -0.337280
  S     6.401003  8.902685 -0.741550
  S     6.191193  5.973288  3.814566
  S     5.952633  9.399392  3.353382
