16  
    
  C    10.981476  7.997796  3.043464
  C    10.985434 11.714341  2.725540
  C     9.749631  7.419284  2.587688
  C     9.729138 11.184119  2.153773
  N    11.848152  8.239245  2.097030
  N    11.973665 11.862671  1.844367
  N     9.693542  7.195953  1.297341
  N     9.798727 10.986985  0.847721
  N     9.554151  7.544420  5.073253
  N     9.288208 11.256380  4.694674
  S     8.567348  7.069179  3.836736
  S     8.391385 10.991127  3.294004
  S    11.133525  7.701017  0.675089
  S    11.338024 11.436556  0.404324
  S    10.991241  8.182889  4.746745
  S    10.851513 11.847655  4.442961
