16  
    
  C     7.216180  5.988855  2.193414
  C     7.501593  9.652562  2.434964
  C     6.156929  5.452678  1.419527
  C     6.267422  9.440725  1.733436
  N     8.338095  6.196485  1.518583
  N     8.568775  9.687977  1.650352
  N     6.449586  5.356586  0.121070
  N     6.414763  9.264687  0.412779
  N     5.303370  5.662776  3.911050
  N     5.681781  9.599474  4.296472
  S     4.681275  5.267353  2.393598
  S     4.877174  9.382081  2.804631
  S     7.990662  5.884623 -0.055588
  S     8.098798  9.507766  0.114307
  S     6.867525  6.091934  3.843992
  S     7.303050  9.830050  4.093556
