16  
    
  C     9.610810  7.342689  2.876122
  C     9.708098 10.931564  2.829659
  C     8.496765  6.888384  2.089179
  C     8.492413 10.546767  2.172754
  N    10.688336  7.658298  2.175497
  N    10.718484 11.229467  1.990645
  N     8.780215  6.839729  0.775777
  N     8.603520 10.432920  0.847734
  N     7.826657  6.802485  4.656640
  N     7.893587 10.756571  4.706244
  S     7.155221  6.438545  3.144100
  S     7.182036 10.221827  3.277273
  S    10.354070  7.423090  0.597996
  S    10.138301 10.925448  0.457551
  S     9.332817  7.526949  4.567149
  S     9.525035 11.129084  4.557754
