16  
    
  C     4.442726  5.175403  1.621064
  C     4.283226  8.643229  1.517171
  C     3.264510  4.657659  0.953907
  C     3.026743  8.196055  0.872777
  N     5.551800  5.119439  0.856117
  N     5.277658  8.845008  0.638784
  N     3.467138  4.440882 -0.377589
  N     3.186508  7.824266 -0.410916
  N     2.734253  5.051586  3.537233
  N     2.546504  8.344138  3.465123
  S     1.897323  4.637363  2.173203
  S     1.783763  7.893616  2.033601
  S     5.047513  4.837875 -0.678850
  S     4.775226  8.224802 -0.827530
  S     4.345440  5.413878  3.360047
  S     4.107927  8.845909  3.247996
