16  
    
  C     8.138852  6.513302  2.658485
  C     8.662553 10.472771  2.755903
  C     7.000364  6.148149  1.901954
  C     7.470918 10.036569  2.113497
  N     9.214015  6.813172  1.929435
  N     9.706546 10.587564  1.959699
  N     7.273369  5.902082  0.624138
  N     7.684102  9.712044  0.824525
  N     6.223687  6.350786  4.373763
  N     6.887008 10.308956  4.629762
  S     5.610070  5.818370  2.887485
  S     6.093968  9.961726  3.214883
  S     8.843560  6.472567  0.406072
  S     9.266802 10.140982  0.478102
  S     7.792789  6.794495  4.328929
  S     8.537587 10.594280  4.515277
