16  
    
  C     5.577405  5.359880  1.924025
  C     5.495748  9.034043  1.779336
  C     4.316890  4.926964  1.400600
  C     4.393759  8.367843  1.116138
  N     6.428306  5.774455  0.995397
  N     6.571827  9.234992  1.008300
  N     4.350753  4.674618  0.091210
  N     4.590814  8.198828 -0.197943
  N     4.085667  5.027515  3.978795
  N     3.595766  8.746395  3.522771
  S     3.126990  4.651164  2.658110
  S     2.972272  8.135620  2.125756
  S     5.832838  5.242432 -0.430471
  S     6.067858  8.731053 -0.516119
  S     5.676896  5.553032  3.666831
  S     5.183989  9.084455  3.500181
