16  
    
  C     4.706749  5.040148  2.103481
  C     4.738136  8.734036  1.543433
  C     3.551694  4.694636  1.319303
  C     3.565908  8.257855  0.870187
  N     5.838154  5.148700  1.400003
  N     5.745900  9.083849  0.754733
  N     3.772555  4.599971  0.015672
  N     3.697391  8.237523 -0.451585
  N     2.689901  4.847482  3.771214
  N     2.962597  8.317094  3.438567
  S     2.050003  4.559613  2.247437
  S     2.265525  7.836315  1.987822
  S     5.375079  4.852795 -0.222527
  S     5.180287  8.843676 -0.836731
  S     4.315412  5.144988  3.790070
  S     4.558831  8.800892  3.257797
