16  
    
  C     9.026815  7.001033  2.393036
  C     9.164587 10.831242  2.513265
  C     7.811957  6.746423  1.632266
  C     7.922321 10.403824  1.851557
  N    10.051810  7.342432  1.632856
  N    10.146715 11.070162  1.641522
  N     7.940698  6.729598  0.306020
  N     7.994835 10.291750  0.538291
  N     7.143286  6.689775  4.122510
  N     7.444985 10.549837  4.398363
  S     6.471526  6.501921  2.634727
  S     6.597277 10.462565  2.973110
  S     9.562694  7.167041  0.025797
  S     9.541355 10.737421  0.080450
  S     8.762683  7.105078  4.115415
  S     9.025569 11.108719  4.206820
