16  
    
  C    12.734188  9.266595  3.348489
  C    12.654898 12.956018  3.557468
  C    11.499354  8.757759  2.763262
  C    11.548872 12.424214  2.782383
  N    13.763436  9.244524  2.506733
  N    13.717146 13.172439  2.780771
  N    11.569169  8.581834  1.465217
  N    11.830230 12.193986  1.498204
  N    11.051360  8.910470  5.306266
  N    10.832106 12.543043  5.308167
  S    10.160748  8.530675  3.943694
  S    10.120686 12.021674  3.821789
  S    13.218568  8.780872  1.036118
  S    13.406903 12.645455  1.233361
  S    12.632714  9.500241  5.043746
  S    12.355441 13.253076  5.238562
