16  
    
  C     3.551558  4.507106  1.604405
  C     3.818341  8.318370  1.669224
  C     2.456119  3.884684  0.964405
  C     2.594463  8.031289  1.019568
  N     4.511635  4.908504  0.795028
  N     4.841354  8.634337  0.861236
  N     2.486002  4.045246 -0.370215
  N     2.687814  7.821413 -0.295540
  N     1.945319  4.292686  3.458186
  N     2.150831  7.954588  3.535716
  S     1.191811  3.626912  2.137069
  S     1.254660  7.863000  2.149915
  S     3.974859  4.662753 -0.731396
  S     4.238518  8.276578 -0.671285
  S     3.488502  4.813233  3.275981
  S     3.741734  8.370594  3.388884
