16  
    
  C     6.694286  5.853289  2.200789
  C     6.754032  9.728552  2.282400
  C     5.408390  5.411501  1.656190
  C     5.476951  9.297068  1.730675
  N     7.664112  6.064929  1.300040
  N     7.721193  9.977598  1.391089
  N     5.422788  5.353853  0.337851
  N     5.527980  9.169478  0.408570
  N     5.104538  5.517903  4.242980
  N     5.200932  9.490148  4.270758
  S     4.143969  5.161412  2.931500
  S     4.244363  9.097643  2.967846
  S     6.973559  5.720763 -0.181946
  S     7.100173  9.540412 -0.047137
  S     6.746204  6.006631  3.968101
  S     6.721662  9.898844  4.016088
