16  
    
  C     3.684347  4.819405  1.577422
  C     3.902195  8.323713  1.699677
  C     2.444582  4.392455  0.972100
  C     2.624748  7.894175  1.088889
  N     4.640237  5.052403  0.667583
  N     4.896537  8.418883  0.828487
  N     2.566573  4.108556 -0.305965
  N     2.656429  7.864221 -0.247561
  N     1.843987  4.323784  3.484525
  N     2.147304  8.129052  3.630142
  S     1.156586  3.834089  2.028402
  S     1.301606  7.870163  2.244076
  S     3.981826  4.607903 -0.852452
  S     4.212207  8.134599 -0.705200
  S     3.486707  4.759558  3.378827
  S     3.757348  8.489019  3.429422
