16  
    
  C     5.110354  4.992981  2.105206
  C     5.167660  8.672868  1.732576
  C     3.838958  4.865736  1.375798
  C     3.953538  8.444434  0.981650
  N     6.161670  5.088454  1.296970
  N     6.286394  8.534052  1.008658
  N     3.996905  4.647814  0.059552
  N     4.112760  8.337152 -0.337005
  N     3.320924  5.419743  3.807303
  N     3.229983  8.549360  3.469692
  S     2.501281  5.141302  2.406267
  S     2.504218  8.433575  1.987401
  S     5.643370  4.749179 -0.220978
  S     5.806837  8.291347 -0.566071
  S     4.907968  5.635809  3.703203
  S     4.875373  8.827390  3.472349
