16  
    
  C     5.843524  5.579243  2.187240
  C     5.925766  9.174409  1.724787
  C     4.554751  5.567941  1.467358
  C     4.693366  8.915250  0.976955
  N     6.895008  5.515197  1.386272
  N     7.035467  9.091108  0.989734
  N     4.641259  5.370160  0.141184
  N     4.860988  8.741523 -0.336784
  N     4.104403  5.949919  4.049551
  N     3.948244  9.238169  3.487692
  S     3.210080  5.593161  2.618032
  S     3.346350  8.777102  2.023238
  S     6.306122  5.257824 -0.160557
  S     6.488351  8.742093 -0.598778
  S     5.770332  5.821998  3.922998
  S     5.685030  9.474213  3.442980
