16  
    
  C     7.580625  6.633909  2.308620
  C     7.682723 10.055539  2.240861
  C     6.298955  6.104709  1.820955
  C     6.466633  9.713329  1.516367
  N     8.583369  6.662021  1.440071
  N     8.822742 10.198277  1.593657
  N     6.321560  5.789307  0.537456
  N     6.755186  9.576171  0.213394
  N     6.055346  6.584993  4.377994
  N     5.844654 10.034834  4.029489
  S     5.108087  6.169926  3.077290
  S     5.074649  9.778542  2.607529
  S     7.908062  6.041318  0.060464
  S     8.355120  9.789657  0.003431
  S     7.639025  6.880612  4.000172
  S     7.515579 10.197176  3.961939
