16  
    
  C     9.418299  7.041627  3.001392
  C     9.627238 10.793505  2.620317
  C     8.277745  6.476826  2.285133
  C     8.372517 10.300633  1.984209
  N    10.392055  7.415063  2.154468
  N    10.574479 11.130585  1.744386
  N     8.369948  6.507112  0.957337
  N     8.463689 10.307173  0.644812
  N     7.695197  6.450169  4.750103
  N     7.947869 10.350034  4.509974
  S     6.990399  6.001315  3.299748
  S     7.140372  9.939968  3.121372
  S     9.877022  7.133572  0.608307
  S     9.984631 10.863500  0.218963
  S     9.235581  6.930115  4.723786
  S     9.515898 10.883695  4.345047
