16  
    
  C    10.735378  8.367159  2.964797
  C    10.748766 11.885363  3.060043
  C     9.539116  7.883670  2.318831
  C     9.643107 11.414839  2.325302
  N    11.745070  8.441535  2.097476
  N    11.854174 12.018775  2.346419
  N     9.662792  7.559089  1.018706
  N     9.878088 11.226778  1.029858
  N     8.971251  8.052414  4.812917
  N     8.848494 11.788927  4.785840
  S     8.212614  7.695938  3.407017
  S     8.212333 11.271372  3.321668
  S    11.191520  8.038412  0.626524
  S    11.446442 11.485190  0.821040
  S    10.591015  8.467652  4.717523
  S    10.497386 12.126155  4.746651
