16  
    
  C     4.409394  5.058948  1.341596
  C     4.237701  8.516213  1.618799
  C     3.160355  4.646036  0.757271
  C     3.118428  8.189587  0.797835
  N     5.400706  5.086250  0.470089
  N     5.345810  8.839777  0.981001
  N     3.165135  4.442658 -0.557501
  N     3.347698  8.201016 -0.512556
  N     2.755153  4.996097  3.228723
  N     2.351979  7.762753  3.218924
  S     1.846280  4.653465  1.879773
  S     1.706998  7.752885  1.662536
  S     4.724763  4.889809 -1.065972
  S     4.913951  8.674011 -0.669975
  S     4.436686  5.112952  3.064491
  S     3.829636  8.536512  3.293516
