16  
    
  C     6.264939  5.765932  2.054755
  C     6.053495  9.142918  1.624056
  C     4.967459  5.354101  1.472220
  C     4.775709  8.755031  0.995071
  N     7.244752  5.686761  1.149577
  N     7.079914  9.314482  0.781679
  N     4.920711  5.215029  0.139989
  N     4.889796  8.516288 -0.306282
  N     4.567133  5.808050  3.974394
  N     4.307266  9.196862  3.427040
  S     3.640307  5.530438  2.588118
  S     3.533044  8.537764  2.168114
  S     6.538584  5.314049 -0.332739
  S     6.412496  8.906409 -0.736831
  S     6.181033  6.001489  3.806946
  S     5.956535  9.407806  3.370207
