16  
    
  C    11.960827  8.636855  3.395275
  C    11.802712 12.047973  3.204454
  C    10.752440  8.050514  2.904292
  C    10.501462 11.734074  2.611615
  N    12.865538  8.790683  2.420392
  N    12.772412 12.265684  2.306692
  N    10.710994  7.765687  1.587805
  N    10.541058 11.578656  1.321222
  N    10.294781  8.535559  5.441132
  N     9.970563 11.950078  5.099222
  S     9.507843  7.935755  4.098360
  S     9.173922 11.488858  3.664456
  S    12.188981  8.294546  1.011420
  S    11.999589 12.031071  0.795443
  S    11.886695  9.032837  5.106180
  S    11.576688 12.363102  4.909860
