16  
    
  C     4.028097  4.553420  1.769184
  C     3.832383  8.467658  1.678636
  C     2.749413  4.391099  1.168013
  C     2.688410  7.934424  0.981230
  N     4.988619  4.661896  0.823446
  N     4.966443  8.398186  0.981641
  N     2.715040  4.072766 -0.102352
  N     2.861677  7.791828 -0.349281
  N     2.094450  4.792408  3.540893
  N     1.931553  8.251913  3.401305
  S     1.335182  4.551096  2.098957
  S     1.277681  7.827675  1.941700
  S     4.267024  4.199122 -0.654727
  S     4.511243  7.965428 -0.562956
  S     3.849047  4.963715  3.455536
  S     3.548610  8.839603  3.346415
