16  
    
  C     4.558149  5.173291  1.639389
  C     4.392259  8.437242  1.527841
  C     3.352752  4.654597  1.051226
  C     3.150299  8.004293  0.890611
  N     5.553192  5.238349  0.738481
  N     5.410887  8.644347  0.696995
  N     3.329701  4.584700 -0.285875
  N     3.300788  7.627642 -0.376815
  N     2.792573  4.832535  3.514466
  N     2.582013  8.590824  3.339622
  S     2.018178  4.519756  2.104436
  S     1.864887  7.927608  2.012928
  S     4.858097  4.853299 -0.768238
  S     4.868867  8.045756 -0.792345
  S     4.327366  5.488216  3.387444
  S     4.226004  8.883621  3.161500
