16  
    
  C    10.741718  8.296639  3.035338
  C    10.758261 11.812185  3.108515
  C     9.534893  7.764774  2.417114
  C     9.638620 11.313807  2.386288
  N    11.741921  8.563454  2.191679
  N    11.846197 11.938551  2.380339
  N     9.624435  7.589907  1.114415
  N     9.845090 11.063767  1.115973
  N     9.033881  7.925823  4.978168
  N     8.836235 11.699858  4.792165
  S     8.155010  7.710584  3.506963
  S     8.141779 11.352993  3.366244
  S    11.144768  8.031632  0.690211
  S    11.472941 11.578774  0.804226
  S    10.542557  8.664587  4.729274
  S    10.446727 12.101117  4.792622
