16  
    
  C    10.947442  7.754423  3.110844
  C    11.072402 11.667018  2.747926
  C     9.702595  7.345337  2.539234
  C     9.847040 11.196980  2.156192
  N    11.917328  8.008464  2.224041
  N    12.016709 11.913188  1.835215
  N     9.673576  7.251728  1.195093
  N     9.881616 10.891806  0.844216
  N     9.351824  7.570524  5.127087
  N     9.443627 11.302753  4.666645
  S     8.495631  7.126020  3.751716
  S     8.548390 11.029536  3.322533
  S    11.189137  7.761529  0.684985
  S    11.459526 11.381862  0.403834
  S    10.979217  7.903015  4.853037
  S    10.905669 11.999474  4.470101
