16  
    
  C    11.825174  8.595479  3.483828
  C    11.628410 11.804409  3.418031
  C    10.607588  8.206506  2.738063
  C    10.438651 11.694930  2.654807
  N    12.887947  8.707841  2.697214
  N    12.671857 12.026104  2.612480
  N    10.797850  8.003716  1.446982
  N    10.567575 11.667008  1.318424
  N     9.926343  8.529147  5.256175
  N     9.744372 11.737012  5.200856
  S     9.179734  8.291326  3.770158
  S     9.085476 11.422055  3.648725
  S    12.332894  8.461287  1.129491
  S    12.167212 11.821152  1.046531
  S    11.533003  8.830800  5.218290
  S    11.480166 11.970255  5.167628
