16  
    
  C    11.335424  8.742335  3.291634
  C    11.447757 12.225360  3.302036
  C    10.239854  8.019514  2.761214
  C    10.288477 11.765902  2.564532
  N    12.349025  8.889413  2.444259
  N    12.501170 12.534397  2.548783
  N    10.407605  7.651225  1.472144
  N    10.519663 11.589517  1.250957
  N     9.670082  8.438827  5.227898
  N     9.612205 11.803782  5.122282
  S     8.977084  7.712398  3.890907
  S     8.954689 11.475135  3.580622
  S    11.907286  8.194301  1.027431
  S    12.087583 12.141201  1.018851
  S    11.173305  9.179734  4.918013
  S    11.088895 12.659602  5.001856
