16  
    
  C     5.922165  4.885111  1.832357
  C     5.771849  9.227820  1.990674
  C     4.758389  4.474941  1.085451
  C     4.624597  8.660973  1.377892
  N     7.033448  5.087932  1.150690
  N     6.775032  9.485922  1.160603
  N     4.933510  4.440875 -0.224106
  N     4.718532  8.434089  0.061588
  N     3.875118  4.893508  3.470965
  N     4.111736  8.938435  3.940984
  S     3.335344  4.237610  2.003176
  S     3.375103  8.298503  2.526916
  S     6.565628  4.738204 -0.450112
  S     6.251988  8.950618 -0.349185
  S     5.547122  5.122229  3.520156
  S     5.644565  9.604021  3.696441
