16  
    
  C     3.753598  4.368507  1.561396
  C     3.527498  8.542223  1.198865
  C     2.556515  3.828695  0.959372
  C     2.309748  7.923384  0.686653
  N     4.697007  4.709056  0.659245
  N     4.428792  8.762668  0.265995
  N     2.566297  3.576757 -0.335840
  N     2.303555  7.781642 -0.639640
  N     1.841855  4.100010  3.396884
  N     1.971388  8.106948  3.172837
  S     1.195182  3.481142  1.930516
  S     1.011187  7.856307  1.847017
  S     3.975839  4.310906 -0.834037
  S     3.781784  8.334678 -1.179966
  S     3.383051  4.673955  3.294122
  S     3.535136  8.498645  2.920925
