16  
    
  C    11.029091  8.144353  2.959074
  C    10.862082 11.780466  3.051063
  C     9.811464  7.714185  2.341711
  C     9.678654 11.329379  2.415245
  N    12.026529  8.318964  2.073862
  N    11.902336 12.137329  2.264097
  N     9.888467  7.580992  1.013809
  N     9.892092 11.120245  1.108223
  N     9.267206  7.825138  4.794355
  N     9.025314 11.610621  4.839237
  S     8.471831  7.573691  3.393742
  S     8.277361 11.133911  3.465527
  S    11.429043  8.008092  0.592637
  S    11.352914 11.706776  0.742016
  S    10.775321  8.492513  4.659559
  S    10.566150 12.209847  4.700343
