16  
    
  C    12.096204  8.512979  3.627616
  C    12.002226 12.163883  3.267600
  C    10.916424  8.117311  2.933013
  C    10.776969 11.726354  2.686581
  N    13.161955  8.741111  2.857324
  N    12.942833 12.387994  2.370559
  N    11.030795  7.979744  1.595602
  N    10.809968 11.445156  1.393270
  N    10.176531  8.340686  5.412980
  N    10.215050 11.982407  5.241944
  S     9.478067  7.908777  3.881069
  S     9.510764 11.553902  3.786039
  S    12.591203  8.391905  1.272299
  S    12.305805 11.821526  0.918976
  S    11.787140  8.801969  5.317405
  S    11.906280 12.220464  5.055214
