16  
    
  C    11.787761  8.564596  3.159876
  C    11.302558 12.156067  3.351166
  C    10.478437  8.145665  2.595121
  C    10.258349 11.495191  2.647679
  N    12.746343  8.850907  2.294794
  N    12.300204 12.622426  2.606984
  N    10.534784  8.138045  1.273702
  N    10.427297 11.543388  1.309567
  N    10.142568  8.126155  5.179161
  N     9.571624 11.754755  5.083615
  S     9.264726  7.711091  3.817419
  S     8.837104 11.352518  3.712612
  S    12.015503  8.628405  0.815011
  S    11.917686 12.214084  1.048071
  S    11.679139  8.730043  4.897888
  S    11.102396 12.244486  5.036710
