16  
    
  C     7.701061  6.614130  2.460813
  C     7.829419 10.101949  2.160834
  C     6.505391  6.052904  1.877935
  C     6.551310  9.915639  1.469627
  N     8.738878  6.608689  1.610545
  N     8.878770 10.031123  1.302771
  N     6.584652  5.837808  0.538726
  N     6.627846  9.715938  0.158413
  N     5.855834  6.885360  4.223994
  N     5.971542 10.026830  3.952733
  S     5.165381  6.166874  2.890800
  S     5.189462  9.956928  2.465397
  S     8.124024  6.149239  0.153385
  S     8.277362  9.759066 -0.204914
  S     7.525826  7.087548  4.090834
  S     7.598390 10.355244  3.865138
