16  
    
  C     9.278181  6.647783  2.551155
  C     9.633085 10.640635  2.800609
  C     8.098221  6.266363  1.836367
  C     8.391005 10.215558  2.219543
  N    10.294819  6.899464  1.722057
  N    10.607916 10.882320  1.902655
  N     8.160457  6.280755  0.487747
  N     8.439851 10.058619  0.891746
  N     7.391804  6.410544  4.287235
  N     8.028095 10.441828  4.739498
  S     6.699296  6.007141  2.829434
  S     7.153012  9.934499  3.431076
  S     9.679718  6.707898  0.162859
  S     9.940639 10.456149  0.433959
  S     9.008472  6.811396  4.299248
  S     9.615288 10.940196  4.506936
