16  
    
  C     9.744208  7.678626  2.899050
  C     9.937467 11.160620  2.808823
  C     8.636489  7.124784  2.105744
  C     8.634578 10.879185  2.152214
  N    10.795901  7.857262  2.130307
  N    10.926984 11.298443  1.912981
  N     8.860356  6.954893  0.810898
  N     8.709558 10.688027  0.830582
  N     7.820850  7.605949  4.490963
  N     8.142560 10.992027  4.719688
  S     7.261680  6.829430  3.138662
  S     7.291337 10.901196  3.272623
  S    10.411252  7.502232  0.558838
  S    10.300097 10.987349  0.462450
  S     9.490419  7.858359  4.578328
  S     9.779685 11.219917  4.513594
