16  
    
  C    12.845757  9.015368  3.464306
  C    12.774275 12.803671  3.450698
  C    11.567183  8.589302  2.957186
  C    11.662717 12.158343  2.777380
  N    13.739057  9.253463  2.487380
  N    13.798737 12.993281  2.636925
  N    11.524480  8.363430  1.666083
  N    11.744810 12.094788  1.458638
  N    11.113711  9.036169  5.340744
  N    10.965277 12.370436  5.240991
  S    10.241715  8.385132  4.122088
  S    10.203604 11.971927  3.801656
  S    12.932280  8.846677  1.042976
  S    13.309836 12.586122  1.066068
  S    12.728455  9.372275  5.192152
  S    12.526532 12.994873  5.207964
