16  
    
  C     9.258413  6.898744  2.728588
  C     9.694626 10.820558  2.740129
  C     8.051435  6.435515  2.048993
  C     8.547523 10.164928  2.089446
  N    10.222245  7.308858  1.871359
  N    10.574394 11.291954  1.870301
  N     8.170129  6.309529  0.742663
  N     8.663593 10.066727  0.775193
  N     7.430093  6.359907  4.554896
  N     8.163809 10.047955  4.669077
  S     6.682150  6.079517  3.063407
  S     7.386017  9.626861  3.257695
  S     9.624772  6.847496  0.354459
  S    10.049807 10.807169  0.357888
  S     8.995992  6.905260  4.465071
  S     9.575479 10.969393  4.451112
