16  
    
  C    11.156691  8.193423  3.137149
  C    11.418019 11.775063  3.176046
  C     9.900403  7.608923  2.655642
  C    10.183109 11.477232  2.519576
  N    12.058829  8.328728  2.183331
  N    12.504977 11.632699  2.421289
  N     9.987917  7.287138  1.362609
  N    10.328150 11.298717  1.204974
  N     9.549119  8.082774  5.118998
  N     9.638627 11.541652  5.091712
  S     8.645363  7.541108  3.862139
  S     8.854438 11.476057  3.634385
  S    11.494177  7.640282  0.822933
  S    11.952831 11.422807  0.918997
  S    11.112225  8.442553  4.848909
  S    11.285116 11.865372  4.968258
