16  
    
  C     5.312479  5.511900  1.643428
  C     5.161723  9.012623  1.335151
  C     3.975974  5.207583  1.146368
  C     3.979122  8.498427  0.790025
  N     6.298280  5.501528  0.757392
  N     6.203690  8.942148  0.515344
  N     3.975100  4.917841 -0.130176
  N     4.059666  8.239555 -0.512294
  N     3.831180  5.534525  3.712151
  N     3.450636  8.933297  3.258351
  S     2.802319  5.033547  2.476071
  S     2.713436  8.221485  1.962138
  S     5.536856  5.120405 -0.701657
  S     5.634262  8.414488 -0.930827
  S     5.373045  5.835587  3.341020
  S     5.020633  9.399688  3.016694
