16  
    
  C     7.999670  6.587740  2.556722
  C     8.533971 10.308554  2.388447
  C     6.844158  6.034342  1.853090
  C     7.233821  9.849012  1.911607
  N     9.103354  6.720128  1.824302
  N     9.499380 10.384336  1.495370
  N     7.089729  5.982541  0.543560
  N     7.292386  9.575166  0.601314
  N     6.233469  6.311694  4.343120
  N     6.918417 10.421072  4.347742
  S     5.492347  5.979155  2.906220
  S     6.027097  9.726921  3.116862
  S     8.656828  6.429249  0.316641
  S     8.830039  9.870443  0.065080
  S     7.772122  6.777828  4.220581
  S     8.570177 10.495858  4.099085
