16  
    
  C     5.555836  5.373069  1.804063
  C     5.131431  8.977996  1.684679
  C     4.216830  5.056715  1.261194
  C     3.887557  8.602824  1.026164
  N     6.507503  5.442455  0.868335
  N     6.160796  9.193662  0.873575
  N     4.142953  5.079258 -0.072878
  N     4.092520  8.353585 -0.266483
  N     3.811615  5.237500  3.815426
  N     3.349424  8.687986  3.547559
  S     2.931141  5.189875  2.416371
  S     2.582099  8.254460  2.113826
  S     5.701775  5.195054 -0.610836
  S     5.660294  8.701091 -0.622196
  S     5.510145  5.382302  3.556191
  S     4.976192  9.114564  3.373720
