16  
    
  C    11.601844  8.621558  3.209673
  C    11.380087 12.295090  3.303211
  C    10.439038  7.989131  2.623610
  C    10.253752 11.736986  2.588107
  N    12.509715  8.981938  2.312495
  N    12.384996 12.595355  2.477298
  N    10.497718  7.900755  1.299488
  N    10.418244 11.555722  1.287924
  N    10.007341  8.238803  5.148884
  N     9.476867 11.895722  5.050636
  S     9.232688  7.769611  3.825892
  S     8.844727 11.346459  3.550807
  S    11.954419  8.542248  0.828144
  S    11.893483 12.275469  0.964085
  S    11.543566  8.870880  4.956238
  S    11.112074 12.229206  5.064155
