16  
    
  C     7.918047  6.356309  2.216191
  C     8.055722 10.222041  2.189911
  C     6.707225  5.845746  1.558568
  C     6.808382  9.792163  1.529324
  N     8.946654  6.516678  1.374217
  N     9.140317 10.322197  1.428070
  N     6.804294  5.879920  0.209088
  N     6.984265  9.663516  0.230128
  N     6.226586  5.938614  4.122549
  N     6.294836 10.063031  4.060474
  S     5.463123  5.465709  2.704566
  S     5.521173  9.627291  2.693292
  S     8.340424  6.296583 -0.158483
  S     8.515161 10.092675 -0.142399
  S     7.826703  6.238467  3.945927
  S     7.877794 10.544789  3.871325
