16  
    
  C    10.463772  7.244292  2.830257
  C    10.283185 11.113912  2.789106
  C     9.226049  7.412142  2.161424
  C     9.021697 10.821970  2.150665
  N    11.483625  7.104219  1.983407
  N    11.287447 11.100830  1.893587
  N     9.298370  7.452491  0.804423
  N     9.026059 10.717470  0.798601
  N     8.738119  7.339532  4.730468
  N     8.511314 11.042555  4.665620
  S     7.910913  7.556611  3.298197
  S     7.693209 10.647340  3.249464
  S    10.865464  7.135858  0.478128
  S    10.628952 10.899731  0.433427
  S    10.430180  7.215502  4.534758
  S    10.138821 11.307023  4.500977
