16  
    
  C     7.710632  6.687631  2.392640
  C     7.804510 10.082006  2.011648
  C     6.570289  6.136138  1.729901
  C     6.531347  9.884872  1.404393
  N     8.835038  6.648036  1.683610
  N     8.881140  9.997577  1.262046
  N     6.805055  5.876948  0.451898
  N     6.636031  9.735314  0.086660
  N     5.845138  6.643681  4.233323
  N     6.138635 10.261082  3.968693
  S     5.089877  6.121763  2.833857
  S     5.223915  9.926455  2.615385
  S     8.384340  6.145792  0.162540
  S     8.298880  9.855399 -0.276877
  S     7.496868  7.051072  4.133159
  S     7.744117 10.520551  3.720966
