16  
    
  C     3.680542  4.835390  1.573815
  C     3.909722  8.314206  1.700643
  C     2.439933  4.393514  0.973515
  C     2.622641  7.900707  1.086955
  N     4.638696  5.050059  0.668411
  N     4.900582  8.415371  0.827933
  N     2.568817  4.114468 -0.304364
  N     2.656803  7.860856 -0.243837
  N     1.851044  4.324005  3.483881
  N     2.150729  8.134755  3.633094
  S     1.154985  3.843126  2.026655
  S     1.299948  7.869266  2.246892
  S     3.986219  4.607518 -0.854704
  S     4.211318  8.130719 -0.707914
  S     3.485599  4.758357  3.378205
  S     3.754460  8.494692  3.429550
