16  
    
  C    12.821519  9.033397  3.448869
  C    12.789110 12.791736  3.454530
  C    11.553162  8.601215  2.968155
  C    11.676133 12.143274  2.785993
  N    13.751308  9.221462  2.496924
  N    13.799294 13.006117  2.626443
  N    11.517425  8.373094  1.665112
  N    11.740215 12.100593  1.451877
  N    11.126004  9.025207  5.333399
  N    10.940076 12.376008  5.241524
  S    10.243465  8.390636  4.094610
  S    10.199166 11.978994  3.789925
  S    12.938548  8.844572  1.032323
  S    13.314866 12.599250  1.082452
  S    12.724217  9.388340  5.183772
  S    12.510918 13.017763  5.206035
