16  
    
  C     4.026224  4.701108  1.638756
  C     3.958646  8.463786  1.524396
  C     2.762770  4.495994  0.998096
  C     2.828378  7.938023  0.868513
  N     5.112960  4.754811  0.861618
  N     5.070058  8.494030  0.753001
  N     2.897070  4.277789 -0.316503
  N     3.012612  7.705789 -0.436958
  N     2.325775  4.817054  3.582302
  N     2.106309  8.367750  3.352703
  S     1.466650  4.329763  2.215953
  S     1.423874  7.914302  1.884700
  S     4.599662  4.351786 -0.653906
  S     4.599855  8.060647 -0.747689
  S     4.006840  4.991350  3.368132
  S     3.719162  8.659662  3.271418
