16  
    
  C    11.104762  8.157620  2.957209
  C    10.843653 11.902031  3.069210
  C     9.880626  7.678547  2.331199
  C     9.682938 11.298577  2.412341
  N    12.070927  8.416185  2.099375
  N    11.853934 12.104764  2.254770
  N     9.930881  7.591012  1.010725
  N     9.881479 11.084177  1.130172
  N     9.360152  7.806146  4.838057
  N     9.001459 11.590538  4.901775
  S     8.495914  7.521813  3.441403
  S     8.296335 11.096509  3.465387
  S    11.447168  7.964567  0.582087
  S    11.343749 11.721459  0.695396
  S    10.811104  8.513466  4.658646
  S    10.595774 12.158258  4.734546
