16  
    
  C     5.468297  5.309635  1.811102
  C     5.072285  9.091662  1.691787
  C     4.162793  5.194837  1.159267
  C     3.871503  8.519087  1.060209
  N     6.436403  5.462930  0.929424
  N     6.090641  9.249773  0.864352
  N     4.214594  4.946119 -0.153169
  N     3.984197  8.317569 -0.250128
  N     3.745181  5.378362  3.670199
  N     3.353741  8.749366  3.526791
  S     2.859833  5.214379  2.248680
  S     2.576610  8.318268  2.169118
  S     5.789725  5.240303 -0.592631
  S     5.577400  8.798326 -0.632198
  S     5.367631  5.430331  3.557654
  S     4.995180  8.931392  3.413459
