16  
    
  C    11.639971  8.595912  3.207700
  C    11.377462 12.239960  3.300543
  C    10.438581  7.981633  2.617280
  C    10.225733 11.731998  2.608317
  N    12.521104  8.952003  2.316868
  N    12.401806 12.616852  2.501495
  N    10.484396  7.953837  1.306481
  N    10.431386 11.506468  1.304639
  N    10.028295  8.220692  5.171234
  N     9.460259 11.885277  5.096127
  S     9.244451  7.760173  3.820092
  S     8.828542 11.344678  3.562957
  S    11.982077  8.568383  0.802875
  S    11.888810 12.284781  0.979750
  S    11.571489  8.853239  4.950141
  S    11.124637 12.227242  5.037792
