16  
    
  C     3.720425  4.694442  1.595315
  C     3.800504  8.461752  1.715945
  C     2.457254  4.639809  0.944330
  C     2.620612  7.797604  1.082842
  N     4.822185  4.578510  0.840077
  N     4.909229  8.480251  0.958663
  N     2.641051  4.248420 -0.317427
  N     2.828687  7.550100 -0.233709
  N     2.086990  4.820330  3.575964
  N     1.897431  8.337425  3.479964
  S     1.154304  4.543294  2.179258
  S     1.181685  7.898499  2.034215
  S     4.272351  4.288919 -0.688644
  S     4.430690  7.887678 -0.552243
  S     3.740217  4.910979  3.252582
  S     3.523228  8.842705  3.363697
