16  
    
  C    10.438793  7.547966  2.638272
  C    10.451359 11.382959  2.662948
  C     9.132574  7.444364  2.084236
  C     9.204692 11.159843  1.983766
  N    11.418887  7.361198  1.757527
  N    11.513330 11.324887  1.882712
  N     9.135484  7.261371  0.752217
  N     9.258448 10.873652  0.687246
  N     8.794823  7.817919  4.616625
  N     8.563559 11.273806  4.498576
  S     7.839320  7.386553  3.250674
  S     7.799316 11.320283  3.055523
  S    10.730318  7.198570  0.295864
  S    10.923511 10.961524  0.378191
  S    10.443304  7.679362  4.341543
  S    10.235233 11.531406  4.405518
