16  
    
  C     5.177996  5.175136  2.015338
  C     5.159680  8.492995  1.961861
  C     3.920683  4.904502  1.374825
  C     3.975109  8.360967  1.147656
  N     6.188445  5.162309  1.154670
  N     6.291689  8.597478  1.246758
  N     3.921099  4.897319  0.034710
  N     4.251945  8.106426 -0.136785
  N     3.291603  5.120837  3.881396
  N     3.183032  8.958896  3.553533
  S     2.583648  4.909359  2.411521
  S     2.488574  8.441341  2.085081
  S     5.497472  4.885634 -0.373175
  S     5.878641  8.273388 -0.343074
  S     4.998621  5.174628  3.782713
  S     4.859372  8.803218  3.640642
