16  
    
  C    12.716396  8.995388  3.818415
  C    12.801414 12.399722  3.736854
  C    11.474246  8.503280  3.245673
  C    11.545684 12.107044  3.067700
  N    13.699736  9.185498  2.930612
  N    13.793278 12.820073  2.934533
  N    11.496728  8.439684  1.915513
  N    11.669609 12.110840  1.740453
  N    11.200047  8.429541  5.846161
  N    10.949038 12.307003  5.527660
  S    10.306123  8.123677  4.418069
  S    10.187244 11.852105  4.109558
  S    13.034194  8.967067  1.377494
  S    13.253173 12.566772  1.426497
  S    12.651952  9.248393  5.557728
  S    12.569421 12.704047  5.450923
