16  
    
  C    10.944275  7.903495  3.108827
  C    11.537101 11.823738  3.102949
  C     9.765805  7.499937  2.417462
  C    10.410890 11.246553  2.394868
  N    11.972762  8.008012  2.308181
  N    12.583372 12.035918  2.329851
  N     9.907412  7.345601  1.108552
  N    10.651844 10.871287  1.140660
  N     9.079729  7.944424  4.904387
  N     9.754182 11.566305  4.847252
  S     8.418474  7.302678  3.517571
  S     9.118681 10.945159  3.489846
  S    11.513839  7.583857  0.828246
  S    12.121819 11.480735  0.802480
  S    10.763992  8.205843  4.806411
  S    11.279895 12.172785  4.803713
