16  
    
  C     8.926157  7.175071  2.676564
  C     8.907780 11.082430  2.359144
  C     7.806439  6.379729  2.261168
  C     7.796876 10.530338  1.675911
  N     9.881802  7.326164  1.756091
  N     9.925004 11.395039  1.556053
  N     7.719016  6.119119  0.961639
  N     7.812361 10.524688  0.368515
  N     7.350263  6.849681  4.752437
  N     7.100468 10.679421  4.169982
  S     6.504913  6.314828  3.401840
  S     6.516768 10.024824  2.757853
  S     9.131317  6.741802  0.299479
  S     9.240760 11.148385 -0.034469
  S     8.750568  7.666144  4.411691
  S     8.719930 11.162143  4.081560
