16  
    
  C     8.912491  7.156162  2.696653
  C     8.951823 11.065019  2.326570
  C     7.740484  6.437225  2.235769
  C     7.764862 10.516174  1.684607
  N     9.848775  7.353682  1.758255
  N     9.946871 11.384227  1.511733
  N     7.711402  6.125112  0.941829
  N     7.831726 10.571437  0.336941
  N     7.275036  6.858936  4.751638
  N     7.122552 10.628668  4.175855
  S     6.461401  6.291193  3.459803
  S     6.503859 10.025421  2.749093
  S     9.125036  6.768494  0.296104
  S     9.269717 11.173695 -0.035680
  S     8.721190  7.656991  4.397521
  S     8.712205 11.158019  4.068912
