16  
    
  C     8.374242  6.558694  2.286445
  C     8.114039 10.150682  2.598724
  C     7.144188  6.146156  1.680968
  C     7.046203  9.521728  1.889125
  N     9.390343  6.749064  1.438277
  N     9.201863 10.443210  1.901766
  N     7.313612  5.789463  0.389929
  N     7.357456  9.328399  0.615341
  N     6.682793  6.455868  4.256570
  N     6.259453  9.760630  4.350114
  S     5.865218  6.064981  2.897208
  S     5.693255  9.142642  2.910603
  S     8.904365  6.188138 -0.006070
  S     8.908373  9.857177  0.395661
  S     8.202652  7.096500  3.914862
  S     7.773331 10.488478  4.259949
