16  
    
  C     8.457409  6.712801  2.322579
  C     8.122032 10.326174  2.625129
  C     7.248221  6.066232  1.741857
  C     7.066466  9.659098  1.835782
  N     9.480603  6.740619  1.472846
  N     9.280478 10.461572  1.969320
  N     7.317449  5.853905  0.422198
  N     7.401799  9.393022  0.575012
  N     6.817087  6.458287  4.256780
  N     6.290184  9.741041  4.308454
  S     5.962834  6.018757  2.868067
  S     5.756437  9.151921  2.870099
  S     8.848620  6.268026 -0.030456
  S     9.015035  9.853165  0.426351
  S     8.313291  7.063541  3.991076
  S     7.746418 10.522831  4.302868
