16  
    
  C     4.403191  4.900301  1.197441
  C     4.422391  8.355390  1.319517
  C     3.114609  4.788460  0.563648
  C     3.241280  7.788814  0.670398
  N     5.383139  5.050250  0.287179
  N     5.469355  8.472304  0.493624
  N     3.131685  4.665315 -0.763038
  N     3.367128  7.707078 -0.654355
  N     2.537265  4.688515  3.108506
  N     2.577224  8.178410  3.192937
  S     1.738849  4.632049  1.660412
  S     1.870889  7.739908  1.753975
  S     4.692380  4.738108 -1.204273
  S     4.919874  8.177494 -1.049596
  S     4.151166  5.236983  2.986878
  S     4.254482  8.505410  3.058660
