16  
    
  C    11.809206  8.631022  3.512735
  C    11.702766 11.899936  3.365230
  C    10.612520  8.204181  2.840982
  C    10.477057 11.670226  2.630498
  N    12.861929  8.856236  2.720812
  N    12.806172 11.978764  2.611550
  N    10.737754  8.117708  1.504119
  N    10.666267 11.606104  1.326682
  N     9.940523  8.596201  5.256528
  N     9.718923 11.867472  5.013776
  S     9.169250  8.255657  3.816781
  S     9.004986 11.515897  3.634403
  S    12.329558  8.448553  1.223188
  S    12.198175 11.917418  0.994457
  S    11.552843  8.870095  5.204454
  S    11.327175 12.011464  5.041466
