16  
    
  C     6.893099  5.980383  2.263189
  C     7.271479  9.822801  2.180517
  C     5.810249  5.490170  1.435401
  C     6.027498  9.487934  1.577436
  N     8.055180  6.248195  1.658864
  N     8.317941  9.874383  1.373564
  N     6.178757  5.296418  0.179612
  N     6.092797  9.338857  0.273176
  N     4.799159  5.623631  3.833241
  N     5.492484  9.385642  4.074440
  S     4.309112  5.080669  2.257983
  S     4.627941  9.375586  2.625416
  S     7.762675  5.770433  0.062255
  S     7.699930  9.597449 -0.151268
  S     6.413000  6.127222  3.971279
  S     7.093983  9.947016  3.947472
