16  
    
  C     6.692937  6.088182  2.376392
  C     7.051195  9.738764  2.307785
  C     5.610397  5.252291  1.851636
  C     5.757918  9.412376  1.652989
  N     7.572635  6.493326  1.445726
  N     8.018292 10.003369  1.436365
  N     5.525762  5.219315  0.501746
  N     5.847874  9.309973  0.341002
  N     5.234335  5.405627  4.413116
  N     5.295736  9.566205  4.193890
  S     4.491918  4.759885  3.142008
  S     4.428599  9.305401  2.771702
  S     6.884599  6.017128  0.005028
  S     7.444344  9.639097 -0.062011
  S     6.733711  6.106339  4.078043
  S     6.940749  9.868686  4.043588
