16  
    
  C     6.774005  6.114387  2.370154
  C     7.261821  9.617148  2.138749
  C     5.666233  5.449364  1.738525
  C     5.997480  9.341036  1.507354
  N     7.651037  6.666698  1.523935
  N     8.292343  9.680189  1.300285
  N     5.780652  5.283153  0.423379
  N     6.042604  9.281190  0.190231
  N     5.245380  5.175167  4.295169
  N     5.475816  9.623347  4.050071
  S     4.575337  4.799548  2.868970
  S     4.685675  9.439677  2.583948
  S     7.123613  6.169880  0.035125
  S     7.563335  9.506518 -0.262405
  S     6.568141  6.232223  4.097627
  S     7.141550  9.798940  3.904145
