16  
    
  C    12.511143  9.122729  3.406977
  C    12.319144 12.774881  3.574363
  C    11.384183  8.542288  2.695709
  C    11.152355 12.201340  3.006971
  N    13.523493  9.415247  2.599718
  N    13.224063 13.104580  2.646201
  N    11.495895  8.385613  1.379569
  N    11.241678 11.843188  1.724392
  N    10.718231  8.490649  5.217397
  N    10.699449 12.308494  5.520839
  S    10.009231  8.246693  3.715878
  S     9.893069 11.898473  4.138230
  S    13.073417  8.898116  1.082749
  S    12.553415 12.617550  1.172151
  S    12.281786  9.054484  5.166534
  S    12.131454 13.127870  5.240016
