16  
    
  C    10.507140  7.257932  2.813797
  C    10.263759 11.047773  2.786345
  C     9.211793  7.463744  2.153306
  C     8.978482 10.865307  2.153200
  N    11.553428  7.067346  2.012206
  N    11.268245 11.134943  1.943049
  N     9.281693  7.479257  0.831750
  N     9.062515 10.716286  0.858395
  N     8.709878  7.378308  4.743318
  N     8.493176 11.048173  4.682235
  S     7.899884  7.455554  3.261115
  S     7.720959 10.630472  3.246066
  S    10.846077  7.126507  0.468414
  S    10.624358 10.895114  0.422461
  S    10.366314  7.213897  4.547229
  S    10.133533 11.235613  4.516702
