16  
    
  C     8.547170  6.685536  2.305646
  C     8.282370 10.317884  2.612997
  C     7.349079  6.210982  1.759381
  C     7.237870  9.671770  1.881039
  N     9.540956  6.863748  1.460873
  N     9.406103 10.614559  1.949110
  N     7.359782  6.005099  0.459293
  N     7.498984  9.424603  0.612074
  N     6.927197  6.408594  4.308536
  N     6.290142  9.841004  4.238942
  S     6.097334  5.893469  2.970042
  S     5.791743  9.316589  2.746303
  S     8.867076  6.371788 -0.057513
  S     9.035652  9.958737  0.373997
  S     8.476923  6.898995  4.060350
  S     7.803459 10.555478  4.296105
