16  
    
  C    12.749256  8.987733  3.788843
  C    12.799760 12.435419  3.690236
  C    11.507618  8.587140  3.204419
  C    11.596253 12.073972  3.048555
  N    13.660960  9.234645  2.891099
  N    13.827745 12.739814  2.908102
  N    11.450940  8.428786  1.890587
  N    11.684018 12.102404  1.720780
  N    11.250746  8.440923  5.797548
  N    10.956967 12.277948  5.499317
  S    10.347541  8.153171  4.412835
  S    10.241194 11.876628  4.111250
  S    13.006393  8.939024  1.372005
  S    13.209302 12.585686  1.356827
  S    12.630366  9.246862  5.577944
  S    12.570281 12.707206  5.408553
