16  
    
  C     5.644019  5.241770  1.861105
  C     5.345432  8.886545  1.711125
  C     4.310053  5.106434  1.411629
  C     4.201480  8.327341  1.038354
  N     6.504922  5.508499  0.886373
  N     6.447725  9.066656  0.981659
  N     4.173642  5.074782  0.087197
  N     4.373928  8.299893 -0.279936
  N     4.035869  5.155749  3.968242
  N     3.454201  8.828243  3.407329
  S     3.108421  4.868551  2.643245
  S     2.767978  8.090032  2.056760
  S     5.682064  5.283270 -0.524946
  S     5.942912  8.696388 -0.557641
  S     5.652018  5.471403  3.605948
  S     5.029315  9.252806  3.384501
