16  
    
  C     9.783340  7.482024  2.851037
  C     9.743536 11.114297  2.889822
  C     8.628252  6.962625  2.135587
  C     8.592368 10.566813  2.210717
  N    10.795145  7.779443  2.057685
  N    10.768476 11.307711  2.078845
  N     8.720888  6.914738  0.816386
  N     8.662324 10.499853  0.874573
  N     7.912334  6.976402  4.562452
  N     7.954822 10.749933  4.690469
  S     7.185067  6.669250  3.075111
  S     7.259784 10.197184  3.289757
  S    10.270377  7.384773  0.485530
  S    10.266845 10.942138  0.544435
  S     9.427465  7.599219  4.526083
  S     9.539715 11.213741  4.615765
