16  
    
  C    12.210543  9.252382  3.567464
  C    12.476966 12.769995  3.475031
  C    11.207350  8.449658  2.815612
  C    11.171076 12.352324  2.929827
  N    13.191757  9.699163  2.818860
  N    13.447412 12.964214  2.579427
  N    11.458448  8.434928  1.511823
  N    11.273194 12.021620  1.634230
  N    10.657876  8.392348  5.378719
  N    10.866366 12.608049  5.506627
  S     9.934556  7.911092  3.900649
  S     9.938131 12.196212  4.173605
  S    12.974066  9.194365  1.261748
  S    12.812142 12.560303  1.139809
  S    12.094828  9.193198  5.303966
  S    12.521929 12.963797  5.183732
