16  
    
  C     8.648748  7.257392  2.684836
  C     8.905212 10.996772  2.287200
  C     7.491673  6.486155  2.165951
  C     7.718887 10.521407  1.548066
  N     9.637734  7.478848  1.845286
  N     9.940011 11.411373  1.529597
  N     7.555259  6.319351  0.841957
  N     7.872922 10.639765  0.230394
  N     7.168114  7.003219  4.712113
  N     7.225395 10.447156  4.118589
  S     6.366152  6.183156  3.452510
  S     6.460084 10.088719  2.686268
  S     9.112811  6.850526  0.404981
  S     9.398123 11.175184 -0.078383
  S     8.712847  7.538705  4.331140
  S     8.772895 11.121771  3.980826
