16  
    
  C     5.152364  5.225638  2.048438
  C     5.125626  8.652341  1.633151
  C     3.894814  4.926138  1.408676
  C     3.900345  8.461733  0.933930
  N     6.218931  5.054420  1.230348
  N     6.237015  8.609555  0.911201
  N     3.980833  4.606336  0.129735
  N     4.052827  8.284640 -0.374251
  N     3.223424  5.558829  3.802981
  N     3.310355  8.527763  3.452234
  S     2.452819  5.154100  2.359478
  S     2.524407  8.409536  2.007189
  S     5.563747  4.691122 -0.261672
  S     5.677861  8.306374 -0.640675
  S     4.953814  5.700762  3.712629
  S     4.906680  8.857578  3.336745
