16  
    
  C     3.839869  4.759565  1.628237
  C     3.831738  8.345107  1.725665
  C     2.590493  4.396526  1.022270
  C     2.641872  8.006721  0.989874
  N     4.904571  4.555871  0.817485
  N     4.915284  8.421691  0.949615
  N     2.613623  4.141507 -0.303124
  N     2.881890  7.593718 -0.278928
  N     2.129933  4.796048  3.563370
  N     1.930255  8.296694  3.465810
  S     1.282765  4.605171  2.183511
  S     1.235095  7.867075  2.026947
  S     4.281003  4.213293 -0.677750
  S     4.478170  7.943557 -0.562846
  S     3.721721  4.933749  3.407926
  S     3.446329  8.848017  3.356904
