16  
    
  C     5.251808  5.422654  1.788658
  C     5.104305  8.872786  1.303764
  C     3.933595  5.018040  1.295961
  C     3.844426  8.378955  0.795891
  N     6.205109  5.355551  0.864882
  N     6.061512  8.902894  0.398906
  N     3.896547  4.628343  0.040572
  N     3.917456  8.101103 -0.501011
  N     3.646848  5.444822  3.795564
  N     3.486651  8.908261  3.256632
  S     2.687837  5.269267  2.452741
  S     2.587621  8.317006  2.004996
  S     5.402401  4.893792 -0.559456
  S     5.422989  8.444717 -1.023993
  S     5.173165  5.951286  3.462018
  S     5.127595  9.228911  2.994311
