16  
    
  C     9.268222  6.620562  2.398921
  C     9.344166 10.550789  2.846028
  C     8.112470  6.189640  1.647692
  C     8.087035 10.376401  2.138481
  N    10.389684  6.618609  1.698658
  N    10.403817 10.315258  2.111639
  N     8.315782  6.084219  0.320185
  N     8.245995 10.073737  0.838786
  N     7.364922  6.868151  4.092724
  N     7.477565 10.912125  4.594142
  S     6.683189  6.197029  2.753293
  S     6.694429 10.732579  3.161088
  S     9.946154  6.314517  0.116465
  S     9.824214  9.911522  0.568679
  S     9.026019  7.040563  4.064173
  S     9.129252 11.010270  4.521779
