16  
    
  C    12.087496  8.602751  3.323318
  C    12.180873 12.112918  3.285062
  C    10.772709  8.239964  2.764169
  C    10.973778 11.625361  2.623083
  N    13.074967  8.701448  2.409851
  N    13.145238 12.374960  2.393680
  N    10.762858  8.192645  1.450785
  N    11.098057 11.291140  1.348435
  N    10.332058  8.436445  5.222392
  N    10.297594 11.993476  5.026761
  S     9.511264  8.074782  3.894381
  S     9.551989 11.559583  3.640444
  S    12.315872  8.339521  0.927903
  S    12.532038 11.942331  0.864267
  S    11.989000  8.714338  5.072231
  S    11.845544 12.370521  5.005372
