16  
    
  C    12.484304  9.085112  3.421984
  C    12.336771 12.796849  3.500004
  C    11.315096  8.620730  2.667808
  C    11.136528 12.137466  2.980173
  N    13.510136  9.426358  2.642538
  N    13.206018 13.085699  2.546488
  N    11.578721  8.484465  1.358976
  N    11.119941 11.998760  1.661124
  N    10.687819  8.459155  5.086765
  N    10.672976 12.547836  5.473562
  S     9.938921  8.132964  3.647203
  S     9.902519 11.816398  4.220716
  S    13.042464  9.056577  1.066725
  S    12.619028 12.516144  1.072848
  S    12.162157  9.130721  5.141516
  S    12.276082 13.076428  5.205525
