16  
    
  C     8.450664  6.863262  2.358831
  C     8.928787 10.215226  2.737256
  C     7.330858  6.428556  1.623467
  C     7.684602  9.948996  2.114049
  N     9.521406  7.110088  1.614232
  N     9.929100 10.355826  1.891576
  N     7.600321  6.214628  0.337620
  N     7.727476  9.956032  0.778349
  N     6.695162  6.468649  4.159870
  N     7.168284 10.285955  4.591943
  S     5.975603  5.961756  2.689112
  S     6.326176  9.883254  3.240038
  S     9.198019  6.630671  0.117952
  S     9.335858 10.216922  0.397494
  S     8.267380  6.972978  4.051401
  S     8.782063 10.555033  4.406387
