16  
    
  C    11.336003  8.751224  3.299939
  C    11.437233 12.230889  3.295662
  C    10.235742  8.019261  2.753357
  C    10.281756 11.774262  2.551279
  N    12.336994  8.907292  2.435670
  N    12.500629 12.518373  2.567294
  N    10.400961  7.647360  1.466045
  N    10.515189 11.593179  1.243548
  N     9.673322  8.428933  5.235492
  N     9.624463 11.793583  5.102955
  S     8.987681  7.719232  3.889901
  S     8.947280 11.464170  3.581139
  S    11.916303  8.199017  1.021866
  S    12.088484 12.154317  1.016531
  S    11.182799  9.175081  4.915285
  S    11.089842 12.651082  5.000577
