16  
    
  C     4.234894  4.769255  1.375775
  C     4.305850  8.415760  1.291532
  C     2.980566  4.559122  0.700656
  C     3.092945  7.983130  0.683261
  N     5.256054  5.072224  0.607240
  N     5.335444  8.388595  0.474415
  N     3.116008  4.449591 -0.627179
  N     3.168599  7.820466 -0.636484
  N     2.520897  4.870019  3.280297
  N     2.569326  8.252221  3.242854
  S     1.612820  4.551408  1.894160
  S     1.751693  7.802767  1.821062
  S     4.789247  4.737338 -0.955749
  S     4.773959  8.004620 -1.042346
  S     4.144267  5.005047  3.040250
  S     4.166890  8.654406  3.050407
