16  
    
  C    10.727076  8.448148  3.188791
  C    10.693624 11.940545  3.197232
  C     9.577801  7.823481  2.643164
  C     9.534339 11.419095  2.516843
  N    11.736711  8.616283  2.342915
  N    11.784995 11.988840  2.432764
  N     9.708660  7.523737  1.354674
  N     9.733854 11.303950  1.184005
  N     8.936036  8.209804  5.099715
  N     8.891338 11.747470  4.993583
  S     8.279802  7.506340  3.728288
  S     8.194757 11.096079  3.588629
  S    11.218576  7.987399  0.925527
  S    11.290435 11.561761  0.893316
  S    10.572840  8.769649  4.920869
  S    10.527883 12.042618  4.947106
