16  
    
  C     5.499825  5.531095  1.667263
  C     5.317800  8.877128  1.640423
  C     4.245098  5.019824  1.102138
  C     4.171766  8.414346  0.922751
  N     6.426452  5.737237  0.727169
  N     6.366525  9.177549  0.869699
  N     4.222908  5.039642 -0.234503
  N     4.360269  8.126942 -0.359472
  N     3.666426  5.224751  3.561151
  N     3.365831  8.739010  3.374358
  S     2.861325  5.032854  2.132577
  S     2.712175  8.346965  1.902505
  S     5.738960  5.440901 -0.765314
  S     5.958622  8.660435 -0.679320
  S     5.344518  5.678122  3.419802
  S     4.938921  9.221402  3.300532
