16  
    
  C     9.603022  7.339129  2.883180
  C     9.702422 10.929635  2.827348
  C     8.498454  6.890327  2.089044
  C     8.501285 10.546108  2.173376
  N    10.683199  7.652926  2.180375
  N    10.717039 11.224980  1.984491
  N     8.779274  6.833445  0.772564
  N     8.593333 10.428057  0.846148
  N     7.825652  6.797493  4.663657
  N     7.893470 10.755462  4.704274
  S     7.153688  6.428897  3.143802
  S     7.176269 10.222407  3.276009
  S    10.355279  7.424075  0.600805
  S    10.134365 10.925095  0.456819
  S     9.330042  7.522844  4.569304
  S     9.525252 11.125715  4.554335
