16  
    
  C    11.372920  8.514569  3.380972
  C    11.483602 12.418943  3.310376
  C    10.223336  7.876488  2.792340
  C    10.316842 11.811557  2.690387
  N    12.388253  8.670302  2.524276
  N    12.491538 12.576369  2.475263
  N    10.383639  7.644853  1.478561
  N    10.529191 11.314810  1.466060
  N     9.480571  8.564483  5.208959
  N     9.577041 12.348952  5.120399
  S     8.933453  7.719943  3.857332
  S     8.921456 11.582165  3.746453
  S    11.905875  8.088994  1.059522
  S    12.003595 11.923546  1.025687
  S    11.053109  9.144092  4.992503
  S    11.218173 12.723202  5.045142
