16  
    
  C     7.874774  6.299123  2.206048
  C     8.024768 10.260508  2.192029
  C     6.668143  5.858866  1.537883
  C     6.833532  9.801623  1.529791
  N     8.902737  6.524407  1.379142
  N     9.081974 10.389395  1.405037
  N     6.748254  5.838616  0.208870
  N     6.995905  9.620416  0.208746
  N     6.246172  5.897175  4.087954
  N     6.308458 10.104631  4.065799
  S     5.452795  5.459470  2.701115
  S     5.526376  9.648952  2.688495
  S     8.350744  6.315954 -0.139549
  S     8.573422 10.127614 -0.133146
  S     7.819459  6.240932  3.901527
  S     7.878103 10.550115  3.863922
