16  
    
  C    12.040956  8.531737  3.615968
  C    12.089852 11.958925  3.362926
  C    10.880941  8.119957  2.824956
  C    10.859107 11.551455  2.695871
  N    13.169625  8.729103  2.943339
  N    13.105870 12.263408  2.532431
  N    11.114404  8.069831  1.516663
  N    11.079878 11.338009  1.387026
  N    10.152016  8.356391  5.381797
  N    10.333359 11.976343  5.138161
  S     9.452145  7.979930  3.882816
  S     9.473269 11.444887  3.873558
  S    12.748139  8.445202  1.352994
  S    12.528833 11.946780  0.991167
  S    11.752508  8.734516  5.288021
  S    11.929028 12.395757  4.985570
