16  
    
  C     5.390982  5.555282  1.690764
  C     5.210728  8.966410  1.792037
  C     4.196409  5.337154  0.933351
  C     4.028715  8.596104  1.067216
  N     6.513338  5.703261  1.010311
  N     6.275670  9.116916  1.005808
  N     4.425597  5.110432 -0.357196
  N     4.183775  8.661973 -0.251960
  N     3.436063  5.288409  3.382758
  N     3.361777  8.644007  3.557640
  S     2.748778  5.072278  1.912307
  S     2.677622  8.169770  2.092925
  S     6.059545  5.325994 -0.595473
  S     5.792676  8.919957 -0.576082
  S     5.042081  5.737675  3.402825
  S     4.983287  8.864965  3.514783
