16  
    
  C    10.792272  8.249125  2.927359
  C    10.833528 11.976158  3.017273
  C     9.592040  7.819523  2.283437
  C     9.628155 11.564474  2.337787
  N    11.817870  8.493640  2.136337
  N    11.955302 11.989917  2.293249
  N     9.685682  7.676937  0.955231
  N     9.802007 11.227395  1.069890
  N     8.992865  8.122277  4.810324
  N     8.888099 11.828790  4.757943
  S     8.234272  7.666286  3.398658
  S     8.247200 11.167821  3.373331
  S    11.320803  7.993084  0.582178
  S    11.474613 11.518890  0.761040
  S    10.633816  8.354538  4.619403
  S    10.480691 12.153965  4.748016
