16  
    
  C    11.820340  8.562227  3.429433
  C    11.605180 12.008458  3.404025
  C    10.589004  8.260224  2.743975
  C    10.385106 11.619230  2.703359
  N    12.892630  8.690237  2.678215
  N    12.718798 12.077401  2.656996
  N    10.746591  8.129349  1.466173
  N    10.507218 11.593258  1.371031
  N     9.929476  8.428741  5.217484
  N     9.892320 11.616411  5.172534
  S     9.177852  8.265758  3.764742
  S     9.034409 11.365414  3.815201
  S    12.402831  8.383117  1.123689
  S    12.193588 11.821263  1.115362
  S    11.573863  8.761326  5.099213
  S    11.447948 11.941177  5.105198
