16  
    
  C    12.074934  8.665617  3.591527
  C    12.157939 12.087219  3.385596
  C    10.903286  8.238987  2.848443
  C    11.012940 11.619540  2.676521
  N    13.192101  8.733378  2.847123
  N    13.171615 12.263617  2.584433
  N    11.088888  8.065666  1.538625
  N    11.097273 11.502585  1.362470
  N    10.175096  8.331812  5.270098
  N    10.310668 11.910454  5.112729
  S     9.478155  8.016633  3.789365
  S     9.695418 11.300356  3.763465
  S    12.697090  8.391778  1.295871
  S    12.659293 11.819767  1.006874
  S    11.748800  8.728840  5.348728
  S    11.832842 12.512097  5.065525
