16  
    
  C     7.823024  6.546346  2.419339
  C     7.943507 10.423784  2.018712
  C     6.639314  6.102348  1.640838
  C     6.657313  9.888322  1.545327
  N     8.925188  6.673739  1.675443
  N     8.863757 10.579365  1.096865
  N     6.907057  5.855507  0.374130
  N     6.721900  9.540543  0.256872
  N     5.857717  6.301201  4.113444
  N     6.352627 10.356505  4.086348
  S     5.176861  5.917335  2.616921
  S     5.450186  9.865647  2.765666
  S     8.571206  6.239699  0.102137
  S     8.218194  9.957297 -0.327716
  S     7.503140  6.757682  4.121093
  S     7.986786 10.634331  3.766335
