16  
    
  C     4.427992  5.035635  1.687412
  C     4.212264  8.600863  1.613441
  C     3.203591  4.623198  1.058991
  C     3.069500  8.228040  0.810798
  N     5.517332  5.182927  0.946935
  N     5.198955  9.113299  0.871390
  N     3.391974  4.549388 -0.267067
  N     3.270612  8.218804 -0.503469
  N     2.756418  4.842832  3.624167
  N     2.293200  8.143283  3.261180
  S     1.862723  4.819619  2.254887
  S     1.668581  7.742039  1.772538
  S     5.004124  4.786273 -0.550674
  S     4.798362  8.872508 -0.702537
  S     4.326467  5.329768  3.426689
  S     3.846747  8.562080  3.333054
