16  
    
  C     9.129572  6.821553  2.567464
  C     9.705422 10.762840  2.769441
  C     7.927479  6.427082  1.837347
  C     8.457438 10.197924  2.193865
  N    10.199054  7.114779  1.829283
  N    10.632644 11.080511  1.879055
  N     8.178074  6.274661  0.542520
  N     8.578005 10.044743  0.876322
  N     7.357090  6.538096  4.420926
  N     8.085323 10.241352  4.786822
  S     6.652021  5.971743  3.032698
  S     7.311342  9.744687  3.414749
  S     9.728255  6.762120  0.285020
  S     9.981790 10.661029  0.371252
  S     9.012615  6.764154  4.270248
  S     9.586758 10.944976  4.491990
