16  
    
  C     4.556673  5.072309  1.612751
  C     4.344278  8.548202  1.487751
  C     3.309597  4.622114  1.031825
  C     3.152161  8.003119  0.918300
  N     5.558314  5.231144  0.756011
  N     5.360126  8.675346  0.655633
  N     3.341667  4.590388 -0.288044
  N     3.255750  7.654308 -0.355625
  N     2.828354  4.827010  3.522756
  N     2.607309  8.483629  3.406680
  S     1.987421  4.562223  2.106432
  S     1.801438  7.949468  1.993692
  S     4.900700  4.853574 -0.696019
  S     4.822407  8.082271 -0.755997
  S     4.324563  5.507157  3.302107
  S     4.219351  8.879152  3.162556
