16  
    
  C     7.710907  6.555552  2.416523
  C     7.790410 10.136878  2.208568
  C     6.398249  6.174771  1.867516
  C     6.540977  9.885594  1.528394
  N     8.657303  6.626365  1.472163
  N     8.839327 10.117199  1.387516
  N     6.448240  5.759556  0.608440
  N     6.677359  9.593148  0.245050
  N     5.973743  6.810433  4.323992
  N     5.886923  9.972567  3.989096
  S     5.078719  6.162798  2.993067
  S     5.133251  9.914607  2.490228
  S     8.018023  6.090701  0.023228
  S     8.317141  9.750926 -0.124923
  S     7.557697  7.027618  4.106449
  S     7.511388 10.227144  3.948576
