16  
    
  C     7.209662  6.007717  2.196250
  C     7.426080  9.713757  2.487729
  C     6.084431  5.576882  1.381717
  C     6.180863  9.442741  1.757702
  N     8.287567  6.257340  1.458568
  N     8.506777  9.715217  1.730372
  N     6.333327  5.317011  0.114346
  N     6.368314  9.275951  0.444625
  N     5.288608  5.672720  3.783537
  N     5.606082  9.483183  4.210335
  S     4.664028  5.149062  2.309653
  S     4.789249  9.487029  2.807522
  S     7.936816  5.756733 -0.114811
  S     7.949564  9.396440  0.142584
  S     6.858448  6.223216  3.879476
  S     7.217542  9.930353  4.212944
