16  
    
  C    11.367155  8.704014  3.275027
  C    11.488205 12.268175  3.342535
  C    10.229069  7.991081  2.750084
  C    10.367783 11.716671  2.626196
  N    12.421704  8.827637  2.478362
  N    12.494936 12.588860  2.512062
  N    10.412270  7.658971  1.500131
  N    10.533875 11.584536  1.315436
  N     9.663929  8.488760  5.190208
  N     9.577857 11.882342  5.158049
  S     8.932811  7.686355  3.895514
  S     8.966916 11.520005  3.602512
  S    11.873695  8.173118  1.045348
  S    12.073769 12.073927  1.002190
  S    11.128131  9.194822  4.946422
  S    11.082981 12.677900  4.996795
