16  
    
  C    11.381094  8.528998  3.370305
  C    11.496381 12.421801  3.314917
  C    10.249432  7.908149  2.781990
  C    10.330815 11.769403  2.714742
  N    12.386959  8.689091  2.525760
  N    12.535822 12.606076  2.498371
  N    10.353234  7.644830  1.505899
  N    10.530781 11.370583  1.469314
  N     9.483664  8.552108  5.198019
  N     9.586322 12.270321  5.085589
  S     8.935698  7.708650  3.868370
  S     8.925650 11.576827  3.729106
  S    11.907285  8.106817  1.045234
  S    12.014901 11.942532  0.997042
  S    11.064589  9.166830  4.988294
  S    11.175544 12.710258  5.039911
