16  
    
  C     7.826045  6.532104  2.417784
  C     7.940908 10.431548  2.019353
  C     6.637369  6.103577  1.628644
  C     6.653730  9.888790  1.537749
  N     8.924319  6.673932  1.675196
  N     8.864318 10.587105  1.106370
  N     6.912611  5.849749  0.368799
  N     6.731348  9.534755  0.252986
  N     5.853469  6.301174  4.110030
  N     6.359427 10.354307  4.090000
  S     5.179145  5.913667  2.621293
  S     5.451688  9.864952  2.771658
  S     8.571700  6.244964  0.100904
  S     8.217239  9.960530 -0.325585
  S     7.505099  6.752683  4.119448
  S     7.991614 10.636645  3.764198
