16  
    
  C    10.549694  7.642603  3.054081
  C    10.602387 11.769309  3.057492
  C     9.289520  7.293234  2.491050
  C     9.415036 11.057969  2.675148
  N    11.528041  7.863632  2.166784
  N    11.493292 12.013292  2.097144
  N     9.277660  7.263247  1.148078
  N     9.260247 10.929584  1.367883
  N     8.828791  7.388592  5.042836
  N     9.226665 11.443479  5.209509
  S     8.019014  6.990243  3.598023
  S     8.272298 10.888270  3.994448
  S    10.814226  7.812209  0.648156
  S    10.715385 11.500787  0.685505
  S    10.506990  7.685031  4.798935
  S    10.619369 12.282838  4.796331
