16  
    
  C    12.768734  9.272953  3.446675
  C    12.715612 12.861078  3.588987
  C    11.578364  8.754168  2.789396
  C    11.539650 12.234456  3.019979
  N    13.818806  9.446198  2.691231
  N    13.753417 13.061635  2.781188
  N    11.825829  8.407567  1.528838
  N    11.675761 12.137963  1.692838
  N    10.992096  9.248561  5.173002
  N    10.972248 12.673015  5.536397
  S    10.269331  8.609948  3.884810
  S    10.176390 12.318136  4.109116
  S    13.378686  8.999929  1.173953
  S    13.231666 12.601959  1.322956
  S    12.593522  9.596513  5.114281
  S    12.515459 13.189066  5.319829
