16  
    
  C     4.629924  5.040020  2.060779
  C     4.724045  8.778321  1.514251
  C     3.462037  4.820980  1.247899
  C     3.566153  8.158575  0.846273
  N     5.785680  5.157901  1.400046
  N     5.763482  9.039962  0.721679
  N     3.781285  4.538143 -0.031288
  N     3.662687  8.169933 -0.480775
  N     2.652633  4.928085  3.776663
  N     2.961300  8.355649  3.351551
  S     2.024596  4.527893  2.303433
  S     2.231685  7.836292  1.948208
  S     5.391070  4.885815 -0.191498
  S     5.222068  8.768730 -0.879750
  S     4.319004  5.135726  3.738501
  S     4.542485  8.783680  3.263696
