16  
    
  C    12.280239  9.151357  3.399545
  C    12.110097 12.468730  3.514366
  C    11.072978  8.696427  2.742792
  C    10.972548 12.093026  2.784090
  N    13.370548  9.276534  2.658662
  N    13.183065 12.723649  2.776311
  N    11.259199  8.374938  1.494379
  N    11.141463 12.038070  1.462482
  N    10.500143  8.921564  5.330959
  N    10.267262 12.410979  5.196457
  S     9.763703  8.322698  3.885565
  S     9.541583 11.973470  3.838992
  S    12.850394  8.783978  1.076350
  S    12.736515 12.373262  1.214887
  S    12.099543  9.345888  5.137389
  S    11.845770 12.880112  5.103084
