16  
    
  C     6.273111  5.704071  2.005472
  C     6.024855  9.129238  1.656359
  C     5.019819  5.490877  1.417285
  C     4.830478  8.704160  1.046309
  N     7.297279  5.756337  1.148392
  N     7.023739  9.278368  0.782805
  N     5.048382  5.160933  0.124821
  N     4.878476  8.607492 -0.282222
  N     4.553646  5.696512  3.980242
  N     4.330281  9.051800  3.647491
  S     3.796714  5.445990  2.593255
  S     3.518389  8.553531  2.202437
  S     6.629679  5.334611 -0.300754
  S     6.499440  8.923713 -0.701090
  S     6.175919  6.070719  3.728793
  S     5.939488  9.417541  3.354597
