16  
    
  C     6.779641  6.083894  2.363220
  C     7.260135  9.564425  2.079989
  C     5.734018  5.355112  1.671065
  C     5.947421  9.341693  1.478594
  N     7.713891  6.566964  1.574532
  N     8.289797  9.728244  1.273412
  N     5.934808  5.336030  0.367523
  N     6.090608  9.224537  0.162015
  N     5.105725  5.397397  4.175492
  N     5.581499  9.820651  3.969680
  S     4.426871  4.803627  2.706108
  S     4.635891  9.371938  2.620595
  S     7.324259  6.188472  0.011849
  S     7.690823  9.528723 -0.281708
  S     6.573355  6.213778  4.092716
  S     7.163230  9.764677  3.789950
