16  
    
  C     9.780762  7.541649  2.759748
  C     9.760137 11.137371  2.905073
  C     8.608288  7.114346  2.109887
  C     8.612877 10.676282  2.246880
  N    10.804709  7.789170  1.914903
  N    10.834589 11.403995  2.122869
  N     8.748379  6.895113  0.800952
  N     8.793545 10.476083  0.944231
  N     7.913510  7.096998  4.577272
  N     7.983317 10.707174  4.730832
  S     7.242508  6.828335  3.058102
  S     7.298053 10.197917  3.271427
  S    10.249413  7.407560  0.406190
  S    10.322742 10.961023  0.598859
  S     9.549842  7.642329  4.536094
  S     9.563228 11.286565  4.627561
