16  
    
  C     5.539876  5.515555  1.929423
  C     5.576887  8.935479  1.870351
  C     4.426209  4.732749  1.441698
  C     4.383521  8.458711  1.173169
  N     6.478797  5.790920  1.032196
  N     6.539489  9.277660  1.029775
  N     4.423375  4.575689  0.122628
  N     4.556987  8.232072 -0.125177
  N     4.108625  4.897003  3.992209
  N     3.750683  8.518191  3.662738
  S     3.183113  4.572081  2.683148
  S     3.008507  8.148935  2.139515
  S     5.890227  5.158856 -0.404409
  S     6.126736  8.784523 -0.499633
  S     5.561351  5.615122  3.626412
  S     5.333330  9.122111  3.569750
