16  
    
  C     5.580749  5.394177  1.929448
  C     5.518191  9.015676  1.798832
  C     4.335530  4.843392  1.411256
  C     4.411455  8.384115  1.150737
  N     6.449718  5.827009  1.023237
  N     6.576838  9.259551  1.014343
  N     4.360888  4.635708  0.103878
  N     4.583780  8.220486 -0.138884
  N     4.131470  4.982021  3.954112
  N     3.633561  8.642029  3.541869
  S     3.144895  4.624754  2.680413
  S     2.980029  8.147889  2.131142
  S     5.864309  5.206358 -0.410184
  S     6.089025  8.746218 -0.511212
  S     5.620649  5.569071  3.642391
  S     5.249976  9.096542  3.525693
