16  
    
  C    10.750772  8.302336  2.909034
  C    10.803618 12.004542  3.037717
  C     9.550645  7.846095  2.265059
  C     9.609947 11.473215  2.362154
  N    11.820049  8.490853  2.133388
  N    11.915511 11.985976  2.303441
  N     9.687793  7.636079  0.972388
  N     9.829414 11.265005  1.078343
  N     8.968657  8.119296  4.866976
  N     8.850011 11.820299  4.752718
  S     8.229717  7.676624  3.380192
  S     8.243532 11.210413  3.353309
  S    11.250790  8.004003  0.600861
  S    11.474921 11.491210  0.782316
  S    10.613980  8.383880  4.657383
  S    10.485931 12.130763  4.727000
