16  
    
  C     9.595307  7.645400  2.717532
  C    10.098995 11.189533  2.640630
  C     8.466627  6.944687  2.101287
  C     8.828354 10.850756  2.059994
  N    10.643491  7.777918  1.908945
  N    11.101927 11.311502  1.782915
  N     8.675666  6.482027  0.878105
  N     8.857558 10.745716  0.751541
  N     7.852120  7.204813  4.596641
  N     8.419304 11.007321  4.589579
  S     7.183369  6.637460  3.164428
  S     7.511935 10.768735  3.191107
  S    10.171146  7.060013  0.448093
  S    10.420912 11.067818  0.258368
  S     9.313144  8.059321  4.431486
  S     9.979706 11.524429  4.346068
