16  
    
  C    10.962567  8.079793  3.042514
  C    10.954320 11.627825  2.723900
  C     9.709114  7.446358  2.576795
  C     9.688825 11.221013  2.185649
  N    11.885643  8.270804  2.089160
  N    11.948341 11.911668  1.852310
  N     9.689469  7.142590  1.274044
  N     9.753530 11.024687  0.868202
  N     9.537101  7.559128  5.104495
  N     9.266203 11.329997  4.679673
  S     8.627332  7.063348  3.843034
  S     8.383197 10.964112  3.327395
  S    11.130347  7.705773  0.656933
  S    11.353658 11.440329  0.395068
  S    10.999831  8.252010  4.726353
  S    10.816494 11.788859  4.441030
