16  
    
  C     7.744112  6.533508  2.468837
  C     7.798787 10.041787  2.095655
  C     6.485018  6.178709  1.805669
  C     6.548387  9.875013  1.407710
  N     8.800641  6.685790  1.658221
  N     8.877320 10.022536  1.305863
  N     6.653162  5.824068  0.512539
  N     6.676243  9.791568  0.073786
  N     5.873670  6.802651  4.217508
  N     6.036072 10.145496  3.966667
  S     5.124065  6.150308  2.887877
  S     5.193349  9.951931  2.576345
  S     8.299078  6.159459  0.168884
  S     8.292116  9.790695 -0.242360
  S     7.486589  7.073081  4.070085
  S     7.666564 10.442712  3.738389
