16  
    
  C     5.115995  4.985298  1.667406
  C     4.950914  8.698585  1.781374
  C     3.717336  4.722646  1.271196
  C     3.652480  8.423863  1.264368
  N     5.955578  4.981139  0.622420
  N     5.950236  8.772594  0.892623
  N     3.538071  4.786165 -0.044711
  N     3.603821  8.079206 -0.029755
  N     3.595241  4.806437  3.827550
  N     3.353250  8.690254  3.848356
  S     2.519143  4.538043  2.489924
  S     2.431597  8.334920  2.508774
  S     5.005702  4.931253 -0.742106
  S     5.214335  8.354918 -0.557622
  S     5.222974  4.794193  3.449993
  S     4.925939  9.069248  3.468221
