16  
    
  C     8.368387  6.910974  2.354425
  C     8.885172 10.255691  2.752701
  C     7.269765  6.307476  1.636228
  C     7.641119  9.944325  2.103181
  N     9.504029  7.053765  1.699830
  N     9.936574 10.360389  1.902118
  N     7.538307  6.159468  0.340709
  N     7.736494  9.918400  0.775782
  N     6.666405  6.411197  4.194958
  N     7.121776 10.275722  4.635143
  S     5.940106  5.952786  2.733738
  S     6.275462  9.901153  3.262355
  S     9.189195  6.615127  0.168018
  S     9.325155 10.243038  0.420742
  S     8.206382  6.928627  4.058903
  S     8.763921 10.550331  4.463675
