16  
    
  C     5.637298  5.261950  1.938633
  C     5.712543  9.030061  1.994680
  C     4.551552  4.465257  1.356440
  C     4.505009  8.531072  1.405671
  N     6.661551  5.397852  1.088318
  N     6.631435  9.411588  1.097685
  N     4.697378  4.289422  0.037011
  N     4.543654  8.345257  0.078912
  N     3.943918  4.967830  3.825316
  N     3.987847  8.777195  3.957351
  S     3.238045  4.190604  2.520699
  S     3.315044  8.063621  2.582289
  S     6.147038  4.954523 -0.391968
  S     5.981199  9.004960 -0.375112
  S     5.499508  5.599295  3.661972
  S     5.575284  9.213057  3.717557
