16  
    
  C     4.556836  5.132816  1.624836
  C     4.362234  8.470033  1.505553
  C     3.329966  4.608313  1.039387
  C     3.163054  8.023023  0.905084
  N     5.569745  5.235234  0.736721
  N     5.384404  8.670450  0.685399
  N     3.342040  4.605554 -0.291087
  N     3.263704  7.627705 -0.362740
  N     2.814646  4.824943  3.514237
  N     2.584927  8.535942  3.383237
  S     2.006252  4.543468  2.101161
  S     1.834449  7.940025  1.999804
  S     4.867351  4.848904 -0.728226
  S     4.845282  8.062370 -0.771218
  S     4.323230  5.502180  3.349374
  S     4.227530  8.881948  3.154717
