16  
    
  C     6.614911  5.826804  1.924202
  C     6.611798  9.502539  1.865010
  C     5.239016  5.560633  1.406183
  C     5.385106  8.971922  1.245813
  N     7.584581  5.910013  1.008793
  N     7.614546  9.746333  1.024336
  N     5.313979  5.221154  0.129647
  N     5.481508  8.829796 -0.080206
  N     4.981216  5.718311  3.953528
  N     4.946631  9.046810  3.826808
  S     3.955762  5.400442  2.629513
  S     4.067338  8.858764  2.458873
  S     6.866787  5.448293 -0.428625
  S     7.015140  9.272956 -0.475176
  S     6.624941  6.043898  3.656820
  S     6.544455  9.687745  3.558945
