16  
    
  C     9.809338  7.687254  2.791171
  C    10.597656 11.489829  3.116545
  C     8.780538  7.054886  2.032017
  C     9.389602 11.171113  2.453612
  N    10.905254  8.046301  2.151583
  N    11.724494 11.581569  2.377839
  N     9.088570  6.952750  0.743499
  N     9.564265 10.974486  1.141173
  N     7.875243  7.260189  4.411167
  N     8.720644 11.390815  4.920079
  S     7.387575  6.624640  2.975335
  S     8.028903 10.935200  3.472274
  S    10.721885  7.517031  0.576544
  S    11.133935 11.239659  0.809901
  S     9.399698  7.961167  4.470606
  S    10.352199 11.820376  4.827231
