16  
    
  C     9.587961  7.646669  2.704680
  C    10.121181 11.189219  2.634653
  C     8.445461  6.937695  2.102681
  C     8.819926 10.862942  2.048497
  N    10.636927  7.783040  1.898410
  N    11.106011 11.316886  1.764921
  N     8.681677  6.474638  0.884445
  N     8.864934 10.745374  0.747656
  N     7.846190  7.208779  4.601175
  N     8.425088 10.999434  4.588642
  S     7.182221  6.632360  3.165821
  S     7.521468 10.763905  3.186453
  S    10.168360  7.051163  0.445477
  S    10.427457 11.068025  0.264545
  S     9.317535  8.054317  4.418668
  S     9.988705 11.538832  4.341803
