16  
    
  C     7.770633  6.643430  2.440721
  C     7.913195 10.175408  2.046993
  C     6.599937  6.261123  1.698059
  C     6.622164  9.898615  1.468078
  N     8.855273  6.711556  1.699662
  N     8.896862 10.141146  1.199661
  N     6.765847  5.855296  0.472757
  N     6.620816  9.674383  0.168459
  N     5.871864  6.448920  4.182463
  N     6.174192 10.348941  3.973931
  S     5.218427  6.068691  2.686547
  S     5.333803  9.896161  2.611743
  S     8.441501  6.139069  0.196363
  S     8.201761  9.887146 -0.325002
  S     7.448594  6.967626  4.132438
  S     7.833051 10.585297  3.742890
