16  
    
  C    11.905337  8.648756  3.349989
  C    11.687453 12.109386  3.189158
  C    10.670953  8.044667  2.889574
  C    10.469627 11.671821  2.575133
  N    12.847326  8.729084  2.441693
  N    12.628864 12.419342  2.317673
  N    10.697055  7.767774  1.597029
  N    10.451148 11.556139  1.237282
  N    10.361017  8.592854  5.396799
  N     9.961620 11.983910  4.992999
  S     9.480510  7.953275  4.107312
  S     9.199909 11.470794  3.691627
  S    12.152629  8.317013  0.975459
  S    12.061866 12.011049  0.825568
  S    11.895263  9.068468  5.087379
  S    11.528293 12.363722  4.934863
