16  
    
  C    10.821460  8.221853  2.940864
  C    10.829698 11.942881  3.039553
  C     9.588781  7.798624  2.289787
  C     9.641233 11.584551  2.322717
  N    11.824302  8.469093  2.105451
  N    11.951061 11.995689  2.290178
  N     9.714117  7.687236  0.948210
  N     9.830775 11.210753  1.040224
  N     9.021753  8.104658  4.754619
  N     8.898611 11.817223  4.774088
  S     8.242016  7.660433  3.411472
  S     8.257126 11.152017  3.381954
  S    11.355690  7.995703  0.584372
  S    11.456063 11.539095  0.748405
  S    10.652088  8.351364  4.616149
  S    10.493614 12.177577  4.761070
