16  
    
  C     9.908134  7.575551  2.948493
  C    10.556936 11.621509  3.017234
  C     8.803866  7.071252  2.159813
  C     9.374351 10.985751  2.544659
  N    10.967984  7.984125  2.237499
  N    11.538842 11.706561  2.147762
  N     9.037774  7.131337  0.858864
  N     9.427002 10.752875  1.259941
  N     7.936860  7.173731  4.647243
  N     8.967092 11.401473  5.033814
  S     7.365172  6.743454  3.056808
  S     8.099184 10.865827  3.721780
  S    10.561291  7.640072  0.665354
  S    10.924793 11.235820  0.702567
  S     9.548898  7.634715  4.705505
  S    10.502790 11.967430  4.742708
