16  
    
  C     9.954641  7.641118  2.999149
  C    10.593131 11.655226  3.030257
  C     8.837142  7.206538  2.233292
  C     9.375185 11.044636  2.539249
  N    10.995750  7.973376  2.265421
  N    11.509705 11.880651  2.080398
  N     9.003926  7.134038  0.936449
  N     9.342984 10.683183  1.253359
  N     8.100589  7.049283  4.646396
  N     9.033777 11.384777  5.081311
  S     7.425963  6.816513  3.203347
  S     8.137800 10.871626  3.773261
  S    10.595037  7.643365  0.687690
  S    10.850246 11.191180  0.683195
  S     9.650358  7.570020  4.666181
  S    10.538510 11.976458  4.725433
