16  
    
  C     7.810307  6.410882  2.363913
  C     7.877791 10.490667  2.037634
  C     6.666397  6.076687  1.579394
  C     6.684752  9.907744  1.501465
  N     8.924346  6.666708  1.679639
  N     8.874205 10.650242  1.157356
  N     6.976016  5.810957  0.283646
  N     6.775415  9.481378  0.229690
  N     5.862085  6.320593  4.086328
  N     6.435418 10.322800  4.104585
  S     5.224267  5.877942  2.648372
  S     5.468850  9.853885  2.831001
  S     8.538482  6.296564  0.104064
  S     8.231441 10.006843 -0.288952
  S     7.506368  6.692792  4.086874
  S     8.027733 10.668574  3.738370
