16  
    
  C    11.356119  8.710887  3.268939
  C    11.479619 12.250193  3.335665
  C    10.236144  7.999894  2.753626
  C    10.345627 11.727880  2.611486
  N    12.405192  8.839415  2.472548
  N    12.497220 12.579563  2.511728
  N    10.416487  7.660315  1.497186
  N    10.532220 11.585910  1.297779
  N     9.666659  8.478128  5.198352
  N     9.581582 11.860356  5.158820
  S     8.941039  7.690991  3.894769
  S     8.967277 11.510811  3.594140
  S    11.878417  8.177670  1.043277
  S    12.077938 12.089488  1.009205
  S    11.137833  9.192535  4.939736
  S    11.084156 12.676202  4.998475
