16  
    
  C     8.016404  6.306305  2.229468
  C     8.111840 10.134002  2.228991
  C     6.792024  5.941583  1.602819
  C     6.869977  9.810023  1.613379
  N     9.015715  6.562336  1.361705
  N     9.141280 10.242779  1.393075
  N     6.833133  5.879645  0.287665
  N     6.880845  9.726559  0.279026
  N     6.166754  5.978893  4.108673
  N     6.304838  9.980948  4.098420
  S     5.468160  5.505536  2.708476
  S     5.499571  9.578570  2.663732
  S     8.357818  6.263575 -0.177754
  S     8.463536 10.012847 -0.156054
  S     7.873905  6.278267  4.017127
  S     7.874450 10.538014  3.905472
