16  
    
  C    12.741597  9.133278  3.401275
  C    12.783732 12.685657  3.490563
  C    11.520028  8.652120  2.844512
  C    11.622625 12.250447  2.789315
  N    13.711051  9.106950  2.492991
  N    13.792111 13.077862  2.725717
  N    11.465786  8.464596  1.524691
  N    11.832055 12.091963  1.497936
  N    11.097984  8.930228  5.442022
  N    10.879028 12.461403  5.246952
  S    10.268653  8.451699  4.018445
  S    10.239005 12.031478  3.772633
  S    13.046757  8.818998  1.035952
  S    13.311655 12.671925  1.157276
  S    12.685464  9.463732  5.080695
  S    12.373919 13.108244  5.125401
