16  
    
  C     6.841187  5.725841  1.623552
  C     7.246854  9.961173  2.481405
  C     5.730930  5.031007  1.024503
  C     6.033860  9.512696  1.931012
  N     7.968947  5.762391  0.881781
  N     8.222522 10.173123  1.593204
  N     5.913557  4.704380 -0.251773
  N     6.045183  9.222792  0.617029
  N     4.923982  5.837639  3.292959
  N     5.633083  9.672465  4.481244
  S     4.311528  5.002312  1.961817
  S     4.760350  9.449930  3.065375
  S     7.482087  5.100847 -0.589297
  S     7.522081  9.572763  0.123198
  S     6.454175  6.340119  3.241389
  S     7.144971 10.290575  4.225633
