16  
    
  C     8.164383  6.437192  2.276677
  C     7.998778 10.154007  2.356896
  C     6.933954  5.960152  1.644983
  C     6.811366  9.596244  1.737882
  N     9.192095  6.579856  1.453073
  N     9.025723 10.374812  1.543499
  N     7.100326  5.754732  0.357859
  N     6.991138  9.344773  0.424233
  N     6.399962  6.292779  4.179001
  N     6.312216  9.894742  4.258049
  S     5.553146  5.883670  2.813830
  S     5.475248  9.420814  2.893597
  S     8.672304  6.137328 -0.064006
  S     8.517558  9.808970  0.053694
  S     7.996058  6.709233  4.005987
  S     7.922464 10.306713  4.050944
