16  
    
  C    11.982009  8.561953  3.269988
  C    11.943114 12.067604  3.173879
  C    10.668652  8.301950  2.687020
  C    10.602081 11.929150  2.560938
  N    12.938667  8.597064  2.379904
  N    12.984271 12.179022  2.329478
  N    10.713523  8.229907  1.353082
  N    10.688846 11.856398  1.215813
  N    10.437123  8.456192  5.245308
  N    10.377261 11.953650  5.135016
  S     9.450783  8.157501  3.933921
  S     9.391046 11.556058  3.876174
  S    12.266355  8.522781  0.910753
  S    12.388692 11.906996  0.834071
  S    12.027769  8.685698  4.952881
  S    11.931597 12.360190  4.882731
