16  
    
  C     3.535907  4.412144  1.503499
  C     3.529464  8.508971  1.290478
  C     2.355579  3.831422  0.868063
  C     2.359852  7.947340  0.707359
  N     4.508806  4.875693  0.711101
  N     4.541532  8.663936  0.440462
  N     2.577313  3.534765 -0.421742
  N     2.372157  7.961953 -0.633071
  N     2.028942  3.862302  3.531703
  N     1.924034  8.213492  3.266756
  S     1.154871  3.432141  2.110114
  S     1.116464  7.740925  1.872667
  S     4.091865  4.305356 -0.764140
  S     3.944662  8.413653 -1.070925
  S     3.466676  4.608490  3.204552
  S     3.483375  8.601222  3.059175
