16  
    
  C     6.687873  6.091878  2.377256
  C     7.048298  9.742474  2.304439
  C     5.607072  5.256252  1.849432
  C     5.752896  9.419630  1.649466
  N     7.569928  6.493921  1.450610
  N     8.020746  9.998205  1.432488
  N     5.528302  5.219576  0.501852
  N     5.847672  9.307634  0.340489
  N     5.238095  5.401345  4.414877
  N     5.300175  9.555516  4.182939
  S     4.500910  4.758816  3.140393
  S     4.434397  9.311264  2.773349
  S     6.887135  6.019828  0.008476
  S     7.454807  9.637279 -0.060069
  S     6.730398  6.108348  4.075437
  S     6.945407  9.866977  4.040101
