16  
    
  C    10.972930  7.915810  3.045771
  C    10.960503 11.752146  2.732411
  C     9.744625  7.374204  2.597952
  C     9.771808 11.171025  2.143074
  N    11.844041  8.212246  2.068945
  N    11.971552 11.826489  1.874858
  N     9.697984  7.241375  1.286550
  N     9.850149 10.955621  0.837970
  N     9.516640  7.528576  5.092567
  N     9.321858 11.213979  4.697138
  S     8.526948  7.078881  3.820493
  S     8.420485 11.014060  3.262308
  S    11.144480  7.703831  0.693661
  S    11.328120 11.428293  0.390445
  S    11.003918  8.131109  4.776824
  S    10.883345 11.899748  4.459078
