16  
    
  C     6.565334  5.861334  1.908936
  C     6.584163  9.615008  1.862435
  C     5.300354  5.493405  1.375380
  C     5.342070  9.144264  1.279641
  N     7.560911  5.840929  1.029222
  N     7.576800  9.676519  0.970124
  N     5.305550  5.265795  0.066713
  N     5.445047  8.861449 -0.007961
  N     4.989468  5.760528  3.934646
  N     4.999192  9.156348  3.902930
  S     4.070249  5.439481  2.605831
  S     4.082424  8.906155  2.471838
  S     6.864046  5.471613 -0.428017
  S     7.019185  9.261110 -0.503335
  S     6.581561  6.000844  3.610379
  S     6.561350  9.701482  3.636894
