16  
    
  C     5.519117  5.275661  1.805126
  C     5.180426  8.972327  1.677060
  C     4.157741  5.224086  1.287997
  C     4.006167  8.455477  0.993286
  N     6.465257  5.351071  0.888251
  N     6.259658  9.033522  0.902968
  N     4.152100  5.014787 -0.031386
  N     4.132073  8.374361 -0.335535
  N     3.998625  5.147478  3.857881
  N     3.396598  8.632986  3.493716
  S     2.998464  5.109308  2.574784
  S     2.648035  8.214298  2.092235
  S     5.707331  5.255233 -0.564619
  S     5.762852  8.686696 -0.655863
  S     5.582927  5.410702  3.517942
  S     4.923335  9.259118  3.440486
