16  
    
  C     9.135398  7.129351  2.540640
  C     8.825004 11.106587  2.310577
  C     7.898101  6.634257  2.024898
  C     7.716399 10.432316  1.738127
  N    10.108141  7.327910  1.662011
  N     9.836011 11.403460  1.506042
  N     7.923832  6.222895  0.760046
  N     7.874596 10.133459  0.437502
  N     7.518806  7.028874  4.550726
  N     7.214377 10.520248  4.231752
  S     6.740268  6.298933  3.272598
  S     6.414613 10.155725  2.830579
  S     9.462521  6.632454  0.213436
  S     9.300197 10.748821  0.004602
  S     9.122048  7.386810  4.298192
  S     8.703453 11.301404  4.071653
