16  
    
  C     8.795426  7.346390  2.458544
  C     9.185635 10.795863  2.197546
  C     7.684682  6.874807  1.719219
  C     7.921462 10.583423  1.577270
  N     9.815875  7.615595  1.654978
  N    10.168491 10.773366  1.326072
  N     7.763110  6.982353  0.404560
  N     7.898840 10.541074  0.241234
  N     7.054272  6.678495  4.181720
  N     7.404720 10.707844  4.101567
  S     6.405742  6.273279  2.666525
  S     6.589277 10.424316  2.666067
  S     9.303378  7.398431  0.126978
  S     9.562904 10.633031 -0.160168
  S     8.628175  7.119963  4.193211
  S     9.070543 10.842452  3.937217
