16  
    
  C    12.769017  9.224534  3.431739
  C    12.711112 12.884476  3.593416
  C    11.571320  8.744294  2.783064
  C    11.551987 12.242841  3.006034
  N    13.810377  9.474060  2.697112
  N    13.756481 13.073752  2.775685
  N    11.835503  8.399487  1.541427
  N    11.678510 12.125013  1.676963
  N    10.981448  9.274329  5.193252
  N    10.964255 12.665551  5.508768
  S    10.246518  8.617415  3.885047
  S    10.145255 12.291270  4.097147
  S    13.377693  9.003688  1.144432
  S    13.245230 12.610663  1.322638
  S    12.595088  9.577024  5.115457
  S    12.512660 13.198537  5.341909
