16  
    
  C     6.878415  5.628029  1.780446
  C     7.221596 10.023811  2.456678
  C     5.757783  5.110961  1.076028
  C     6.030141  9.480826  1.929080
  N     7.985870  5.767132  1.032423
  N     8.192001 10.138382  1.559494
  N     6.028823  4.723681 -0.165880
  N     6.016433  9.256111  0.606265
  N     4.726101  5.980859  3.267469
  N     5.584297  9.709882  4.425344
  S     4.267441  5.069237  1.967547
  S     4.666916  9.369202  3.067419
  S     7.601997  5.127602 -0.443892
  S     7.614997  9.686219  0.121748
  S     6.413266  6.219046  3.291834
  S     7.166316 10.256477  4.165386
