16  
    
  C    10.683452  8.338108  3.099539
  C    10.787448 11.780263  3.129659
  C     9.485835  7.758671  2.506279
  C     9.628544 11.333071  2.432727
  N    11.687744  8.552531  2.250831
  N    11.902935 11.971115  2.407702
  N     9.626118  7.552028  1.202311
  N     9.841428 11.101769  1.154103
  N     9.038596  7.999400  5.001535
  N     8.811048 11.723035  4.912820
  S     8.209719  7.668728  3.659638
  S     8.165140 11.313312  3.413876
  S    11.205954  8.050191  0.780553
  S    11.382255 11.575813  0.845838
  S    10.502208  8.742410  4.759060
  S    10.424483 12.066001  4.823645
