16  
    
  C    11.949178  8.444515  3.312831
  C    11.583199 11.954669  3.519258
  C    10.667974  8.270265  2.651431
  C    10.448024 11.422912  2.866663
  N    13.017276  8.598126  2.470818
  N    12.516046 12.380159  2.677787
  N    10.786742  8.212472  1.307684
  N    10.515836 11.354234  1.561426
  N    10.043614  8.227310  5.169272
  N     9.725747 11.682048  5.337353
  S     9.281705  8.199505  3.704355
  S     9.071618 11.231409  3.855216
  S    12.334318  8.460106  0.949081
  S    11.973406 11.946411  1.167289
  S    11.706134  8.509142  5.031802
  S    11.379715 12.052778  5.261831
