16  
    
  C     6.835875  5.708775  1.837634
  C     7.185718  9.979065  2.421214
  C     5.746802  5.133783  1.048906
  C     5.910904  9.536421  1.806574
  N     8.007524  5.744610  1.222509
  N     8.221598 10.158452  1.630291
  N     6.110821  4.756563 -0.175305
  N     6.116559  9.267514  0.519607
  N     4.767815  6.073535  3.251522
  N     5.540041  9.799091  4.372954
  S     4.194626  5.113377  1.976500
  S     4.666709  9.316611  3.051473
  S     7.734463  5.159860 -0.333573
  S     7.613103  9.738316  0.089982
  S     6.385329  6.176926  3.497893
  S     7.151586 10.188470  4.148105
