16  
    
  C     9.074246  6.929915  2.305467
  C     9.037430 11.093129  2.779067
  C     7.859582  6.573523  1.613356
  C     7.830213 10.608557  2.134792
  N    10.158862  7.015457  1.555210
  N    10.043817 11.289968  1.940169
  N     8.071867  6.392469  0.297563
  N     7.958149 10.380989  0.826916
  N     7.363284  6.785645  4.240190
  N     7.354540 10.813509  4.701998
  S     6.565517  6.465485  2.835308
  S     6.579479 10.272743  3.346261
  S     9.690835  6.623245  0.047101
  S     9.572237 10.732440  0.471706
  S     8.962898  7.188880  4.031983
  S     8.884639 11.332057  4.514083
