16  
    
  C    12.328543  8.904209  3.702363
  C    12.462078 12.675705  3.405481
  C    11.126659  8.393950  3.091977
  C    11.203619 12.245176  2.799601
  N    13.328650  8.969618  2.823840
  N    13.455963 12.992220  2.597294
  N    11.278431  8.086363  1.776097
  N    11.393733 11.954241  1.526255
  N    10.681574  8.991549  5.500784
  N    10.787006 12.710958  5.354225
  S     9.781794  8.590438  4.241892
  S     9.947903 12.091199  4.020909
  S    12.801901  8.505031  1.356947
  S    12.944869 12.520934  1.082299
  S    12.281173  9.411912  5.331455
  S    12.393319 12.886838  5.121984
