16  
    
  C     4.549851  5.059331  1.668492
  C     4.109061  8.745498  1.650478
  C     3.256942  4.835752  1.039826
  C     3.032678  8.290161  0.801560
  N     5.528648  5.008768  0.758947
  N     5.191038  9.144235  0.995405
  N     3.259732  4.588388 -0.268029
  N     3.305743  8.330010 -0.507615
  N     2.702435  5.027579  3.511592
  N     2.227840  8.061977  3.217729
  S     1.902569  4.616267  2.083974
  S     1.655725  7.691241  1.690978
  S     4.778436  4.826204 -0.725108
  S     4.870564  8.914133 -0.601205
  S     4.383036  5.257784  3.455086
  S     3.785897  8.435340  3.325168
