16  
    
  C    10.937238  7.997876  3.063715
  C    11.603909 11.730710  3.122451
  C     9.729092  7.540089  2.452053
  C    10.463910 11.085728  2.480435
  N    12.023902  8.022782  2.310221
  N    12.656692 12.001747  2.354988
  N     9.821576  7.228050  1.174503
  N    10.641257 11.040511  1.175999
  N     9.208754  7.988555  4.912115
  N     9.666455 11.565358  4.876889
  S     8.477376  7.249736  3.676695
  S     9.000222 11.003196  3.432788
  S    11.413319  7.607539  0.775019
  S    12.226616 11.524732  0.843892
  S    10.803965  8.306721  4.791928
  S    11.261526 12.102207  4.760703
