16  
    
  C     9.568692  7.236602  2.997930
  C     9.566124 10.904616  2.625680
  C     8.487820  6.681051  2.250597
  C     8.371331 10.442443  2.055761
  N    10.582302  7.684476  2.241680
  N    10.577171 11.139707  1.821517
  N     8.636010  6.644112  0.941042
  N     8.403348 10.358353  0.728173
  N     7.668575  6.535838  4.698459
  N     7.912643 10.530690  4.620383
  S     7.152733  6.098188  3.157703
  S     7.075447 10.194676  3.213302
  S    10.123661  7.287122  0.656716
  S     9.982706 10.803184  0.294661
  S     9.238294  7.176311  4.761945
  S     9.501660 10.951589  4.427015
