16  
    
  C     7.708170  6.720363  2.406190
  C     7.816969 10.110028  2.040520
  C     6.562577  6.142867  1.746031
  C     6.546467  9.896511  1.428172
  N     8.836609  6.644083  1.685179
  N     8.867861 10.003907  1.209360
  N     6.813608  5.880193  0.440091
  N     6.611515  9.710293  0.110203
  N     5.870763  6.602316  4.247463
  N     6.154036 10.288542  3.973729
  S     5.109339  6.107939  2.789247
  S     5.245579  9.917495  2.610773
  S     8.410490  6.142559  0.160473
  S     8.298439  9.872941 -0.283606
  S     7.483327  7.033681  4.141429
  S     7.769490 10.539835  3.720151
