16  
    
  C    11.027228  8.052372  3.114919
  C    11.525947 11.786070  3.174365
  C     9.807911  7.430155  2.609263
  C    10.381385 11.357219  2.414975
  N    11.938048  8.253694  2.166936
  N    12.627025 11.705267  2.433621
  N     9.809396  7.141835  1.304611
  N    10.553333 11.165059  1.114406
  N     9.395044  8.043894  5.039046
  N     9.609783 11.453416  4.882554
  S     8.615680  7.336551  3.848426
  S     8.967106 11.186565  3.378456
  S    11.300256  7.608201  0.766717
  S    12.193679 11.467443  0.893858
  S    10.978612  8.457026  4.794894
  S    11.203272 11.940142  4.897998
