16  
    
  C     9.321593  6.740648  2.406867
  C     9.197894 10.699067  2.924654
  C     8.121933  6.293763  1.782072
  C     7.964155 10.487987  2.247727
  N    10.388156  6.650395  1.609616
  N    10.276348 10.529305  2.139144
  N     8.224653  5.904763  0.514701
  N     8.064583 10.057236  1.011919
  N     7.360375  6.897498  4.159756
  N     7.406876 10.793111  4.737791
  S     6.702581  6.283297  2.745575
  S     6.601389 10.724495  3.318175
  S     9.859195  6.009338  0.122880
  S     9.740118  9.992931  0.660508
  S     8.975532  7.222372  4.132399
  S     9.036603 11.104580  4.637332
