16  
    
  C     7.574453  6.588067  2.315596
  C     7.660419 10.049646  2.278851
  C     6.285595  6.162749  1.817577
  C     6.499479  9.708303  1.531683
  N     8.536070  6.668598  1.429453
  N     8.784951 10.165603  1.606977
  N     6.276482  5.767911  0.556466
  N     6.743966  9.554292  0.239074
  N     6.128105  6.536737  4.370145
  N     5.867985 10.045434  4.035376
  S     5.088691  6.150602  3.068667
  S     5.073296  9.728851  2.613038
  S     7.897625  6.039847  0.040690
  S     8.362365  9.813616  0.025284
  S     7.659989  6.855365  4.007201
  S     7.508373 10.207718  3.985238
