16  
    
  C    12.689066  9.130289  3.561420
  C    12.756929 12.654758  3.475816
  C    11.432519  8.606907  3.056867
  C    11.567114 12.179565  2.838158
  N    13.613019  9.440030  2.665485
  N    13.780830 12.881440  2.675291
  N    11.556129  8.262486  1.791875
  N    11.656172 12.183120  1.522049
  N    11.221938  8.793195  5.615897
  N    11.141890 12.326020  5.360126
  S    10.265547  8.278539  4.370084
  S    10.269606 11.877549  3.999975
  S    12.988850  8.891272  1.267431
  S    13.232108 12.451732  1.111815
  S    12.812289  9.220661  5.333466
  S    12.725879 12.734898  5.195151
