16  
    
  C    10.903907  8.128518  3.229583
  C    10.663723 12.019783  3.197255
  C     9.701398  7.590086  2.648014
  C     9.508527 11.234895  2.725165
  N    11.857802  8.376100  2.366220
  N    11.577755 12.342715  2.293130
  N     9.744053  7.437872  1.342430
  N     9.579794 11.043904  1.423211
  N     9.204450  7.716454  5.216625
  N     9.098070 11.642840  5.236947
  S     8.432983  7.330621  3.724744
  S     8.302908 11.022435  3.947135
  S    11.305261  7.855524  0.894217
  S    10.909101 11.774625  0.846623
  S    10.767881  8.319714  4.955160
  S    10.652708 12.068290  4.946188
