16  
    
  C     6.886999  5.990391  2.249484
  C     7.262613  9.809037  2.197415
  C     5.826706  5.457343  1.435718
  C     6.030658  9.483235  1.594311
  N     8.058340  6.217301  1.667242
  N     8.301556  9.888763  1.378076
  N     6.187577  5.307857  0.175676
  N     6.085558  9.347446  0.270897
  N     4.810762  5.620795  3.823725
  N     5.523745  9.372552  4.101216
  S     4.304815  5.104849  2.241387
  S     4.612732  9.379670  2.631206
  S     7.780702  5.746061  0.068167
  S     7.715152  9.609426 -0.137193
  S     6.397565  6.126007  3.942447
  S     7.086182  9.960028  3.948834
