16  
    
  C    11.319982  8.076214  3.317598
  C    11.351971 11.804115  3.299916
  C    10.104621  7.769058  2.662914
  C    10.027009 11.630809  2.760018
  N    12.421618  8.098184  2.537388
  N    12.313633 11.779585  2.388950
  N    10.151100  7.650416  1.315233
  N    10.009243 11.279940  1.490306
  N     9.408461  8.378798  5.110267
  N     9.772570 12.210437  5.294744
  S     8.726924  7.681183  3.762257
  S     8.876647 11.740549  3.957017
  S    11.815485  7.786397  0.984951
  S    11.589252 11.458141  0.918507
  S    11.120357  8.498624  4.984817
  S    11.437193 12.128176  5.012463
