16  
    
  C    10.938081  7.884178  3.112158
  C    11.532774 11.854856  3.076315
  C     9.793761  7.496111  2.418702
  C    10.385101 11.262450  2.385014
  N    11.982460  8.006897  2.314567
  N    12.582778 12.039667  2.284365
  N     9.932317  7.369361  1.114236
  N    10.644147 10.850170  1.143123
  N     9.042958  7.926079  4.890117
  N     9.745520 11.558168  4.881666
  S     8.393934  7.315560  3.488968
  S     9.133233 10.931446  3.495919
  S    11.536310  7.579281  0.828965
  S    12.107977 11.469816  0.798418
  S    10.757788  8.182575  4.809280
  S    11.289328 12.190840  4.813212
