16  
    
  C    12.726860  8.907477  3.578865
  C    12.335915 12.844444  3.846669
  C    11.520304  8.420240  3.015450
  C    11.205741 12.256060  3.192018
  N    13.746591  8.966924  2.694272
  N    13.341171 13.179642  3.045150
  N    11.490432  8.309928  1.661917
  N    11.384748 12.068921  1.902109
  N    10.913331  8.611350  5.577133
  N    10.466316 12.515368  5.575005
  S    10.114939  8.194130  4.075594
  S     9.950864 11.739811  4.201667
  S    13.016867  8.703103  1.208513
  S    12.872942 12.571360  1.533158
  S    12.490807  9.122454  5.303336
  S    12.076181 13.144884  5.576063
