16  
    
  C     5.820436  5.615871  2.165769
  C     5.904732  9.096680  1.759118
  C     4.543219  5.410608  1.499308
  C     4.686263  8.929588  1.025095
  N     6.876570  5.481185  1.364085
  N     7.016455  9.064654  1.022367
  N     4.678922  5.356960  0.178752
  N     4.880783  8.684159 -0.269533
  N     4.043161  5.888602  3.960480
  N     4.004601  9.270681  3.499190
  S     3.155655  5.595083  2.615372
  S     3.304799  8.785252  2.068986
  S     6.324945  5.271198 -0.188168
  S     6.485264  8.779450 -0.536930
  S     5.751900  5.832902  3.900981
  S     5.633043  9.427772  3.464875
