16  
    
  C    12.187383  9.217380  3.562495
  C    12.481629 12.822812  3.487680
  C    11.206839  8.435734  2.857699
  C    11.231743 12.346895  2.929824
  N    13.199537  9.684399  2.835190
  N    13.438779 12.983620  2.595398
  N    11.493614  8.437076  1.545245
  N    11.268508 12.072195  1.620922
  N    10.645075  8.389321  5.436882
  N    10.848988 12.638377  5.505110
  S     9.927499  7.910735  3.916074
  S     9.930697 12.201640  4.176364
  S    12.952546  9.184321  1.286943
  S    12.839911 12.557755  1.123027
  S    12.110243  9.201802  5.294119
  S    12.527706 12.939604  5.199900
