16  
    
  C     5.090557  5.319574  1.918153
  C     5.098260  8.754880  1.459102
  C     3.803738  5.023117  1.291401
  C     3.830712  8.293986  0.886856
  N     6.102626  5.325138  1.067084
  N     6.123534  8.753208  0.600198
  N     3.918537  4.568715  0.038346
  N     3.884060  8.108310 -0.440547
  N     3.339248  5.799301  3.725766
  N     3.408936  8.778164  3.387297
  S     2.531804  5.214684  2.459629
  S     2.505596  8.343076  2.038587
  S     5.530552  4.650039 -0.305811
  S     5.452497  8.384886 -0.901315
  S     4.986294  5.747530  3.611244
  S     5.039595  8.963352  3.209469
