16  
    
  C    12.336300  8.940891  3.553032
  C    12.439849 12.719716  3.418450
  C    11.098025  8.500909  3.007338
  C    11.298386 12.104526  2.821139
  N    13.406453  9.029366  2.737463
  N    13.450335 12.805705  2.565367
  N    11.154845  8.224776  1.692759
  N    11.368651 11.898520  1.507027
  N    10.686915  9.148418  5.595213
  N    10.696441 12.614237  5.320477
  S     9.806837  8.651213  4.188167
  S     9.896417 12.025242  3.951322
  S    12.826502  8.474129  1.283693
  S    12.847898 12.473425  1.056909
  S    12.288466  9.457529  5.213432
  S    12.390613 13.053437  5.127801
