16  
    
  C     8.020178  6.583053  2.551406
  C     8.526400 10.290989  2.374177
  C     6.871547  6.067024  1.858565
  C     7.241585  9.846395  1.901356
  N     9.108282  6.718529  1.805821
  N     9.489774 10.360987  1.457883
  N     7.076953  5.977173  0.550771
  N     7.289031  9.554750  0.613478
  N     6.240067  6.314722  4.329480
  N     6.918001 10.421561  4.346039
  S     5.498447  5.976009  2.898995
  S     6.027110  9.731871  3.102627
  S     8.660349  6.434964  0.303163
  S     8.814282  9.882270  0.054762
  S     7.789190  6.774261  4.224423
  S     8.564552 10.489942  4.100872
