16  
    
  C    12.488725  9.141022  3.446393
  C    12.338203 12.826282  3.478840
  C    11.374327  8.555395  2.704836
  C    11.133110 12.126506  3.023205
  N    13.486199  9.429260  2.611490
  N    13.271977 13.074562  2.545404
  N    11.473248  8.431359  1.379788
  N    11.195176 11.883323  1.731012
  N    10.628845  8.428865  5.202582
  N    10.715758 12.396384  5.543344
  S     9.995492  8.212699  3.622443
  S     9.877090 11.870073  4.142662
  S    13.072241  8.942034  1.055859
  S    12.571457 12.600358  1.124811
  S    12.284429  9.101683  5.186122
  S    12.162967 13.102284  5.250906
