16  
    
  C    10.481173  7.430459  2.657133
  C    10.401599 11.313121  2.659759
  C     9.138731  7.396422  2.078918
  C     9.117976 11.135578  2.018092
  N    11.480533  7.349293  1.777842
  N    11.456497 11.331595  1.808449
  N     9.151247  7.294766  0.764627
  N     9.280006 10.770534  0.734660
  N     8.825648  7.758908  4.582796
  N     8.579972 11.281404  4.500570
  S     7.862363  7.467379  3.243358
  S     7.760555 11.233358  3.062860
  S    10.704413  7.193620  0.310118
  S    10.864841 10.940610  0.348465
  S    10.490504  7.606891  4.442223
  S    10.241425 11.496225  4.410742
