16  
    
  C     6.595759  5.848122  2.083764
  C     6.185456  9.197563  1.867079
  C     5.449095  5.254231  1.455767
  C     4.985017  8.820482  1.209639
  N     7.642534  6.019297  1.276395
  N     7.218504  9.425687  1.078125
  N     5.587489  5.078148  0.146957
  N     5.147670  8.649284 -0.103596
  N     4.670494  5.706493  3.832798
  N     4.342369  9.017470  3.654081
  S     3.977283  5.099068  2.449767
  S     3.626340  8.526452  2.277939
  S     7.083861  5.616928 -0.264548
  S     6.768892  9.017564 -0.432049
  S     6.297528  6.047917  3.824531
  S     5.943288  9.316814  3.579119
