16  
    
  C     8.604116  6.652089  2.360282
  C     8.247869 10.380594  2.661165
  C     7.296737  6.247169  1.784572
  C     7.175465  9.749242  1.870132
  N     9.514803  6.817003  1.387012
  N     9.362695 10.538907  1.936499
  N     7.375888  5.931954  0.484310
  N     7.515336  9.419574  0.624538
  N     6.833218  6.403243  4.275599
  N     6.278056  9.790951  4.265498
  S     6.039712  5.916808  2.908111
  S     5.784763  9.237222  2.758098
  S     8.844821  6.344379 -0.057363
  S     9.026770  9.910630  0.395416
  S     8.472569  6.985272  4.074385
  S     7.771595 10.548486  4.319527
