16  
    
  C     5.368647  5.437444  1.740745
  C     5.102357  8.913152  1.714803
  C     4.153702  5.091105  1.097118
  C     3.867879  8.547472  1.063833
  N     6.489625  5.424221  1.002015
  N     6.055053  9.287779  0.855282
  N     4.272435  4.969685 -0.235904
  N     4.026232  8.357015 -0.256382
  N     3.556838  5.403629  3.644462
  N     3.363031  8.689834  3.617594
  S     2.800866  5.236400  2.198003
  S     2.541163  8.333107  2.177221
  S     5.884880  5.282816 -0.550509
  S     5.536650  8.867625 -0.679793
  S     5.267157  5.511246  3.452097
  S     5.019009  8.886546  3.484791
