16  
    
  C     9.811120  7.601182  2.633569
  C     9.820924 11.267062  2.914092
  C     8.582634  7.189635  2.025672
  C     8.751436 10.611088  2.269373
  N    10.830826  7.845957  1.842790
  N    10.864057 11.523824  2.145323
  N     8.700560  7.079032  0.720128
  N     8.899476 10.451019  0.953613
  N     8.117586  7.342583  4.579698
  N     8.083922 10.635771  4.754930
  S     7.261337  7.061814  3.181377
  S     7.364878 10.315831  3.306787
  S    10.300725  7.456284  0.319922
  S    10.454042 11.038042  0.634339
  S     9.720435  7.678988  4.364345
  S     9.538409 11.410010  4.695232
