16  
    
  C     7.568031  6.549239  2.332812
  C     7.679303 10.045889  2.352456
  C     6.271154  6.210234  1.836129
  C     6.505826  9.714820  1.586569
  N     8.497164  6.652234  1.385611
  N     8.759893 10.116106  1.579928
  N     6.272814  5.755226  0.571212
  N     6.714527  9.521564  0.274701
  N     6.127843  6.460917  4.349230
  N     5.866276 10.047582  4.055841
  S     5.071434  6.123868  3.069098
  S     5.088488  9.659276  2.612020
  S     7.869886  6.043165  0.004677
  S     8.371350  9.847593  0.051251
  S     7.704828  6.826524  4.024002
  S     7.494767 10.228959  4.020841
