16  
    
  C     7.191662  6.048451  2.145736
  C     7.421077  9.695426  2.525963
  C     6.060108  5.555178  1.393438
  C     6.188752  9.462607  1.798662
  N     8.250545  6.251482  1.378221
  N     8.446162  9.734853  1.679166
  N     6.331393  5.339437  0.110478
  N     6.277960  9.265274  0.495967
  N     5.283541  5.708456  3.775155
  N     5.592129  9.494223  4.252831
  S     4.688242  5.105148  2.308735
  S     4.790376  9.522776  2.785358
  S     7.895797  5.701332 -0.158571
  S     7.913566  9.367317  0.161346
  S     6.814285  6.252195  3.879060
  S     7.164230  9.958419  4.228366
