16  
    
  C     7.630893  6.277535  2.275025
  C     7.752025 10.046046  2.477286
  C     6.325881  5.858268  1.737277
  C     6.574609  9.585793  1.707981
  N     8.555674  6.456220  1.356858
  N     8.800026 10.263133  1.705943
  N     6.309806  5.817418  0.410415
  N     6.739811  9.472094  0.405113
  N     6.029850  6.386790  4.295646
  N     5.931868  9.685030  4.266853
  S     5.095784  5.827873  2.970874
  S     5.215644  9.308850  2.809949
  S     7.804929  6.199576 -0.107317
  S     8.313608  9.902544  0.141011
  S     7.698849  6.587138  3.979629
  S     7.518970 10.317192  4.155152
