16  
    
  C     3.590265  4.962030  1.558324
  C     3.908618  8.188648  1.679105
  C     2.428391  4.355096  0.955815
  C     2.625749  8.011684  1.124911
  N     4.630269  5.041390  0.703594
  N     4.918858  8.365201  0.798337
  N     2.487338  4.181041 -0.357802
  N     2.645904  7.796963 -0.201034
  N     1.946378  4.319254  3.451308
  N     2.153735  8.194165  3.644290
  S     1.134159  3.973423  2.023439
  S     1.294516  7.858481  2.263091
  S     4.066894  4.614061 -0.829585
  S     4.217546  8.084316 -0.712502
  S     3.489627  4.764988  3.335960
  S     3.740887  8.573601  3.421079
