16  
    
  C    12.099363  8.516720  3.624855
  C    11.998777 12.165216  3.264547
  C    10.917413  8.111773  2.935818
  C    10.768325 11.744457  2.686685
  N    13.162735  8.747138  2.848955
  N    12.945994 12.388455  2.369092
  N    11.025856  7.981674  1.595014
  N    10.812836 11.447363  1.398790
  N    10.175797  8.339668  5.415505
  N    10.218880 11.978965  5.232056
  S     9.478844  7.907834  3.884985
  S     9.504944 11.554011  3.787734
  S    12.587936  8.387000  1.270915
  S    12.297154 11.819630  0.915909
  S    11.786140  8.802698  5.315307
  S    11.903338 12.217399  5.053913
