16  
    
  C     6.761880  6.133312  2.359224
  C     7.279049  9.615584  2.140275
  C     5.677708  5.411061  1.711896
  C     5.995136  9.337902  1.498580
  N     7.674288  6.646685  1.539136
  N     8.286039  9.664325  1.283735
  N     5.796166  5.281387  0.396419
  N     6.034428  9.253856  0.167969
  N     5.223905  5.190914  4.272903
  N     5.447880  9.661398  4.040115
  S     4.561357  4.809087  2.849814
  S     4.697734  9.431677  2.590480
  S     7.143850  6.181541  0.039568
  S     7.583647  9.518864 -0.259906
  S     6.570068  6.234717  4.104007
  S     7.155150  9.791740  3.877038
