16  
    
  C    12.858842  9.204279  3.417684
  C    12.815057 13.032509  3.460002
  C    11.673238  8.643729  2.806899
  C    11.570374 12.511815  2.924112
  N    13.886710  9.460869  2.647889
  N    13.865103 12.900375  2.686493
  N    11.933585  8.336634  1.540288
  N    11.694111 12.216079  1.625060
  N    11.085046  9.103722  5.231438
  N    11.126029 13.118366  5.386310
  S    10.322917  8.461751  3.892017
  S    10.294028 12.488061  4.098469
  S    13.452106  8.883295  1.187934
  S    13.304580 12.401505  1.204623
  S    12.636683  9.672022  5.112254
  S    12.791912 13.288394  5.184677
