16  
    
  C     3.978302  4.670074  1.687757
  C     3.953434  8.512333  1.554574
  C     2.717438  4.502846  0.987608
  C     2.810548  7.956127  0.889794
  N     5.050977  4.698352  0.903198
  N     5.056806  8.469187  0.830761
  N     2.887310  4.178387 -0.296761
  N     2.967205  7.729894 -0.424859
  N     2.274016  4.840336  3.583750
  N     2.029158  8.346685  3.359944
  S     1.462777  4.351984  2.265477
  S     1.399050  7.888399  1.905050
  S     4.577228  4.342129 -0.643256
  S     4.584997  8.042043 -0.718153
  S     3.980512  4.975221  3.356228
  S     3.685553  8.681499  3.277689
