16  
    
  C     5.736416  5.675174  1.810606
  C     5.908589  8.975329  2.134995
  C     4.498127  5.253725  1.171110
  C     4.677505  8.717606  1.427351
  N     6.821154  5.499687  1.049690
  N     6.952972  9.063997  1.341364
  N     4.634914  4.941342 -0.121945
  N     4.780743  8.520556  0.113430
  N     4.035959  5.576739  3.672016
  N     4.120158  8.796425  3.897192
  S     3.199296  5.150523  2.288795
  S     3.333045  8.534084  2.515777
  S     6.260411  5.016225 -0.434825
  S     6.460462  8.700296 -0.200146
  S     5.652783  5.706927  3.542529
  S     5.761157  9.050204  3.837567
