16  
    
  C    12.236040  9.058023  3.764710
  C    12.594726 12.732560  3.589180
  C    11.080095  8.427229  3.151509
  C    11.359270 12.396969  2.879075
  N    13.327454  9.219924  2.986242
  N    13.615485 12.866282  2.762397
  N    11.307859  8.196319  1.850235
  N    11.440985 12.457185  1.557775
  N    10.548424  8.785772  5.698623
  N    10.903203 12.292031  5.477594
  S     9.870215  8.079237  4.344742
  S    10.049100 12.292701  4.027177
  S    12.848927  8.706350  1.505063
  S    13.024943 12.698303  1.186247
  S    12.238233  9.235747  5.455769
  S    12.403205 12.943491  5.236168
