16  
    
  C    11.046451  8.373226  2.911144
  C    10.818756 11.912535  3.011183
  C     9.856289  7.657595  2.376068
  C     9.630704 11.349742  2.422684
  N    12.022698  8.602338  2.069283
  N    11.830844 12.136536  2.204921
  N     9.999466  7.308311  1.110567
  N     9.721026 11.200213  1.130075
  N     9.490762  7.934793  4.880380
  N     9.087899 11.449226  4.933304
  S     8.699331  7.319026  3.598886
  S     8.347551 10.922261  3.482677
  S    11.457406  7.909447  0.595307
  S    11.314626 11.590918  0.699566
  S    10.988683  8.557650  4.637265
  S    10.667017 11.942554  4.722145
