16  
    
  C     6.882524  5.882596  2.201255
  C     7.175713  9.750100  2.251904
  C     5.839862  5.440486  1.339426
  C     5.961076  9.451165  1.587364
  N     8.072314  6.042077  1.659670
  N     8.248067  9.985687  1.523212
  N     6.241747  5.233585  0.096394
  N     6.134134  9.380070  0.266360
  N     4.768116  5.572122  3.671398
  N     5.504984  9.376761  4.109957
  S     4.334740  5.257735  2.164125
  S     4.647655  9.387713  2.763840
  S     7.860395  5.592868  0.084743
  S     7.719262  9.678621 -0.056254
  S     6.326525  6.145269  3.824880
  S     7.068869 10.028849  3.984487
