16  
    
  C    12.785196  8.964937  3.838518
  C    12.546418 12.720489  3.978547
  C    11.520718  8.481789  3.226565
  C    11.426384 12.126283  3.231761
  N    13.708011  9.228641  2.925629
  N    13.570085 13.044165  3.220703
  N    11.616316  8.174156  1.947416
  N    11.656940 12.012278  1.930876
  N    11.023313  8.519962  5.658681
  N    10.678991 12.280660  5.660195
  S    10.181644  8.142826  4.298920
  S     9.985147 11.896659  4.152510
  S    13.112162  8.732733  1.398103
  S    13.212107 12.588576  1.701445
  S    12.559078  9.023746  5.562408
  S    12.227653 12.947551  5.692294
