16  
    
  C    12.417353  9.105905  3.374422
  C    12.303755 12.839474  3.327768
  C    11.136363  8.727501  2.876063
  C    11.144300 12.198076  2.736164
  N    13.361280  9.147331  2.432279
  N    13.386732 12.771760  2.588092
  N    11.172114  8.401047  1.582599
  N    11.327245 11.823192  1.458672
  N    10.733983  9.241839  5.409187
  N    10.614917 12.502692  5.276381
  S     9.929190  8.649008  4.045695
  S     9.781513 11.976026  3.902717
  S    12.696570  8.587320  1.051850
  S    12.946821 12.233285  1.101764
  S    12.426205  9.571895  5.085346
  S    12.113228 13.205530  5.077548
