16  
    
  C     6.014883  5.648615  2.116098
  C     6.032928  9.141121  1.595144
  C     4.700946  5.381329  1.524114
  C     4.796175  8.705358  0.921955
  N     7.047871  5.539460  1.278031
  N     7.021412  9.363009  0.733622
  N     4.742022  5.284359  0.194292
  N     4.935940  8.451526 -0.378351
  N     4.399497  5.831194  4.065357
  N     4.222607  9.124956  3.399867
  S     3.511686  5.730540  2.684967
  S     3.438291  8.717905  2.076860
  S     6.380776  5.335437 -0.219090
  S     6.495383  8.839471 -0.788845
  S     5.998691  5.869832  3.822659
  S     5.862234  9.478051  3.284509
