16  
    
  C    12.683240  8.782329  3.554592
  C    12.232390 13.045792  3.753337
  C    11.436805  8.426383  2.935463
  C    11.155053 12.290785  3.121354
  N    13.635293  9.082132  2.670939
  N    13.277226 13.134091  2.923098
  N    11.459409  8.323255  1.601984
  N    11.273303 11.985451  1.824099
  N    10.860742  8.691968  5.354373
  N    10.521190 12.561808  5.595518
  S    10.171167  8.240037  3.997448
  S     9.961787 11.727339  4.228600
  S    12.997449  8.744858  1.143049
  S    12.806851 12.598312  1.463269
  S    12.462384  9.108545  5.262240
  S    12.028715 13.103824  5.466708
