16  
    
  C     7.380096  5.962746  2.231368
  C     7.785268  9.678156  2.289547
  C     6.154185  5.657032  1.499767
  C     6.532017  9.351607  1.664978
  N     8.437921  6.234295  1.452020
  N     8.807338  9.834362  1.477617
  N     6.289085  5.461365  0.189531
  N     6.590739  9.240773  0.341923
  N     5.492465  5.610775  3.945630
  N     6.025891  9.652324  4.169256
  S     4.830264  5.204625  2.547318
  S     5.189732  9.279145  2.851294
  S     7.879975  5.927992 -0.106706
  S     8.106169  9.632596 -0.089366
  S     7.091939  6.037819  3.899817
  S     7.671448  9.777269  4.010397
