16  
    
  C     8.001108  6.613056  2.633214
  C     8.572049 10.354333  2.535384
  C     6.835491  6.144076  1.944957
  C     7.335047  9.949100  1.947470
  N     9.072368  6.764034  1.850054
  N     9.577311 10.348941  1.652974
  N     7.066289  5.935802  0.655582
  N     7.400544  9.657563  0.670357
  N     6.129726  6.232282  4.370354
  N     6.911148 10.300594  4.525373
  S     5.389470  5.908136  2.883795
  S     6.094114  9.746179  3.175134
  S     8.655962  6.348144  0.341636
  S     8.989536  9.906027  0.191090
  S     7.668572  6.827184  4.387241
  S     8.509591 10.664471  4.246209
