16  
    
  C     6.635030  5.706743  1.924819
  C     6.650555  9.584370  1.913966
  C     5.346852  5.473147  1.338044
  C     5.390961  9.190452  1.350112
  N     7.595351  5.836603  1.013680
  N     7.644513  9.703596  1.030390
  N     5.304241  5.313810  0.017223
  N     5.371571  8.969849  0.046428
  N     4.990834  5.851043  3.905783
  N     4.977236  9.257175  3.875573
  S     4.070881  5.441955  2.524906
  S     4.161116  8.967853  2.527638
  S     6.899676  5.511660 -0.466979
  S     6.897775  9.236650 -0.427540
  S     6.612132  5.985460  3.661466
  S     6.567478  9.746860  3.650067
