16  
    
  C     3.787664  4.678292  1.595347
  C     3.779579  8.432981  1.678715
  C     2.514887  4.507370  0.982065
  C     2.620930  7.897422  1.055495
  N     4.771849  4.673621  0.726070
  N     4.832830  8.488487  0.891564
  N     2.474502  4.478285 -0.332597
  N     2.761741  7.444888 -0.163974
  N     1.939334  4.735278  3.422143
  N     1.960167  8.407061  3.502605
  S     1.194071  4.425104  1.993352
  S     1.234742  7.927043  2.129269
  S     4.089565  4.472871 -0.813353
  S     4.348073  7.837106 -0.560589
  S     3.597399  4.904181  3.364824
  S     3.577754  8.785432  3.380774
