16  
    
  C    11.976958  8.599560  3.224040
  C    11.982234 12.128090  3.207596
  C    10.664552  8.317604  2.684737
  C    10.753309 11.749191  2.593990
  N    13.001154  8.618604  2.398202
  N    13.010732 12.199298  2.378092
  N    10.659626  8.201609  1.352989
  N    10.822236 11.754451  1.254730
  N    10.408366  8.464949  5.241390
  N    10.334743 11.940606  5.139226
  S     9.496556  8.127787  3.957049
  S     9.442737 11.547913  3.744786
  S    12.281164  8.447890  0.878015
  S    12.416843 11.895930  0.847088
  S    12.035959  8.677260  4.985585
  S    11.950292 12.393707  4.909090
