16  
    
  C     9.575848  7.523878  2.607789
  C    10.265794 11.396875  2.521124
  C     8.493565  6.740178  2.031961
  C     8.996598 10.979263  1.925412
  N    10.497612  7.778642  1.707308
  N    11.222188 11.545763  1.624415
  N     8.710108  6.314334  0.778506
  N     9.070481 10.672933  0.626630
  N     7.836190  7.516935  4.470293
  N     8.560440 11.135987  4.526115
  S     7.222410  6.539997  3.222425
  S     7.726369 10.735003  3.159206
  S    10.139213  7.022170  0.302042
  S    10.629741 11.055392  0.208713
  S     9.460745  7.915034  4.265177
  S    10.160702 11.584506  4.261506
