16  
    
  C    10.346850  7.624303  2.625037
  C    10.492086 11.350991  2.812980
  C     9.047702  7.346752  1.983033
  C     9.265355 11.350541  2.012560
  N    11.335075  7.579324  1.729669
  N    11.582910 11.257540  2.017250
  N     9.099833  7.151965  0.650882
  N     9.452854 11.111400  0.682556
  N     8.642288  7.748598  4.528558
  N     8.569831 11.271616  4.488469
  S     7.799913  7.216296  3.219015
  S     7.839208 11.443232  3.041479
  S    10.685961  7.213562  0.270759
  S    11.105086 11.091910  0.493517
  S    10.275104  7.936523  4.334335
  S    10.242275 11.636705  4.488026
