16  
    
  C     3.717535  4.691966  1.591943
  C     3.798192  8.462518  1.716595
  C     2.457065  4.642624  0.945332
  C     2.623286  7.794531  1.083950
  N     4.820411  4.582255  0.839312
  N     4.905356  8.484536  0.960410
  N     2.643824  4.259299 -0.321417
  N     2.826780  7.546036 -0.233159
  N     2.090871  4.821432  3.573296
  N     1.901929  8.341571  3.482092
  S     1.146918  4.538902  2.174183
  S     1.180226  7.899368  2.033170
  S     4.266303  4.293130 -0.687686
  S     4.426271  7.884414 -0.550816
  S     3.739496  4.910560  3.249721
  S     3.526726  8.841799  3.364204
