16  
    
  C     6.922191  5.807144  2.094941
  C     7.291835  9.913584  2.423691
  C     5.844819  5.360455  1.232108
  C     6.021188  9.521342  1.765810
  N     8.112831  5.850240  1.506821
  N     8.261195 10.137295  1.557765
  N     6.208338  5.036973  0.004378
  N     6.107093  9.378752  0.456003
  N     4.688322  5.850675  3.438228
  N     5.410581  9.723728  4.204911
  S     4.271503  5.264300  1.966212
  S     4.658081  9.293547  2.850640
  S     7.830567  5.283028 -0.049043
  S     7.603680  9.743734  0.006547
  S     6.311488  6.113714  3.679771
  S     7.095137 10.073086  4.147058
