16  
    
  C     3.603259  4.609469  1.598224
  C     3.848811  8.301930  1.703012
  C     2.455800  3.960214  0.967793
  C     2.562115  8.018861  1.036972
  N     4.558012  4.964450  0.762515
  N     4.810566  8.582175  0.849354
  N     2.431661  4.078507 -0.346056
  N     2.663960  7.810170 -0.279998
  N     1.929133  4.328725  3.456460
  N     2.166208  8.000582  3.574529
  S     1.202246  3.684069  2.086553
  S     1.294258  7.870831  2.154818
  S     3.982125  4.648706 -0.755068
  S     4.237757  8.239508 -0.650990
  S     3.480454  4.796543  3.320661
  S     3.764036  8.391429  3.399630
