16  
    
  C     5.513877  5.273851  1.815808
  C     5.195843  8.966409  1.681941
  C     4.149104  5.226677  1.287464
  C     4.013001  8.438529  0.987303
  N     6.459520  5.338460  0.881810
  N     6.284545  9.016513  0.909134
  N     4.149065  5.014637 -0.032617
  N     4.161787  8.370777 -0.345757
  N     4.016292  5.142163  3.837613
  N     3.405198  8.638420  3.499669
  S     3.002973  5.092664  2.596990
  S     2.667047  8.209057  2.086758
  S     5.710909  5.264701 -0.553636
  S     5.765966  8.687206 -0.651609
  S     5.601946  5.418142  3.525328
  S     4.912437  9.270040  3.436623
