16  
    
  C    11.324030  8.073313  3.322683
  C    11.351575 11.814024  3.295338
  C    10.104651  7.766106  2.660093
  C    10.026535 11.642187  2.757853
  N    12.419440  8.101061  2.542125
  N    12.308762 11.779349  2.382892
  N    10.157321  7.652435  1.310863
  N    10.006600 11.276010  1.490412
  N     9.406217  8.382130  5.111399
  N     9.781011 12.214377  5.292159
  S     8.731118  7.684269  3.761355
  S     8.875268 11.742838  3.966098
  S    11.818527  7.788907  0.989623
  S    11.588642 11.458087  0.921694
  S    11.119819  8.500396  4.986336
  S    11.437467 12.136107  5.015405
