16  
    
  C    11.376126  8.309310  3.360807
  C    11.421130 12.018857  3.321245
  C    10.161388  7.853777  2.702249
  C    10.097820 11.723677  2.865409
  N    12.501011  8.308823  2.605134
  N    12.333125 12.021000  2.349570
  N    10.327298  7.523622  1.422952
  N    10.012890 11.397809  1.583781
  N     9.418044  8.325702  5.114822
  N     9.866036 12.078771  5.442008
  S     8.715590  7.794159  3.689704
  S     8.880729 11.834066  4.077759
  S    11.934240  7.857476  1.073380
  S    11.565002 11.398882  0.996510
  S    11.126786  8.615915  5.054258
  S    11.449013 12.561456  4.933380
