16  
    
  C     9.226667  6.872871  2.350665
  C     9.114332 10.928366  2.969519
  C     8.026878  6.308508  1.824452
  C     7.938910 10.373279  2.429566
  N    10.269663  6.802078  1.516721
  N    10.096248 11.111804  2.106988
  N     8.065909  5.998764  0.537495
  N     7.963490 10.150616  1.125344
  N     7.361592  7.005803  4.199947
  N     7.365090 10.847122  4.869845
  S     6.700487  6.308613  2.863047
  S     6.570333 10.449628  3.485918
  S     9.671676  6.205846  0.065683
  S     9.541177 10.587323  0.621030
  S     8.997492  7.275544  4.083654
  S     8.944159 11.334376  4.682753
