16  
    
  C     5.746617  5.161481  1.914519
  C     5.669539  9.200247  2.021153
  C     4.626986  4.499781  1.296303
  C     4.520081  8.484409  1.442150
  N     6.766743  5.391843  1.089800
  N     6.545059  9.582447  1.124210
  N     4.792269  4.289195 -0.005696
  N     4.619107  8.277672  0.130465
  N     3.980209  4.709408  3.702711
  N     4.155088  8.730956  3.975252
  S     3.255927  4.315569  2.323423
  S     3.276309  8.203202  2.629089
  S     6.304082  4.770830 -0.362482
  S     6.078874  9.019301 -0.336140
  S     5.452287  5.418405  3.616244
  S     5.630830  9.417979  3.740419
