16  
    
  C     4.933063  4.766312  1.653433
  C     4.776517  8.798065  1.727025
  C     3.576749  4.503331  1.187390
  C     3.521775  8.395621  1.256389
  N     5.832379  4.922793  0.688924
  N     5.662915  9.061225  0.761596
  N     3.481446  4.565269 -0.127462
  N     3.424498  8.293417 -0.067413
  N     3.465824  4.525766  3.812062
  N     3.212686  8.639223  3.857689
  S     2.405346  4.433840  2.495982
  S     2.297974  8.281765  2.510627
  S     5.057117  4.778096 -0.756318
  S     4.896013  8.785569 -0.652593
  S     5.090700  4.843184  3.377901
  S     4.806344  8.903050  3.503355
