16  
    
  C    10.906208  8.192652  3.266809
  C    10.749207 11.859738  3.275540
  C     9.702911  7.586785  2.655794
  C     9.555858 11.302456  2.723841
  N    11.877770  8.474509  2.425936
  N    11.583254 12.260602  2.330476
  N     9.856610  7.393484  1.350349
  N     9.565116 11.058292  1.421658
  N     9.229872  7.764171  5.115649
  N     9.098151 11.505482  5.229594
  S     8.366165  7.433011  3.804684
  S     8.255080 11.050109  3.853347
  S    11.332629  7.928457  0.951752
  S    10.983019 11.789835  0.865197
  S    10.705176  8.493809  4.958000
  S    10.643045 12.136953  4.981220
