16  
    
  C    10.973335  8.039341  3.094533
  C    11.627549 11.662021  3.135920
  C     9.748278  7.525094  2.526468
  C    10.476980 11.121823  2.458743
  N    11.986471  8.036423  2.224155
  N    12.688956 11.964058  2.361788
  N     9.855594  7.223940  1.226402
  N    10.670231 11.076146  1.134978
  N     9.195164  8.000493  4.960883
  N     9.612111 11.549354  4.910000
  S     8.482212  7.234725  3.739573
  S     8.959298 11.037760  3.413020
  S    11.376204  7.607089  0.755232
  S    12.236723 11.531841  0.859343
  S    10.853980  8.352903  4.769841
  S    11.249681 12.075014  4.781491
