16  
    
  C     8.005336  6.497727  2.644300
  C     8.551464 10.331276  2.443177
  C     6.805664  6.140641  1.867214
  C     7.265312  9.914345  1.923366
  N     9.062029  6.791229  1.894488
  N     9.550574 10.414428  1.576157
  N     7.044975  5.918961  0.573295
  N     7.339581  9.665951  0.588588
  N     6.113901  6.245422  4.389665
  N     6.921373 10.370417  4.478064
  S     5.396154  5.938572  2.913256
  S     6.062995  9.720057  3.178723
  S     8.678703  6.375899  0.322164
  S     8.955605  9.861649  0.172935
  S     7.717866  6.831281  4.307351
  S     8.542963 10.595961  4.181863
