16  
    
  C     6.670777  5.905277  2.181732
  C     6.736114  9.766878  2.270576
  C     5.423280  5.452287  1.605800
  C     5.476082  9.350054  1.708591
  N     7.652114  5.951154  1.287494
  N     7.711089  9.930875  1.396531
  N     5.395437  5.381954  0.256590
  N     5.504084  9.085507  0.392556
  N     5.140205  5.548931  4.190612
  N     5.135655  9.354812  4.305852
  S     4.191614  5.231310  2.823842
  S     4.270836  9.115607  2.945749
  S     6.977624  5.674043 -0.203831
  S     7.005480  9.477869 -0.108371
  S     6.689721  5.984513  3.932415
  S     6.707547  9.877672  4.006189
