16  
    
  C     5.168656  5.373327  1.991715
  C     5.109370  8.629677  1.598931
  C     3.878029  4.965934  1.415420
  C     3.851028  8.481717  0.924649
  N     6.205749  5.079668  1.218793
  N     6.165388  8.656700  0.780477
  N     3.953800  4.579679  0.146766
  N     4.024983  8.207373 -0.372264
  N     3.257056  5.674954  3.808897
  N     3.322962  8.571622  3.445347
  S     2.460754  5.158912  2.349987
  S     2.515577  8.380902  2.007615
  S     5.535496  4.663003 -0.300809
  S     5.597670  8.332777 -0.703801
  S     4.947462  5.712628  3.695700
  S     4.969480  8.891104  3.265186
