16  
    
  C     5.803384  5.537639  2.102214
  C     5.870478  8.923558  1.981999
  C     4.550751  5.201410  1.416413
  C     4.651473  8.678826  1.221127
  N     6.826041  5.479490  1.254283
  N     6.903168  9.131562  1.176316
  N     4.668784  5.096428  0.101539
  N     4.845815  8.494823 -0.091319
  N     3.959774  5.581075  3.835145
  N     4.023339  9.084514  3.736161
  S     3.195090  5.531946  2.414246
  S     3.262854  8.788583  2.261668
  S     6.260405  5.241301 -0.277884
  S     6.455748  8.793794 -0.355434
  S     5.632711  5.904837  3.813347
  S     5.638392  9.226357  3.667623
