16  
    
  C    10.741342  8.302384  3.033452
  C    10.759098 11.800260  3.104916
  C     9.519310  7.772601  2.421101
  C     9.631199 11.328815  2.376194
  N    11.747191  8.555406  2.188288
  N    11.846531 11.951437  2.377333
  N     9.619315  7.583492  1.113823
  N     9.830378 11.061896  1.103319
  N     9.036842  7.931070  4.957656
  N     8.844194 11.703599  4.785873
  S     8.157681  7.711092  3.492128
  S     8.143743 11.349486  3.358261
  S    11.147562  8.033415  0.675241
  S    11.479750 11.573974  0.807031
  S    10.546081  8.651366  4.731526
  S    10.451879 12.106179  4.794365
