16  
    
  C     7.198679  6.027226  2.172131
  C     7.431176  9.702454  2.529629
  C     6.067110  5.573730  1.388909
  C     6.186482  9.454808  1.776822
  N     8.252781  6.256370  1.402034
  N     8.454719  9.730329  1.697912
  N     6.334136  5.332802  0.114867
  N     6.308733  9.271030  0.480456
  N     5.299486  5.701183  3.774729
  N     5.606653  9.488846  4.236058
  S     4.678160  5.115812  2.304171
  S     4.788547  9.512619  2.790170
  S     7.909454  5.715598 -0.147874
  S     7.921958  9.373311  0.154097
  S     6.826018  6.244519  3.884125
  S     7.177564  9.950338  4.225852
