16  
    
  C    12.247464  9.258910  3.556865
  C    12.454132 12.715407  3.455101
  C    11.230335  8.525795  2.782495
  C    11.151800 12.330828  2.932296
  N    13.212042  9.723623  2.792288
  N    13.443487 12.937210  2.586649
  N    11.420296  8.414928  1.469789
  N    11.274874 11.991611  1.650668
  N    10.644219  8.380068  5.290332
  N    10.911080 12.574422  5.499954
  S     9.953850  7.917169  3.882461
  S     9.959258 12.188164  4.165901
  S    12.981229  9.203861  1.234381
  S    12.761785 12.549683  1.152069
  S    12.069371  9.185259  5.309002
  S    12.495351 12.995508  5.168963
