16  
    
  C     7.568462  6.567183  2.323659
  C     7.658439 10.048447  2.311287
  C     6.281944  6.190171  1.826090
  C     6.509920  9.710759  1.548918
  N     8.516806  6.666095  1.415668
  N     8.770031 10.145776  1.598036
  N     6.267173  5.759115  0.562367
  N     6.732641  9.541235  0.251851
  N     6.142430  6.509659  4.362228
  N     5.874465 10.048294  4.041787
  S     5.080099  6.140323  3.066704
  S     5.076386  9.702539  2.612930
  S     7.889983  6.040358  0.027541
  S     8.367392  9.826789  0.035703
  S     7.675232  6.844251  4.013154
  S     7.503171 10.214728  3.997314
