16  
    
  C     6.176949  5.585776  2.099237
  C     6.077522  9.237980  1.604193
  C     4.836687  5.492368  1.510217
  C     4.857341  8.697656  1.045331
  N     7.156765  5.622380  1.181500
  N     7.043195  9.309900  0.680097
  N     4.884426  5.173464  0.217001
  N     4.898553  8.478467 -0.252566
  N     4.410061  5.873057  4.009586
  N     4.264773  9.301171  3.454401
  S     3.518475  5.640831  2.657305
  S     3.496326  8.577498  2.057647
  S     6.433636  5.342674 -0.276475
  S     6.427576  8.884586 -0.759277
  S     6.145616  5.911464  3.770281
  S     5.909480  9.404136  3.291998
