16  
    
  C    11.815992  8.566110  3.179741
  C    11.386018 12.277096  3.442901
  C    10.560189  8.285034  2.568906
  C    10.214032 11.717699  2.763743
  N    12.803881  8.826392  2.308908
  N    12.440142 12.443319  2.649119
  N    10.551827  8.283987  1.221209
  N    10.419819 11.512287  1.491640
  N    10.223541  7.989072  5.167732
  N     9.594832 11.589757  5.233208
  S     9.360207  7.827577  3.731375
  S     8.915505 11.170525  3.769390
  S    12.117464  8.587608  0.821058
  S    11.886683 12.043392  1.070624
  S    11.841497  8.525323  4.980581
  S    11.125533 12.292737  5.184822
