16  
    
  C    12.414916  9.075284  3.492233
  C    12.505583 12.608253  3.420072
  C    11.153527  8.723091  2.955683
  C    11.276899 12.111421  2.866232
  N    13.402976  9.013552  2.602810
  N    13.477605 12.844114  2.514856
  N    11.212606  8.324795  1.715337
  N    11.275276 11.927988  1.558500
  N    10.672710  9.222624  5.441371
  N    10.721489 12.516648  5.275434
  S     9.865640  8.660317  4.146745
  S     9.972139 12.008844  3.903539
  S    12.735329  8.472623  1.193625
  S    12.807940 12.351113  1.058232
  S    12.296163  9.486528  5.172352
  S    12.198409 13.138651  5.096748
