16  
    
  C     9.003403  7.231618  2.556302
  C     8.804385 11.139508  2.329738
  C     7.818629  6.574512  2.048620
  C     7.674610 10.478031  1.746005
  N     9.973258  7.298179  1.652953
  N     9.761456 11.445839  1.471428
  N     7.961708  6.199635  0.773878
  N     7.846913 10.159034  0.435624
  N     7.497288  7.008588  4.654518
  N     7.187183 10.657026  4.266049
  S     6.653921  6.300388  3.413266
  S     6.414180 10.116019  2.874837
  S     9.477559  6.655396  0.265031
  S     9.350889 10.899492  0.018240
  S     9.078816  7.433708  4.271859
  S     8.702825 11.237132  4.034537
