16  
    
  C     7.312204  5.881313  2.220407
  C     7.633383  9.597807  2.422477
  C     6.141232  5.495295  1.436626
  C     6.367114  9.317525  1.692941
  N     8.374147  6.259205  1.510826
  N     8.670519  9.753167  1.615085
  N     6.371685  5.371633  0.131265
  N     6.490485  9.323258  0.358476
  N     5.300455  5.663123  3.870111
  N     5.755200  9.722349  4.146988
  S     4.695458  5.271402  2.406596
  S     5.004260  9.310130  2.778067
  S     7.981246  5.910213 -0.102695
  S     8.057596  9.554097  0.028191
  S     6.969120  6.050734  3.982519
  S     7.430575  9.784877  4.143529
