16  
    
  C    11.330630  8.495761  3.329088
  C    11.433798 12.259505  3.322810
  C    10.170569  7.874907  2.681464
  C    10.184206 11.736243  2.852482
  N    12.405358  8.628439  2.570380
  N    12.413827 12.149808  2.432060
  N    10.351502  7.490058  1.443286
  N    10.206405 11.254064  1.609572
  N     9.485127  8.304317  5.148465
  N     9.833425 12.161161  5.408849
  S     8.806836  7.847131  3.736418
  S     8.894717 11.819604  4.021578
  S    11.985120  7.869317  1.127603
  S    11.707072 11.568816  0.968397
  S    11.093341  8.786880  5.075264
  S    11.368320 12.813031  4.968019
