16  
    
  C     4.445190  5.032366  1.541287
  C     4.135879  8.652453  1.643681
  C     3.174879  4.697551  0.956111
  C     3.064201  8.308274  0.808299
  N     5.479190  5.073171  0.683149
  N     5.221424  9.096608  1.017160
  N     3.193860  4.693831 -0.373729
  N     3.335890  8.353074 -0.505468
  N     2.721560  5.109446  3.467565
  N     2.173659  7.876379  3.246199
  S     1.923212  4.580311  2.132667
  S     1.642402  7.724976  1.684165
  S     4.836495  4.815267 -0.855115
  S     4.894783  8.870193 -0.638047
  S     4.355331  5.175699  3.296382
  S     3.768424  8.473352  3.364885
