16  
    
  C    12.733305  8.962413  3.816024
  C    12.708075 12.546113  3.827374
  C    11.543147  8.422001  3.236831
  C    11.538585 12.118483  3.084195
  N    13.725618  9.170560  2.982463
  N    13.726002 12.875955  3.072231
  N    11.591085  8.444474  1.912930
  N    11.680476 12.129179  1.761148
  N    11.113896  8.456121  5.834078
  N    10.904082 12.363371  5.600031
  S    10.220950  8.069821  4.460864
  S    10.126628 11.824379  4.123208
  S    13.051323  8.976159  1.466300
  S    13.301650 12.532411  1.499928
  S    12.670469  9.218770  5.507227
  S    12.543086 12.679804  5.515517
