16  
    
  C    12.380759  9.003668  3.754803
  C    12.579038 12.843482  3.553550
  C    11.256392  8.404770  3.111475
  C    11.352690 12.459065  2.945764
  N    13.332876  9.412814  2.902381
  N    13.627229 12.819845  2.733308
  N    11.328588  8.290701  1.791711
  N    11.411420 12.424646  1.627133
  N    10.505416  8.519516  5.653483
  N    10.872742 12.571023  5.442837
  S     9.942788  7.985990  4.152861
  S     9.994479 12.235596  4.025101
  S    12.807720  8.931155  1.375073
  S    12.939575 12.726534  1.180529
  S    12.115049  9.285725  5.536764
  S    12.495038 12.929133  5.305164
