16  
    
  C    12.819712  9.229681  3.454345
  C    12.819431 13.016504  3.488263
  C    11.647438  8.706076  2.806444
  C    11.576039 12.549492  2.908487
  N    13.874031  9.434940  2.686210
  N    13.869202 12.918710  2.636283
  N    11.910560  8.344362  1.551472
  N    11.648394 12.233138  1.598062
  N    11.058737  9.066898  5.258490
  N    11.135701 13.104646  5.404708
  S    10.353680  8.471586  3.873215
  S    10.313792 12.480891  4.128422
  S    13.455740  8.889173  1.195596
  S    13.274727 12.391935  1.249572
  S    12.652094  9.697549  5.089947
  S    12.733801 13.250783  5.186025
