16  
    
  C    11.950060  8.699499  3.453261
  C    11.785680 11.985709  3.190946
  C    10.753142  8.059838  2.914987
  C    10.491151 11.704718  2.587257
  N    12.900293  8.874233  2.564067
  N    12.765866 12.146921  2.327399
  N    10.833883  7.812327  1.613920
  N    10.484451 11.696574  1.245275
  N    10.352412  8.419217  5.391798
  N    10.155474 11.872957  5.098138
  S     9.471835  7.887299  4.084078
  S     9.263020 11.555610  3.796746
  S    12.358583  8.268998  1.129692
  S    12.149333 11.983417  0.823500
  S    11.892305  8.932343  5.130876
  S    11.693249 12.333740  4.923302
