16  
    
  C     7.850639  6.401658  2.155631
  C     8.052070 10.587680  2.189212
  C     6.642416  5.854713  1.503890
  C     6.903641  9.931624  1.541135
  N     8.850710  6.616963  1.308922
  N     9.089858 10.816568  1.396433
  N     6.736489  5.806787  0.186719
  N     7.117689  9.677687  0.238796
  N     6.171056  5.775420  4.040327
  N     6.363576 10.161557  4.079423
  S     5.341571  5.540282  2.582424
  S     5.616433  9.677687  2.681939
  S     8.283531  6.273224 -0.198114
  S     8.612278 10.211008 -0.144007
  S     7.753492  6.364289  3.884052
  S     7.883827 10.872906  3.899367
