16  
    
  C    12.026502  8.603734  3.544627
  C    11.950530 12.299882  3.222796
  C    10.864523  8.092076  2.934069
  C    10.656151 11.851776  2.688086
  N    13.050522  8.807366  2.719467
  N    12.935111 12.266917  2.342975
  N    10.976601  7.940001  1.599297
  N    10.659129 11.539492  1.413089
  N    10.237698  8.331177  5.380903
  N    10.271119 11.904701  5.155291
  S     9.501645  7.897857  4.007120
  S     9.323244 11.542839  3.830262
  S    12.549592  8.321081  1.224696
  S    12.256373 11.849524  0.880274
  S    11.791656  8.822977  5.265162
  S    11.861736 12.204749  4.955314
