16  
    
  C     8.373837  6.906605  2.350548
  C     8.886131 10.250419  2.752320
  C     7.279923  6.321968  1.634527
  C     7.651313  9.943447  2.103570
  N     9.503016  7.058573  1.689013
  N     9.935048 10.358201  1.893980
  N     7.543789  6.165934  0.340717
  N     7.735383  9.923132  0.776766
  N     6.673248  6.418609  4.193161
  N     7.127458 10.276417  4.630842
  S     5.943362  5.953328  2.728560
  S     6.279720  9.899147  3.261332
  S     9.191929  6.617366  0.164711
  S     9.327479 10.241179  0.421063
  S     8.212788  6.932809  4.056995
  S     8.765765 10.550821  4.456710
