16  
    
  C    11.843278  8.686048  3.453061
  C    11.526301 12.252303  3.226350
  C    10.570632  8.276976  2.869957
  C    10.433705 11.588666  2.568141
  N    12.780563  8.848898  2.531965
  N    12.651184 12.434311  2.555368
  N    10.620025  8.051747  1.548002
  N    10.710352 11.439829  1.271692
  N    10.173017  8.710833  5.416466
  N     9.578967 11.957149  4.999933
  S     9.291387  8.323250  4.034811
  S     9.036305 11.202498  3.620474
  S    12.184606  8.412052  1.085799
  S    12.199972 12.086036  0.979158
  S    11.764496  9.053031  5.142142
  S    11.173795 12.580987  4.850519
