16  
    
  C    10.491745  7.250812  2.826910
  C    10.286702 11.080602  2.797044
  C     9.215260  7.437051  2.159461
  C     8.992807 10.846164  2.145073
  N    11.521122  7.087836  2.000462
  N    11.267461 11.114360  1.911090
  N     9.296912  7.471802  0.803784
  N     9.049696 10.716943  0.828734
  N     8.719890  7.358604  4.748386
  N     8.505745 11.048786  4.681875
  S     7.907512  7.507318  3.278392
  S     7.709563 10.634993  3.244726
  S    10.851888  7.129633  0.477650
  S    10.623287 10.897674  0.432925
  S    10.400217  7.212117  4.539159
  S    10.132932 11.271595  4.508405
