16  
    
  C     8.860022  6.971605  2.218960
  C     8.994008 10.537273  2.445731
  C     7.673649  6.431925  1.576323
  C     7.766820 10.047738  1.825863
  N     9.895574  7.168670  1.427600
  N    10.000389 10.669653  1.564249
  N     7.876448  6.373258  0.263929
  N     7.875882  9.844688  0.528624
  N     7.166205  6.721319  4.095260
  N     7.310831 10.325814  4.325259
  S     6.332325  6.274730  2.728188
  S     6.429066 10.084439  2.911645
  S     9.457627  6.796926 -0.064162
  S     9.481054 10.194825  0.118775
  S     8.759775  7.231931  3.891316
  S     8.905502 10.737465  4.128714
