16  
    
  C    12.800945  9.342251  3.468892
  C    12.835985 12.932640  3.487971
  C    11.693747  8.754299  2.789403
  C    11.568634 12.626937  2.911136
  N    13.881573  9.388509  2.732245
  N    13.862365 12.982437  2.654812
  N    11.864361  8.390589  1.528301
  N    11.603533 12.249076  1.628742
  N    11.045788  9.028929  5.316403
  N    11.108475 13.055738  5.455884
  S    10.385416  8.488129  3.862749
  S    10.328734 12.464871  4.142709
  S    13.444587  8.879879  1.195982
  S    13.225375 12.371766  1.264270
  S    12.627344  9.723256  5.087105
  S    12.686599 13.210541  5.203942
