16  
    
  C     7.858208  6.221585  2.162723
  C     8.015075 10.289537  2.179282
  C     6.650227  5.890212  1.521952
  C     6.866799  9.808564  1.528010
  N     8.864344  6.550113  1.395052
  N     9.040510 10.486397  1.386178
  N     6.722463  5.801838  0.213621
  N     7.000889  9.594127  0.209159
  N     6.227044  5.838659  4.046657
  N     6.313144 10.132067  4.080585
  S     5.425593  5.459665  2.696898
  S     5.525426  9.666608  2.669778
  S     8.344927  6.324672 -0.127007
  S     8.621285 10.146004 -0.128738
  S     7.834796  6.259394  3.870292
  S     7.884961 10.563917  3.871849
