16  
    
  C     5.105284  5.311111  1.947949
  C     5.089515  8.756092  1.468885
  C     3.808952  5.061296  1.309104
  C     3.842367  8.309146  0.895149
  N     6.121126  5.283088  1.085428
  N     6.147455  8.723009  0.648139
  N     3.928674  4.552403  0.064200
  N     3.866977  8.120839 -0.427914
  N     3.323232  5.784396  3.709975
  N     3.404683  8.734882  3.399372
  S     2.531257  5.203045  2.447257
  S     2.490122  8.346260  2.028287
  S     5.528696  4.645273 -0.301045
  S     5.487161  8.376306 -0.865858
  S     4.957892  5.737353  3.636037
  S     5.035206  8.947114  3.229768
