16  
    
  C     7.651659  6.237814  2.255780
  C     7.719120 10.143974  2.454414
  C     6.341665  5.904628  1.710491
  C     6.565803  9.535419  1.768112
  N     8.568575  6.405560  1.337458
  N     8.746592 10.353409  1.655293
  N     6.357683  5.776178  0.404404
  N     6.775001  9.344840  0.498378
  N     5.980613  6.314801  4.165744
  N     6.083298  9.531877  4.275115
  S     5.099799  5.665758  2.926694
  S     5.256275  9.250510  2.892740
  S     7.914740  6.199309 -0.136537
  S     8.348302  9.942712  0.152602
  S     7.631423  6.480024  3.941428
  S     7.562425 10.262198  4.146598
