16  
    
  C    11.952790  8.692836  3.450188
  C    11.791455 11.995792  3.188046
  C    10.753893  8.057632  2.920779
  C    10.493119 11.697631  2.591149
  N    12.900918  8.880709  2.561139
  N    12.771237 12.139609  2.320193
  N    10.829903  7.814896  1.615494
  N    10.481675 11.694008  1.254173
  N    10.356454  8.423801  5.390636
  N    10.143511 11.873020  5.098288
  S     9.473167  7.888706  4.084896
  S     9.256827 11.553952  3.792152
  S    12.351017  8.265953  1.124096
  S    12.144681 11.988740  0.821664
  S    11.888877  8.934757  5.128422
  S    11.689549 12.335903  4.922534
