16  
    
  C    11.368537  8.509626  3.372516
  C    11.395115 12.414096  3.316809
  C    10.248048  7.861142  2.748320
  C    10.259823 11.792384  2.691930
  N    12.413414  8.653391  2.561736
  N    12.420187 12.532611  2.454961
  N    10.387769  7.602508  1.449082
  N    10.497624 11.283000  1.476661
  N     9.510814  8.558034  5.184263
  N     9.583395 12.458921  5.165303
  S     8.883491  7.737933  3.854202
  S     8.937301 11.614827  3.789232
  S    11.908651  8.058430  1.092151
  S    11.987681 11.862227  1.058877
  S    11.044971  9.089376  4.998031
  S    11.286795 12.740726  5.032494
