16  
    
  C     5.112619  5.097115  2.053308
  C     5.186868  8.567586  1.864044
  C     3.858501  4.803826  1.372368
  C     3.995358  8.474060  1.054658
  N     6.223577  5.007073  1.304979
  N     6.338493  8.523365  1.186803
  N     4.045852  4.673006  0.048753
  N     4.224999  8.266890 -0.230821
  N     3.248828  5.316860  3.885787
  N     3.188592  8.751429  3.483536
  S     2.481270  5.055690  2.425806
  S     2.531167  8.432375  1.973050
  S     5.658640  4.869077 -0.238261
  S     5.862722  8.307778 -0.414795
  S     4.976659  5.450569  3.714755
  S     4.842614  8.782072  3.545662
