16  
    
  C    11.915958  8.512779  3.223513
  C    11.373800 12.038917  3.499456
  C    10.633507  8.217577  2.583778
  C    10.235499 11.578993  2.778343
  N    12.933026  8.738545  2.366860
  N    12.396204 12.442618  2.744855
  N    10.698247  8.165547  1.245152
  N    10.418873 11.521101  1.457101
  N    10.194412  8.026357  5.145789
  N     9.625796 11.664764  5.374584
  S     9.333506  8.051211  3.754523
  S     9.024418 11.103862  3.901079
  S    12.244238  8.611933  0.862581
  S    11.971034 11.970177  1.167099
  S    11.829711  8.415631  4.932682
  S    11.257259 12.261865  5.228432
