16  
    
  C     9.278195  6.852426  2.396122
  C     9.124476 11.005234  2.966998
  C     8.026680  6.470317  1.783427
  C     7.879744 10.512784  2.374047
  N    10.278806  6.811307  1.498509
  N    10.094685 11.169970  2.068756
  N     8.088357  6.074399  0.515375
  N     7.971626 10.185783  1.070327
  N     7.369620  6.904913  4.197636
  N     7.387579 10.819213  4.822036
  S     6.647622  6.316558  2.829541
  S     6.565445 10.374027  3.450767
  S     9.609845  6.311467  0.071134
  S     9.506611 10.650871  0.637828
  S     9.011196  7.297497  4.059158
  S     8.915646 11.367999  4.638196
