16  
    
  C     8.356669  6.628124  2.284989
  C     8.136007 10.132268  2.630743
  C     7.116065  6.105981  1.671214
  C     7.044131  9.466020  1.933522
  N     9.372261  6.712053  1.456098
  N     9.174250 10.405177  1.832138
  N     7.264392  5.781205  0.396789
  N     7.302477  9.249060  0.655101
  N     6.673467  6.468200  4.276643
  N     6.255185  9.790169  4.328382
  S     5.784997  6.059883  2.856523
  S     5.658262  9.156753  2.913739
  S     8.905794  6.145512 -0.020896
  S     8.854185  9.876760  0.338437
  S     8.169991  7.094423  3.920888
  S     7.781264 10.458654  4.262539
