16  
    
  C     6.148864  5.587201  2.098934
  C     6.070014  9.209208  1.583420
  C     4.833400  5.483732  1.501444
  C     4.848064  8.694907  1.030653
  N     7.145552  5.606185  1.208641
  N     7.058292  9.336828  0.691125
  N     4.840905  5.175704  0.204018
  N     4.907814  8.473280 -0.265436
  N     4.406391  5.870829  4.024198
  N     4.253759  9.286979  3.465242
  S     3.521614  5.662640  2.670944
  S     3.484694  8.598368  2.050645
  S     6.418174  5.347757 -0.253737
  S     6.433820  8.873761 -0.768018
  S     6.112696  5.897695  3.763784
  S     5.901309  9.415533  3.287612
