16  
    
  C    12.637617  8.785620  3.542842
  C    12.223761 12.992735  3.692435
  C    11.450777  8.429587  2.876392
  C    11.102872 12.316482  3.103195
  N    13.574887  9.106261  2.680465
  N    13.263692 13.169126  2.898473
  N    11.491384  8.325359  1.543516
  N    11.272644 11.975653  1.827538
  N    10.876792  8.710422  5.306082
  N    10.523307 12.533754  5.598668
  S    10.136585  8.243519  3.985465
  S     9.939687 11.730291  4.249007
  S    13.001418  8.762924  1.132777
  S    12.800664 12.601944  1.416138
  S    12.469871  9.102860  5.253937
  S    12.034839 13.108208  5.432940
