16  
    
  C     6.721060  5.805775  2.273892
  C     6.765958  9.721284  2.331072
  C     5.452538  5.416059  1.757584
  C     5.567733  9.251719  1.740357
  N     7.595586  6.164752  1.352290
  N     7.756305  9.966695  1.484244
  N     5.447073  5.252662  0.442696
  N     5.574809  9.213656  0.418202
  N     5.177416  5.528813  4.326574
  N     5.102151  9.623976  4.275476
  S     4.225467  5.088228  2.981415
  S     4.261246  9.087472  2.924644
  S     6.919821  5.802607 -0.116028
  S     7.158321  9.627662 -0.042278
  S     6.718341  6.002858  3.963778
  S     6.812264  9.941214  4.024893
