16  
    
  C    11.348512  8.759977  3.216924
  C    11.363895 12.344633  3.305929
  C    10.246929  8.015297  2.680428
  C    10.250754 11.787305  2.539989
  N    12.332840  9.052021  2.389126
  N    12.505436 12.428459  2.626326
  N    10.393897  7.633703  1.416853
  N    10.509853 11.679434  1.237135
  N     9.767327  8.399189  5.244661
  N     9.666406 11.768372  4.981107
  S     9.028379  7.754131  3.887502
  S     8.891431 11.389341  3.598048
  S    11.941978  8.231851  0.985957
  S    12.080553 12.212917  0.981275
  S    11.233240  9.130822  4.958803
  S    11.089781 12.555551  4.959356
