16  
    
  C     8.803317  7.311435  2.489187
  C     9.181482 10.645663  2.150928
  C     7.589928  6.907561  1.799635
  C     7.876742 10.555466  1.493510
  N     9.763824  7.771883  1.689132
  N    10.204299 10.783985  1.341236
  N     7.668057  6.863065  0.488720
  N     7.946985 10.576080  0.167484
  N     6.948613  6.717440  4.263503
  N     7.368185 10.631995  4.015248
  S     6.361043  6.212273  2.810345
  S     6.564133 10.418272  2.597328
  S     9.214975  7.440214  0.093116
  S     9.522182 10.714117 -0.254916
  S     8.576210  7.121335  4.257541
  S     8.991283 10.888166  3.889663
