16  
    
  C     9.674323  7.595310  2.784183
  C    10.038874 11.170326  2.676192
  C     8.531004  6.909707  2.167564
  C     8.733061 10.801100  2.049133
  N    10.700865  7.761134  1.949652
  N    11.034440 11.307234  1.815788
  N     8.733253  6.693775  0.872720
  N     8.808442 10.713136  0.737160
  N     7.867519  7.259632  4.591437
  N     8.266762 11.115707  4.612343
  S     7.190131  6.682281  3.184501
  S     7.450015 10.809375  3.237040
  S    10.252572  7.171380  0.486323
  S    10.363738 11.054653  0.306282
  S     9.291569  8.045122  4.468850
  S     9.929639 11.376103  4.411773
