16  
    
  C     9.905764  7.627639  2.704598
  C     9.886273 11.269083  2.936195
  C     8.654151  7.291057  2.057463
  C     8.711242 10.824410  2.225577
  N    10.947986  7.807176  1.902082
  N    10.961667 11.439131  2.147610
  N     8.753662  7.308496  0.727808
  N     8.857343 10.724515  0.910897
  N     8.174164  7.307990  4.527185
  N     8.017949 11.102854  4.728306
  S     7.306034  7.213562  3.155004
  S     7.331310 10.580766  3.297518
  S    10.363690  7.563164  0.340263
  S    10.476452 11.097185  0.623521
  S     9.752091  7.772112  4.406651
  S     9.626972 11.375386  4.700851
