16  
    
  C     5.064342  5.121487  1.845212
  C     5.115049  8.598312  1.915425
  C     3.722765  4.886977  1.286283
  C     3.884108  8.373560  1.249058
  N     6.067398  5.071585  0.982607
  N     6.190122  8.648891  1.122315
  N     3.781383  4.852319 -0.058489
  N     3.990460  7.988453 -0.016013
  N     3.527311  4.708475  3.850783
  N     3.254949  8.736037  3.712955
  S     2.472425  4.840118  2.564353
  S     2.490837  8.428677  2.247825
  S     5.352452  5.047222 -0.513598
  S     5.594857  8.178493 -0.385539
  S     5.174164  5.027125  3.539780
  S     4.919690  9.019288  3.567998
