16  
    
  C    12.417597  9.132360  3.391445
  C    12.321898 12.819376  3.308588
  C    11.157781  8.744712  2.891741
  C    11.171213 12.176641  2.763697
  N    13.373289  9.121814  2.446075
  N    13.419727 12.767815  2.566882
  N    11.140746  8.392661  1.586519
  N    11.319576 11.853673  1.479501
  N    10.735227  9.260721  5.414355
  N    10.602700 12.476080  5.304288
  S     9.917698  8.642053  4.030595
  S     9.808340 11.973600  3.903925
  S    12.692731  8.565786  1.059873
  S    12.927940 12.238575  1.086594
  S    12.423879  9.570444  5.119369
  S    12.121178 13.213515  5.078965
