16  
    
  C     9.855436  7.675339  2.834105
  C     9.868545 11.122352  2.816748
  C     8.685486  7.209660  2.151718
  C     8.618835 10.878800  2.171684
  N    10.903734  8.000088  2.071588
  N    10.917995 11.260364  2.036889
  N     8.850428  7.057231  0.845543
  N     8.718962 10.722139  0.883407
  N     7.841027  7.586189  4.554522
  N     8.111516 10.831047  4.727237
  S     7.289474  6.923060  3.071581
  S     7.291972 10.901439  3.291595
  S    10.404645  7.505727  0.527235
  S    10.318636 10.992328  0.450441
  S     9.503045  7.803973  4.603493
  S     9.739211 11.289669  4.569327
