16  
    
  C     6.869822  5.711450  2.004023
  C     7.220222  9.962432  2.402482
  C     5.786462  5.325009  1.148566
  C     5.997820  9.464141  1.808995
  N     8.076105  5.831191  1.420545
  N     8.211468 10.168350  1.535309
  N     6.170214  4.925921 -0.061939
  N     6.028133  9.386424  0.485063
  N     4.683379  6.020945  3.406261
  N     5.503429  9.837426  4.312473
  S     4.287684  5.211224  1.954672
  S     4.707200  9.286481  2.882271
  S     7.798812  5.216624 -0.114304
  S     7.631768  9.744904  0.063146
  S     6.322689  6.100145  3.589730
  S     7.078982 10.093448  4.167247
