16  
    
  C    10.252857  7.255298  2.673183
  C    10.346483 10.947651  2.782389
  C     8.999132  6.896702  2.025535
  C     9.102470 10.830581  2.118764
  N    11.294532  7.416522  1.861500
  N    11.368138 11.032652  1.929410
  N     9.080918  6.767149  0.682758
  N     9.153257 10.827661  0.773440
  N     8.469315  7.382300  4.563784
  N     8.532221 10.730233  4.599359
  S     7.610766  6.965489  3.190748
  S     7.718174 10.979726  3.183051
  S    10.649600  7.194026  0.309387
  S    10.745950 10.980710  0.379456
  S    10.148646  7.460990  4.356040
  S    10.203458 11.028729  4.502400
