16  
    
  C    12.507010  9.152154  3.451928
  C    12.339537 12.804816  3.506808
  C    11.387941  8.544404  2.708283
  C    11.122193 12.155941  3.021949
  N    13.493291  9.423928  2.604955
  N    13.261611 13.083665  2.576982
  N    11.461325  8.411268  1.360657
  N    11.224715 11.863311  1.729532
  N    10.650673  8.444570  5.218293
  N    10.715407 12.362294  5.542558
  S    10.001880  8.226735  3.647794
  S     9.885160 11.883284  4.134542
  S    13.075960  8.924009  1.065395
  S    12.558017 12.608842  1.142922
  S    12.288410  9.085355  5.179816
  S    12.146421 13.110952  5.248481
