16  
    
  C     8.176553  6.552873  2.573267
  C     8.585462 10.206481  2.367858
  C     6.907704  6.237031  1.846209
  C     7.274248  9.785091  1.861385
  N     9.215157  6.776523  1.758550
  N     9.489033 10.291232  1.410745
  N     7.075041  5.985961  0.555681
  N     7.219368  9.467083  0.539691
  N     6.254125  6.315302  4.315812
  N     6.888231 10.384391  4.360970
  S     5.536793  5.941924  2.842646
  S     6.025066  9.768189  3.050372
  S     8.654245  6.425500  0.171027
  S     8.717606  9.917285 -0.035067
  S     7.904347  6.769899  4.283298
  S     8.529988 10.486655  4.103335
