16  
    
  C     6.614984  5.958164  2.096334
  C     6.438784  9.373977  1.917071
  C     5.449656  5.373215  1.464516
  C     5.264431  8.907494  1.215523
  N     7.681000  6.030615  1.290183
  N     7.495034  9.580309  1.121675
  N     5.559801  5.211655  0.144456
  N     5.471823  8.703393 -0.071441
  N     4.827310  5.496647  3.969372
  N     4.595836  9.000825  3.657176
  S     4.030741  5.121458  2.525149
  S     3.932320  8.490866  2.283212
  S     7.112466  5.609586 -0.239336
  S     7.044251  9.216868 -0.412470
  S     6.414292  6.088942  3.845264
  S     6.202249  9.463533  3.663613
