16  
    
  C     9.195098  6.821963  2.361165
  C     9.174750 10.854841  3.023306
  C     7.986550  6.214767  1.805393
  C     7.903271 10.420018  2.398772
  N    10.268293  6.759342  1.613903
  N    10.171854 10.836645  2.149758
  N     8.194744  5.727540  0.590223
  N     7.986411  9.992027  1.171631
  N     7.434891  6.983013  4.174092
  N     7.394799 10.995428  4.803920
  S     6.599656  6.331634  2.866689
  S     6.564918 10.588646  3.442524
  S     9.814027  6.068759  0.205676
  S     9.602714 10.312881  0.705141
  S     9.087467  7.224703  3.972331
  S     9.029054 11.136704  4.684798
