16  
    
  C     6.700118  5.685498  2.027249
  C     6.648811  9.533585  2.096358
  C     5.403004  5.501616  1.389025
  C     5.380781  9.076677  1.559547
  N     7.646183  5.843458  1.118822
  N     7.616466  9.658829  1.180307
  N     5.462603  5.384312  0.073213
  N     5.381785  8.968393  0.231373
  N     4.954309  5.783401  3.909308
  N     5.092806  9.323991  4.211024
  S     4.131774  5.388035  2.558964
  S     4.184871  9.074511  2.794812
  S     7.041721  5.596080 -0.401841
  S     6.948842  9.385448 -0.274534
  S     6.643376  5.951076  3.723658
  S     6.638903  9.819466  3.765627
