16  
    
  C    10.738918  8.290145  3.041454
  C    10.760504 11.836555  3.120719
  C     9.562756  7.753324  2.427472
  C     9.631841 11.282070  2.416110
  N    11.720558  8.572398  2.195667
  N    11.859463 11.917884  2.383838
  N     9.634869  7.598549  1.114841
  N     9.889063 11.075216  1.133751
  N     9.023522  7.920978  5.011585
  N     8.819411 11.696519  4.819790
  S     8.156448  7.706864  3.548340
  S     8.142160 11.356385  3.382551
  S    11.146774  8.030982  0.726724
  S    11.448252 11.585207  0.802979
  S    10.532858  8.693159  4.725659
  S    10.434401 12.088822  4.789506
