16  
    
  C     7.580293  6.645109  2.308994
  C     7.690830 10.058738  2.239697
  C     6.309180  6.091693  1.829553
  C     6.461770  9.719938  1.515222
  N     8.597400  6.657414  1.440420
  N     8.833415 10.204759  1.578477
  N     6.341555  5.795164  0.530258
  N     6.752322  9.581219  0.207166
  N     6.026078  6.600236  4.377556
  N     5.838382 10.030439  4.030188
  S     5.113102  6.175284  3.079983
  S     5.076227  9.793393  2.602999
  S     7.911529  6.042568  0.063930
  S     8.354733  9.782899 -0.004387
  S     7.633746  6.890207  4.000401
  S     7.516297 10.194761  3.954392
