16  
    
  C    12.358913  8.988049  3.779521
  C    12.626954 12.833373  3.561614
  C    11.156449  8.392619  3.218027
  C    11.329511 12.528605  2.877923
  N    13.344763  9.159300  2.867641
  N    13.587306 12.971159  2.655627
  N    11.289898  8.151764  1.913051
  N    11.410292 12.206796  1.601676
  N    10.625914  8.851720  5.626087
  N    10.831714 12.463595  5.370037
  S     9.857403  8.272476  4.313620
  S     9.979362 12.204432  3.928382
  S    12.803737  8.530363  1.433588
  S    12.975253 12.608205  1.143394
  S    12.189056  9.272116  5.538776
  S    12.480662 12.840638  5.303940
