16  
    
  C     6.544669  5.902872  1.968834
  C     6.622789  9.358620  1.862101
  C     5.317844  5.396362  1.441207
  C     5.415699  8.911835  1.281392
  N     7.515119  5.904116  1.066024
  N     7.572917  9.724167  1.030161
  N     5.291085  5.249629  0.111506
  N     5.493446  8.761887 -0.038894
  N     4.941145  5.713404  3.958899
  N     5.015435  9.000665  3.760429
  S     4.032510  5.401915  2.626508
  S     4.111555  8.812049  2.392320
  S     6.856938  5.456663 -0.393671
  S     7.019506  9.308822 -0.468423
  S     6.586564  6.064356  3.698704
  S     6.445174  9.666583  3.555795
