16  
    
  C    11.985475  8.596693  3.223958
  C    11.985873 12.136091  3.215904
  C    10.663760  8.319594  2.685380
  C    10.768946 11.739680  2.599116
  N    13.002058  8.624547  2.393953
  N    13.014884 12.198589  2.379212
  N    10.659970  8.202475  1.355166
  N    10.829344 11.740396  1.255428
  N    10.409531  8.466405  5.251065
  N    10.325398 11.939409  5.140763
  S     9.496926  8.125035  3.953854
  S     9.450308 11.549020  3.735126
  S    12.282587  8.441619  0.877565
  S    12.416253 11.897590  0.849169
  S    12.034253  8.677444  4.987994
  S    11.950005 12.394137  4.909234
