16  
    
  C     8.318525  6.677459  2.397799
  C     8.408981 10.285073  2.320688
  C     7.108874  6.203756  1.763226
  C     7.135589  9.894635  1.751516
  N     9.361737  6.788599  1.582876
  N     9.413602 10.199108  1.478483
  N     7.267564  6.129397  0.433232
  N     7.194338  9.632784  0.444407
  N     6.700326  6.225146  4.320621
  N     6.807240 10.148866  4.311050
  S     5.793262  5.895630  2.924255
  S     5.912962  9.656176  3.005297
  S     8.834402  6.531528  0.085710
  S     8.778434  9.865672 -0.007218
  S     8.286017  6.772592  4.117016
  S     8.392223 10.529965  4.015301
