16  
    
  C    12.790717  9.391709  3.436336
  C    12.740130 12.784223  3.666762
  C    11.677748  8.760397  2.795835
  C    11.549945 12.371113  3.027321
  N    13.880274  9.415300  2.684056
  N    13.740812 13.026752  2.841943
  N    11.811014  8.502387  1.493633
  N    11.641154 12.115320  1.725758
  N    11.001273  9.173157  5.261922
  N    10.992524 12.690601  5.544519
  S    10.310377  8.566222  3.850606
  S    10.242342 12.379906  4.130277
  S    13.364069  8.936603  1.215730
  S    13.181212 12.562336  1.288577
  S    12.582288  9.667311  5.132534
  S    12.566933 13.178623  5.270815
