16  
    
  C    10.664864  7.638785  3.055935
  C    10.662879 11.811318  3.146668
  C     9.383724  7.293890  2.458499
  C     9.405282 11.229540  2.702564
  N    11.597289  7.965418  2.196143
  N    11.457987 12.058419  2.128727
  N     9.376334  7.348368  1.131088
  N     9.378047 10.957637  1.411136
  N     9.057754  7.481881  4.976535
  N     9.242407 11.469524  5.262971
  S     8.159416  7.044361  3.693900
  S     8.291028 10.909929  3.992432
  S    10.909421  7.809057  0.711892
  S    10.712814 11.577393  0.723620
  S    10.624609  7.754618  4.818914
  S    10.605539 12.291661  4.796946
