16  
    
  C     4.528808  5.106034  1.822989
  C     4.598217  8.516937  1.432248
  C     3.351632  4.636213  1.140673
  C     3.403005  8.052115  0.762768
  N     5.546587  5.336068  1.005302
  N     5.680303  8.591073  0.679688
  N     3.492940  4.457599 -0.181573
  N     3.533963  7.857490 -0.544273
  N     2.750834  4.687471  3.690436
  N     2.763887  8.431048  3.271464
  S     1.969467  4.507873  2.243267
  S     2.029591  7.946187  1.837255
  S     4.994970  5.017243 -0.539133
  S     5.194351  8.132943 -0.871240
  S     4.331125  5.340405  3.575891
  S     4.380940  8.904547  3.117035
