16  
    
  C     8.262736  6.681607  2.482496
  C     8.520152 10.084226  2.359995
  C     7.034628  6.228744  1.807858
  C     7.221746  9.692082  1.824992
  N     9.269266  6.802377  1.625841
  N     9.404410 10.248059  1.360636
  N     7.100149  6.136782  0.488589
  N     7.175271  9.584565  0.511969
  N     6.452070  6.285940  4.293003
  N     6.895504 10.218777  4.333046
  S     5.758921  5.931478  2.872466
  S     5.943241  9.769008  3.014968
  S     8.741167  6.433391  0.126009
  S     8.723326  9.912171 -0.034580
  S     8.034644  6.729110  4.203443
  S     8.486530 10.523986  4.006811
