16  
    
  C     7.167179  6.108745  2.085734
  C     7.402245  9.690693  2.489181
  C     6.067386  5.501390  1.383233
  C     6.175399  9.472936  1.843247
  N     8.270699  6.237963  1.332712
  N     8.450072  9.738756  1.652325
  N     6.298330  5.336331  0.091749
  N     6.226719  9.246470  0.524973
  N     5.213793  5.716863  3.782679
  N     5.529311  9.514434  4.289132
  S     4.710467  5.085035  2.334347
  S     4.792249  9.545371  2.790958
  S     7.862909  5.677101 -0.180413
  S     7.887787  9.360413  0.176920
  S     6.794426  6.268379  3.846551
  S     7.144616  9.975992  4.227416
