16  
    
  C    11.367528  8.340342  3.332135
  C    11.443943 12.033768  3.321017
  C    10.183070  7.878914  2.721187
  C    10.106910 11.732556  2.848428
  N    12.487659  8.370265  2.589404
  N    12.322547 12.021273  2.324997
  N    10.381348  7.524102  1.441857
  N    10.016176 11.361056  1.576046
  N     9.430983  8.316338  5.151235
  N     9.901329 12.061409  5.400747
  S     8.725549  7.808626  3.681984
  S     8.908850 11.843777  4.070873
  S    11.936674  7.850060  1.080724
  S    11.569757 11.430961  1.033154
  S    11.113034  8.635553  5.060586
  S    11.425541 12.634191  4.961800
