16  
    
  C     5.934452  5.722363  2.191148
  C     5.972618  9.215544  1.636226
  C     4.645937  5.584797  1.565062
  C     4.706091  8.938542  0.962593
  N     6.929190  5.445042  1.358844
  N     7.038587  9.151744  0.841203
  N     4.675163  5.402686  0.257964
  N     4.894969  8.692679 -0.320105
  N     4.132934  5.907285  4.023875
  N     4.160391  9.109739  3.406070
  S     3.354718  5.658840  2.661724
  S     3.343359  8.774289  1.987902
  S     6.257409  5.277867 -0.138326
  S     6.517077  8.747734 -0.657464
  S     5.793911  5.808909  3.873639
  S     5.707372  9.519617  3.332961
