16  
    
  C     5.808289  5.526534  1.969911
  C     5.909963  9.089941  2.066333
  C     4.506563  5.357608  1.281151
  C     4.687927  8.665665  1.357470
  N     6.881426  5.591170  1.159620
  N     6.998909  9.097737  1.279655
  N     4.648087  4.992191  0.011236
  N     4.820021  8.462633  0.047089
  N     3.950067  5.591522  3.844248
  N     4.027209  8.943841  3.856248
  S     3.126022  5.377822  2.372035
  S     3.266845  8.664195  2.375693
  S     6.297613  5.113553 -0.349905
  S     6.399891  8.734238 -0.286399
  S     5.622740  5.832618  3.677887
  S     5.687882  9.110786  3.772601
