16  
    
  C     9.939565  7.879003  2.692590
  C    10.584470 11.503489  3.122049
  C     8.934846  7.103326  2.048208
  C     9.441409 11.203041  2.323628
  N    10.982150  8.123679  1.932041
  N    11.718562 11.689520  2.426298
  N     9.212490  6.691815  0.822533
  N     9.655316 10.940775  1.010540
  N     8.112901  7.337444  4.426179
  N     8.628222 11.268852  4.803330
  S     7.547555  6.716775  3.007889
  S     7.953770 11.200369  3.258301
  S    10.695157  7.392120  0.464298
  S    11.298524 11.235078  0.848358
  S     9.561097  8.118817  4.318602
  S    10.251381 11.637509  4.797893
