16  
    
  C    12.409458  9.138369  3.303586
  C    12.207336 12.756551  3.340049
  C    11.153727  8.593513  2.837910
  C    11.073891 12.212144  2.722480
  N    13.425564  9.211715  2.457016
  N    13.316008 12.937031  2.660949
  N    11.152387  8.334908  1.525122
  N    11.382013 11.803337  1.496102
  N    10.901925  9.119264  5.348867
  N    10.440370 12.608429  5.207895
  S     9.894207  8.655116  4.119381
  S     9.768442 12.059788  3.831168
  S    12.749250  8.725706  0.980923
  S    12.954391 12.194279  1.213116
  S    12.370068  9.554472  4.960640
  S    12.048354 13.119015  5.023342
