16  
    
  C     5.350029  5.590594  1.670891
  C     5.267552  8.947297  1.763522
  C     4.203659  5.094228  0.930351
  C     4.087685  8.669991  1.021873
  N     6.447424  5.732936  0.920232
  N     6.360744  9.214196  1.035933
  N     4.433760  5.117627 -0.411411
  N     4.273980  8.472310 -0.291532
  N     3.524493  5.209878  3.471501
  N     3.310462  8.745130  3.454944
  S     2.756316  5.079195  1.944570
  S     2.743940  8.211096  2.012712
  S     6.060896  5.390140 -0.619849
  S     5.857939  8.856180 -0.517638
  S     5.128896  5.707802  3.393530
  S     4.975353  8.892904  3.487994
