16  
    
  C    12.462047  9.107109  3.396579
  C    12.296647 12.712313  3.455687
  C    11.332889  8.575454  2.636903
  C    11.042246 12.203551  2.952160
  N    13.533595  9.410165  2.664410
  N    13.214972 13.087497  2.558399
  N    11.495877  8.491381  1.327995
  N    11.130725 12.032623  1.637851
  N    10.655855  8.464189  5.105354
  N    10.717364 12.656171  5.470703
  S     9.940248  8.098562  3.688494
  S     9.961775 11.801348  4.226904
  S    13.072818  9.141331  1.093376
  S    12.619337 12.481118  1.109326
  S    12.101155  9.141192  5.076902
  S    12.308359 13.058711  5.172417
