16  
    
  C     9.380118  6.635142  2.400173
  C     9.401810 10.544045  2.799092
  C     8.154568  6.322571  1.724483
  C     8.143436 10.422999  2.132314
  N    10.428680  6.764457  1.587055
  N    10.438082 10.325839  2.040386
  N     8.295550  6.047680  0.442439
  N     8.208856 10.020542  0.860674
  N     7.376480  6.695348  4.113063
  N     7.546646 11.020353  4.597358
  S     6.690347  6.204185  2.649984
  S     6.764871 10.660015  3.164835
  S     9.906403  6.378820  0.037854
  S     9.910485  9.945110  0.529466
  S     8.992890  6.930568  4.123641
  S     9.208777 10.933948  4.503195
