16  
    
  C     6.045320  5.644047  2.082738
  C     6.053004  9.134366  1.574275
  C     4.748009  5.394082  1.517177
  C     4.810458  8.705999  0.951190
  N     7.095679  5.552871  1.272315
  N     7.058722  9.386920  0.734736
  N     4.747220  5.243066  0.187322
  N     4.935366  8.452358 -0.351117
  N     4.440506  5.847261  4.062335
  N     4.212784  9.179551  3.416676
  S     3.529829  5.714986  2.681795
  S     3.452500  8.679395  2.074262
  S     6.391369  5.345932 -0.216879
  S     6.465077  8.844652 -0.788031
  S     6.011680  5.873641  3.793819
  S     5.881350  9.459847  3.287892
