16  
    
  C     4.889970  4.801089  1.627979
  C     4.861630  8.722605  1.771325
  C     3.580127  4.490085  1.153047
  C     3.499319  8.405251  1.267188
  N     5.811367  4.928360  0.689055
  N     5.718265  9.031739  0.791910
  N     3.460284  4.642009 -0.189421
  N     3.407802  8.229403 -0.048871
  N     3.553863  4.625807  3.797324
  N     3.246551  8.670856  3.865168
  S     2.471401  4.426383  2.536390
  S     2.315270  8.289565  2.492109
  S     5.049428  4.795922 -0.724547
  S     4.931410  8.692916 -0.655381
  S     5.135271  4.805968  3.324360
  S     4.863481  8.952788  3.515280
