16  
    
  C     8.274191  6.548801  2.302111
  C     8.090550 10.084102  2.517109
  C     7.072331  6.173004  1.701565
  C     7.013936  9.448891  1.890612
  N     9.281803  6.648253  1.432999
  N     9.032721 10.399868  1.620017
  N     7.114251  5.715284  0.444717
  N     7.115786  9.137129  0.616127
  N     6.501908  6.414858  4.167005
  N     6.221819  9.907950  4.315098
  S     5.747209  5.990442  2.703566
  S     5.610303  9.325170  2.871388
  S     8.702438  6.041646  0.006722
  S     8.584942  9.842399  0.151631
  S     8.033449  6.937440  3.999728
  S     7.837816 10.319963  4.238923
