16  
    
  C     3.628641  4.487014  1.578971
  C     3.786669  8.396164  1.614576
  C     2.441921  3.900332  1.002281
  C     2.609621  8.014342  0.960784
  N     4.596445  4.829455  0.741927
  N     4.796381  8.639174  0.784725
  N     2.487840  3.791064 -0.333252
  N     2.660664  7.952146 -0.356364
  N     1.948841  4.135417  3.556247
  N     2.053862  7.931286  3.533121
  S     1.168385  3.474296  2.177253
  S     1.225604  7.809656  2.053691
  S     3.945220  4.606259 -0.779309
  S     4.246161  8.364697 -0.765213
  S     3.439532  4.767833  3.276248
  S     3.635890  8.387435  3.363841
