16  
    
  C     4.441119  4.993402  1.519694
  C     4.140545  8.669343  1.661296
  C     3.162254  4.701805  0.925103
  C     3.072530  8.274677  0.805500
  N     5.463924  5.100567  0.680845
  N     5.236685  9.070073  1.029479
  N     3.203126  4.695295 -0.400931
  N     3.331836  8.356563 -0.502612
  N     2.721657  5.112081  3.462453
  N     2.188711  7.851365  3.252002
  S     1.917343  4.578836  2.140490
  S     1.633571  7.732309  1.671010
  S     4.837652  4.814095 -0.864788
  S     4.893576  8.862271 -0.645370
  S     4.359632  5.166806  3.259702
  S     3.771568  8.482776  3.369153
