16  
    
  C    10.793621  8.368215  3.263206
  C    10.705115 11.889711  3.257185
  C     9.667999  7.717042  2.675296
  C     9.498956 11.388235  2.623929
  N    11.814799  8.593349  2.399688
  N    11.711418 12.060529  2.405908
  N     9.813430  7.415769  1.376470
  N     9.634416 11.254612  1.310280
  N     9.029944  8.030375  5.187862
  N     9.032646 11.525417  5.146079
  S     8.364546  7.501893  3.775944
  S     8.253072 11.060527  3.777740
  S    11.279170  7.974020  0.969980
  S    11.166642 11.671663  0.893615
  S    10.599467  8.700862  4.992053
  S    10.535807 12.106583  4.941731
