16  
    
  C     5.124870  5.094963  2.059353
  C     5.189099  8.576561  1.863716
  C     3.862025  4.828915  1.370457
  C     4.005469  8.452689  1.064239
  N     6.228797  5.008180  1.291298
  N     6.344602  8.521947  1.207634
  N     4.048304  4.669906  0.055268
  N     4.211599  8.264154 -0.226061
  N     3.255901  5.310261  3.881443
  N     3.190256  8.770929  3.476227
  S     2.475945  5.044494  2.424622
  S     2.535108  8.433191  1.977768
  S     5.653290  4.876176 -0.244652
  S     5.867339  8.309174 -0.400038
  S     4.978670  5.433137  3.723045
  S     4.838773  8.777734  3.547483
