16  
    
  C    12.886940  9.210245  3.409134
  C    13.001945 12.844424  3.474563
  C    11.756340  8.550023  2.849025
  C    11.725065 12.449570  2.884190
  N    13.908976  9.451466  2.593952
  N    13.983193 12.968191  2.596044
  N    11.915700  8.263377  1.581977
  N    11.816599 12.068762  1.604821
  N    10.906387  9.168314  5.269909
  N    11.198605 13.059529  5.364873
  S    10.397800  8.417870  3.879198
  S    10.342479 12.562302  3.985371
  S    13.428489  8.827536  1.059830
  S    13.371864 12.463765  1.203858
  S    12.589960  9.547927  5.133836
  S    12.821437 13.436744  5.154204
