16  
    
  C     7.572999  6.549179  2.331480
  C     7.693507 10.043603  2.358088
  C     6.266667  6.206746  1.835918
  C     6.500470  9.715163  1.601082
  N     8.494051  6.643778  1.374207
  N     8.762663 10.107351  1.577399
  N     6.280668  5.757996  0.574385
  N     6.708699  9.515865  0.286286
  N     6.112504  6.441164  4.345616
  N     5.856291 10.045147  4.062083
  S     5.070075  6.117739  3.071771
  S     5.095229  9.642440  2.612317
  S     7.858801  6.044962 -0.004103
  S     8.369761  9.854570  0.055820
  S     7.715986  6.819297  4.028372
  S     7.491768 10.235400  4.031975
