16  
    
  C    12.415349  9.141838  3.450869
  C    12.510959 12.590912  3.434756
  C    11.147686  8.748367  2.967750
  C    11.307334 12.158307  2.847349
  N    13.438000  9.013047  2.579086
  N    13.451359 12.855283  2.538378
  N    11.194267  8.347320  1.699366
  N    11.282979 11.932448  1.556021
  N    10.699256  9.235674  5.361412
  N    10.706111 12.490358  5.294297
  S     9.877482  8.657081  4.122476
  S     9.973071 12.002045  3.901717
  S    12.706733  8.478530  1.152698
  S    12.802400 12.305055  1.047326
  S    12.314607  9.505021  5.191758
  S    12.147627 13.156618  5.071280
