16  
    
  C     5.290023  5.464240  1.737203
  C     5.125147  8.870663  1.289173
  C     4.013049  4.979744  1.294086
  C     3.852054  8.502667  0.746511
  N     6.207006  5.409991  0.771816
  N     6.121802  8.953033  0.417587
  N     3.879192  4.805959 -0.020676
  N     3.888100  8.120724 -0.535571
  N     3.677590  5.397781  3.836733
  N     3.496789  8.937210  3.292395
  S     2.764567  5.211318  2.437086
  S     2.637275  8.285170  1.996652
  S     5.424210  4.937363 -0.623472
  S     5.510493  8.425950 -1.024325
  S     5.250800  5.967397  3.439907
  S     5.084616  9.304372  2.975441
