16  
    
  C     7.639919  6.256257  2.290809
  C     7.780130 10.012626  2.453469
  C     6.350083  5.954498  1.782494
  C     6.581023  9.588108  1.766601
  N     8.526436  6.500370  1.321796
  N     8.810196 10.229432  1.642066
  N     6.294725  5.806422  0.462976
  N     6.697559  9.525761  0.431929
  N     6.023853  6.355315  4.278880
  N     5.880942  9.761321  4.217019
  S     5.135981  5.898234  3.013181
  S     5.216385  9.339473  2.773044
  S     7.775897  6.181120 -0.104588
  S     8.325863  9.888954  0.122451
  S     7.674721  6.619144  3.992056
  S     7.473757 10.317350  4.162428
