16  
    
  C    11.057646  8.266317  2.953009
  C    10.799556 11.939690  3.017100
  C     9.846821  7.694751  2.343574
  C     9.671867 11.309784  2.382125
  N    12.033540  8.460686  2.086282
  N    11.824974 12.165566  2.204084
  N     9.953069  7.483284  1.053314
  N     9.775266 11.094999  1.076526
  N     9.364896  7.810014  4.923090
  N     9.041630 11.584785  4.900459
  S     8.577434  7.436872  3.484296
  S     8.355808 11.029325  3.470357
  S    11.511051  7.951285  0.569025
  S    11.334192 11.667644  0.699366
  S    10.940404  8.540398  4.652330
  S    10.612432 12.069719  4.831718
