16  
    
  C     8.870896  6.973549  2.224530
  C     8.995425 10.541113  2.449187
  C     7.675758  6.445819  1.574881
  C     7.766315 10.050104  1.824151
  N     9.899123  7.174295  1.427225
  N     9.999261 10.675009  1.570725
  N     7.882076  6.370319  0.264486
  N     7.877105  9.840629  0.524486
  N     7.167157  6.719083  4.097251
  N     7.311265 10.332095  4.318071
  S     6.342225  6.278362  2.731557
  S     6.428170 10.086655  2.906898
  S     9.458609  6.790928 -0.066605
  S     9.480585 10.198800  0.111315
  S     8.765106  7.231522  3.893048
  S     8.906233 10.742358  4.125868
