16  
    
  C    12.233479  9.262602  3.565113
  C    12.464751 12.733379  3.461268
  C    11.220086  8.488025  2.790743
  C    11.146787 12.344689  2.930664
  N    13.198172  9.712846  2.804956
  N    13.449300 12.949330  2.578722
  N    11.432164  8.423503  1.485835
  N    11.276684 11.998660  1.645630
  N    10.654731  8.387681  5.326430
  N    10.890562 12.587470  5.504099
  S     9.944136  7.913702  3.891000
  S     9.949589 12.191821  4.169015
  S    12.981628  9.200535  1.245161
  S    12.784312 12.556388  1.149312
  S    12.080255  9.187879  5.308633
  S    12.508870 12.982428  5.174757
