16  
    
  C     4.507763  5.004004  1.656992
  C     4.292344  8.676506  1.483522
  C     3.260199  4.713253  1.015397
  C     3.112370  8.002674  0.934353
  N     5.531043  5.197653  0.832252
  N     5.335511  8.709664  0.641547
  N     3.363534  4.499521 -0.299986
  N     3.266845  7.725305 -0.361661
  N     2.815421  4.865731  3.531972
  N     2.631038  8.391321  3.380140
  S     1.939999  4.590499  2.142251
  S     1.759271  7.954476  2.019451
  S     4.991353  4.873138 -0.684994
  S     4.784746  8.115916 -0.786488
  S     4.345292  5.494139  3.232374
  S     4.188302  8.870237  3.204973
