16  
    
  C    12.369780  9.002960  3.425546
  C    12.321419 12.858697  3.423035
  C    11.294321  8.525600  2.600837
  C    11.098016 12.228326  2.973888
  N    13.373428  9.457001  2.718721
  N    13.334254 12.869698  2.557893
  N    11.546935  8.613531  1.292528
  N    11.081329 12.020945  1.661880
  N    10.601011  8.448557  5.200394
  N    10.740967 12.685886  5.442192
  S     9.960391  8.013195  3.670114
  S    10.014981 11.858226  4.240535
  S    13.039191  9.232686  1.106352
  S    12.625515 12.476056  1.114528
  S    12.071541  9.221942  5.102888
  S    12.363398 13.049059  5.136268
