16  
    
  C     7.531588  6.073814  2.171567
  C     7.934405  9.873838  2.221805
  C     6.347666  5.453632  1.608705
  C     6.682839  9.464851  1.701835
  N     8.474432  6.385369  1.299778
  N     8.909692 10.009821  1.334099
  N     6.365786  5.381942  0.289260
  N     6.677774  9.305210  0.399746
  N     5.743586  5.783079  4.043435
  N     6.330052  9.447166  4.275032
  S     5.042591  5.165642  2.671920
  S     5.492268  9.140017  2.891550
  S     7.862871  6.021069 -0.218710
  S     8.146047  9.686368 -0.155722
  S     7.405577  6.175132  3.941770
  S     7.881385 10.136430  3.986560
