16  
    
  C     7.694275  6.572510  2.397759
  C     7.784742 10.123120  2.211290
  C     6.401770  6.160851  1.856383
  C     6.557358  9.869838  1.531802
  N     8.637818  6.625829  1.464740
  N     8.819585 10.134365  1.396534
  N     6.447216  5.770612  0.605083
  N     6.672205  9.591152  0.244130
  N     5.968330  6.787232  4.342560
  N     5.881594  9.978945  4.010035
  S     5.082170  6.167927  3.011593
  S     5.119084  9.902859  2.504002
  S     8.003699  6.081555  0.025498
  S     8.334474  9.752765 -0.105072
  S     7.564682  7.009359  4.088085
  S     7.505070 10.216459  3.941574
