16  
    
  C    12.769739  9.247526  3.437495
  C    12.713239 12.873498  3.588150
  C    11.571996  8.750367  2.786090
  C    11.545375 12.234638  3.013187
  N    13.812988  9.459859  2.695991
  N    13.755675 13.067275  2.776093
  N    11.830875  8.402407  1.536992
  N    11.677094 12.132712  1.684887
  N    10.987216  9.261440  5.180578
  N    10.968937 12.669597  5.523692
  S    10.258457  8.613981  3.885473
  S    10.160420 12.305002  4.103484
  S    13.378813  9.002651  1.159245
  S    13.238831 12.606743  1.324161
  S    12.594454  9.586712  5.114755
  S    12.513442 13.193627  5.331406
