16  
    
  C     5.537897  5.505621  1.914842
  C     5.555412  8.932147  1.854240
  C     4.430374  4.769178  1.441224
  C     4.409589  8.459634  1.146962
  N     6.482955  5.745108  1.004242
  N     6.566742  9.263564  1.056334
  N     4.493703  4.494398  0.142302
  N     4.573086  8.273497 -0.153393
  N     4.073601  4.864883  4.036214
  N     3.830944  8.462309  3.720109
  S     3.198438  4.511189  2.652274
  S     3.042227  8.147637  2.198946
  S     5.900156  5.135070 -0.409139
  S     6.114610  8.809441 -0.474612
  S     5.552821  5.664148  3.661741
  S     5.362054  9.128030  3.599574
