16  
    
  C    12.316954  9.157756  3.389650
  C    12.156752 12.561154  3.491626
  C    11.101283  8.716182  2.805634
  C    11.011433 12.037997  2.790350
  N    13.371843  9.294181  2.575287
  N    13.226152 12.741560  2.753045
  N    11.285457  8.408446  1.524123
  N    11.167444 11.968194  1.480386
  N    10.509139  8.927126  5.353993
  N    10.228431 12.466460  5.217846
  S     9.814831  8.345803  3.884876
  S     9.593941 12.012224  3.790568
  S    12.808752  8.755239  1.058211
  S    12.770500 12.378372  1.231661
  S    12.135318  9.374619  5.113479
  S    11.839952 12.906830  5.118569
