16  
    
  C    12.394139  9.131761  3.294901
  C    12.265507 12.828497  3.423974
  C    11.122900  8.603264  2.818107
  C    11.156313 12.125912  2.773633
  N    13.379629  9.194503  2.414325
  N    13.328513 12.961686  2.614201
  N    11.216381  8.300239  1.525423
  N    11.350593 11.803431  1.491695
  N    10.827617  9.023315  5.391937
  N    10.371265 12.658948  5.240518
  S     9.885174  8.622855  4.082786
  S     9.725707 12.090936  3.763668
  S    12.755793  8.776380  0.964694
  S    12.934894 12.203094  1.232189
  S    12.401261  9.573568  4.968660
  S    11.977965 13.067329  5.046499
