16  
    
  C     4.359755  5.041575  1.160542
  C     4.345702  8.471467  1.498867
  C     3.097472  4.661437  0.589723
  C     3.155971  8.033064  0.719719
  N     5.377053  5.132843  0.306681
  N     5.423165  8.741646  0.788906
  N     3.174103  4.537897 -0.747752
  N     3.408043  7.887107 -0.571990
  N     2.713954  4.796611  3.109740
  N     2.428514  8.203945  3.161566
  S     1.794272  4.716407  1.735008
  S     1.798275  7.649663  1.671684
  S     4.724347  4.818314 -1.234472
  S     4.955900  8.398761 -0.831168
  S     4.336527  5.187863  2.910329
  S     4.089567  8.381271  3.187274
