16  
    
  C    10.973811  7.737300  3.108519
  C    11.097286 11.708841  2.722746
  C     9.670280  7.365600  2.539850
  C     9.891886 11.140056  2.177025
  N    11.922938  7.932084  2.210607
  N    12.082965 11.945711  1.840143
  N     9.726381  7.278067  1.211403
  N     9.955663 10.939367  0.857164
  N     9.348549  7.612769  5.058396
  N     9.427108 11.384975  4.727859
  S     8.488140  7.134657  3.733877
  S     8.562466 11.008235  3.362841
  S    11.218154  7.774402  0.720574
  S    11.490172 11.358488  0.416785
  S    10.925745  7.824825  4.861013
  S    10.933073 12.008313  4.440036
