16  
    
  C    12.712430  9.068642  3.340335
  C    12.708810 12.831489  3.520059
  C    11.420919  8.731129  2.762712
  C    11.604759 12.268299  2.783494
  N    13.740239  9.188472  2.499452
  N    13.806404 13.054607  2.801574
  N    11.537430  8.550617  1.442767
  N    11.826500 12.089986  1.487519
  N    11.104423  8.884283  5.385973
  N    10.859391 12.499909  5.224638
  S    10.251514  8.489460  4.054928
  S    10.216047 12.046272  3.803372
  S    13.119971  8.775738  1.028257
  S    13.343265 12.710020  1.188586
  S    12.638281  9.489457  5.049934
  S    12.337870 13.154830  5.115179
