16  
    
  C     6.705533  5.650878  1.928514
  C     6.677978  9.568849  1.946471
  C     5.337448  5.498467  1.369752
  C     5.400191  9.121790  1.429521
  N     7.650564  5.820229  0.999493
  N     7.618721  9.667428  1.003938
  N     5.382084  5.318372  0.053454
  N     5.349246  9.025233  0.102414
  N     4.968942  5.880072  3.849282
  N     5.015112  9.299015  3.987703
  S     4.013125  5.429331  2.508437
  S     4.125064  8.979438  2.525890
  S     6.924653  5.543016 -0.487659
  S     6.901237  9.261191 -0.388804
  S     6.646582  5.976998  3.673886
  S     6.602941  9.782340  3.654995
