16  
    
  C     9.933682  7.616731  2.704988
  C     9.883007 11.259196  2.935613
  C     8.692694  7.302232  2.046956
  C     8.742769 10.839288  2.221169
  N    10.963285  7.794999  1.894131
  N    10.938226 11.469260  2.173614
  N     8.730583  7.318569  0.723267
  N     8.863529 10.698677  0.918924
  N     8.178999  7.321855  4.546433
  N     8.004715 11.115778  4.725992
  S     7.312411  7.214308  3.151863
  S     7.340385 10.556783  3.296597
  S    10.337017  7.557347  0.318586
  S    10.486986 11.101301  0.621481
  S     9.748641  7.772505  4.402126
  S     9.630356 11.380024  4.707245
