16  
    
  C     4.918274  4.783023  1.646661
  C     4.805363  8.767046  1.739258
  C     3.579167  4.481426  1.169584
  C     3.513526  8.405112  1.260220
  N     5.820370  4.922764  0.683816
  N     5.679608  9.054927  0.763815
  N     3.471582  4.594939 -0.148991
  N     3.415381  8.268797 -0.062273
  N     3.492554  4.553924  3.816410
  N     3.223898  8.650785  3.870066
  S     2.423079  4.431806  2.509398
  S     2.304018  8.284590  2.503782
  S     5.057930  4.782217 -0.746657
  S     4.906417  8.759608 -0.653275
  S     5.108221  4.832297  3.358137
  S     4.820451  8.917800  3.507830
