16  
    
  C    10.030049  7.755054  2.666784
  C    10.559673 11.517162  3.064722
  C     9.008530  6.990403  2.030168
  C     9.447104 11.150946  2.261520
  N    11.045730  8.076965  1.847118
  N    11.702739 11.549474  2.380854
  N     9.192493  6.681310  0.722969
  N     9.707028 10.996631  0.956819
  N     8.187778  7.643328  4.430418
  N     8.568749 11.398704  4.632749
  S     7.598998  6.809377  3.104748
  S     7.909240 11.315546  3.128149
  S    10.714212  7.374511  0.365637
  S    11.287100 11.271794  0.745569
  S     9.835846  8.155441  4.337852
  S    10.230089 11.574626  4.759257
