16  
    
  C    10.819040  8.363316  3.282530
  C    10.696990 11.893882  3.256699
  C     9.670494  7.692837  2.659677
  C     9.546953 11.300494  2.630000
  N    11.803260  8.527885  2.421484
  N    11.684124 12.096300  2.413342
  N     9.834668  7.362742  1.387978
  N     9.623520 11.242279  1.300986
  N     9.067903  7.959043  5.241301
  N     9.067577 11.484459  5.164905
  S     8.355423  7.498126  3.773851
  S     8.246940 11.066139  3.791079
  S    11.317320  7.993965  0.955141
  S    11.107991 11.694227  0.892894
  S    10.630756  8.679278  4.984398
  S    10.567039 12.133569  4.977849
