16  
    
  C    11.002711  8.134231  3.095326
  C    11.531994 11.727024  3.187133
  C     9.815699  7.488880  2.637999
  C    10.318712 11.458604  2.462361
  N    11.954173  8.247189  2.146125
  N    12.652708 11.783877  2.450314
  N     9.897298  7.096429  1.366366
  N    10.522645 11.298504  1.159830
  N     9.474822  8.077502  5.138196
  N     9.592145 11.414402  4.953824
  S     8.627527  7.383938  3.843641
  S     8.887744 11.253848  3.420352
  S    11.325175  7.648018  0.788309
  S    12.118241 11.374109  0.900102
  S    11.046842  8.453624  4.785423
  S    11.235110 11.900708  4.885633
