16  
    
  C     6.823370  6.034280  2.356035
  C     7.259514  9.585417  2.095000
  C     5.717018  5.389956  1.662236
  C     5.955368  9.326569  1.465796
  N     7.744576  6.587463  1.570716
  N     8.295375  9.758316  1.290911
  N     5.956734  5.335099  0.360935
  N     6.119020  9.250890  0.140367
  N     5.029666  5.423832  4.142994
  N     5.570237  9.827662  3.956577
  S     4.424946  4.813730  2.685096
  S     4.622655  9.364658  2.628499
  S     7.360454  6.168475  0.021787
  S     7.688957  9.514660 -0.287278
  S     6.566324  6.202212  4.073105
  S     7.175518  9.762006  3.786281
