16  
    
  C     5.170903  5.178113  2.006482
  C     5.164540  8.498477  1.971079
  C     3.923902  4.902830  1.366957
  C     3.966023  8.355409  1.147475
  N     6.180022  5.167988  1.143831
  N     6.294307  8.599213  1.248766
  N     3.912799  4.909260  0.024419
  N     4.235008  8.092452 -0.135813
  N     3.295868  5.103721  3.896470
  N     3.181950  8.955650  3.559961
  S     2.586309  4.904650  2.414050
  S     2.485039  8.443613  2.094338
  S     5.489328  4.888569 -0.376591
  S     5.876934  8.269515 -0.347519
  S     5.003228  5.162955  3.775446
  S     4.861708  8.809634  3.644995
