16  
    
  C    12.813147  9.238497  3.463122
  C    12.820943 13.009500  3.491236
  C    11.648949  8.714279  2.804941
  C    11.577974 12.557870  2.905356
  N    13.873319  9.430092  2.692282
  N    13.869623 12.923953  2.631258
  N    11.905329  8.346613  1.551284
  N    11.641355 12.234954  1.596497
  N    11.054882  9.061490  5.264414
  N    11.136672 13.101353  5.408923
  S    10.358445  8.473361  3.870697
  S    10.316648 12.479556  4.132207
  S    13.455657  8.889269  1.195759
  S    13.269475 12.390198  1.255408
  S    12.652825  9.700893  5.086510
  S    12.725006 13.245354  5.186729
