16  
    
  C     6.701038  5.756124  2.032445
  C     6.665879  9.525211  2.110142
  C     5.431533  5.465548  1.439354
  C     5.401002  9.106043  1.596154
  N     7.667590  5.843622  1.119047
  N     7.632825  9.723122  1.226649
  N     5.466695  5.424522  0.121554
  N     5.382651  8.988830  0.280918
  N     4.989360  5.749574  3.921620
  N     5.084393  9.305194  4.192963
  S     4.095982  5.373530  2.568547
  S     4.187352  9.081350  2.809697
  S     7.045079  5.587368 -0.400452
  S     6.937374  9.374900 -0.258493
  S     6.657481  5.955118  3.759407
  S     6.663948  9.827012  3.796049
