16  
    
  C    11.331440  8.131701  3.271967
  C    11.404632 11.733925  3.308714
  C    10.029050  7.801210  2.668095
  C    10.119609 11.465069  2.770232
  N    12.373202  8.069302  2.459373
  N    12.372453 11.774705  2.417974
  N    10.149337  7.608505  1.382580
  N    10.046796 11.339413  1.441705
  N     9.483880  8.326927  5.088951
  N     9.719749 12.122589  5.275572
  S     8.687624  7.651358  3.765255
  S     8.841260 11.718719  3.892575
  S    11.767407  7.759452  0.943840
  S    11.602655 11.456511  0.913868
  S    11.109864  8.482122  4.973215
  S    11.415359 12.050312  4.988285
