16  
    
  C    11.270018  8.175621  3.256402
  C    11.465174 11.672166  3.278220
  C    10.031848  7.827938  2.663021
  C    10.135799 11.363529  2.747314
  N    12.304190  8.092108  2.391784
  N    12.437593 11.748038  2.341468
  N    10.137701  7.524140  1.362681
  N    10.111127 11.364663  1.422345
  N     9.512517  8.250842  5.076886
  N     9.731749 11.973013  5.184430
  S     8.679881  7.634710  3.774607
  S     8.792014 11.695931  3.853896
  S    11.688651  7.726962  0.921221
  S    11.667725 11.464757  0.932900
  S    11.116141  8.469529  4.954605
  S    11.365793 11.994721  4.996524
