16  
    
  C    11.952499  8.414528  3.282560
  C    11.590436 11.948764  3.548427
  C    10.695843  8.206112  2.622635
  C    10.419093 11.466094  2.886074
  N    13.001725  8.623452  2.455775
  N    12.538187 12.383533  2.710667
  N    10.766382  8.217907  1.299933
  N    10.552410 11.331615  1.567658
  N    10.056330  8.209938  5.133200
  N     9.692208 11.700792  5.371638
  S     9.285358  8.199410  3.711650
  S     9.050576 11.198280  3.880891
  S    12.330258  8.484370  0.938203
  S    11.949822 11.972114  1.161955
  S    11.734017  8.493010  5.032503
  S    11.363748 12.074823  5.218582
