16  
    
  C     8.985756  7.188199  2.605672
  C     8.818211 11.140352  2.344572
  C     7.772523  6.458477  2.146188
  C     7.687773 10.419975  1.707760
  N     9.977987  7.383369  1.733861
  N     9.792074 11.543184  1.541710
  N     7.848933  6.153787  0.856554
  N     7.853686 10.344584  0.373247
  N     7.502778  6.939258  4.675859
  N     7.108333 10.753895  4.241053
  S     6.573324  6.305746  3.416663
  S     6.415789 10.055482  2.886518
  S     9.373452  6.668172  0.316721
  S     9.313705 10.968824 -0.011815
  S     9.002379  7.533701  4.277126
  S     8.739643 11.195597  4.060461
