16  
    
  C     5.708866  5.199951  1.868269
  C     5.662126  9.198833  2.001792
  C     4.632831  4.496717  1.232653
  C     4.531051  8.570304  1.416036
  N     6.814311  5.304211  1.106187
  N     6.577677  9.639343  1.126711
  N     4.833757  4.264971 -0.063304
  N     4.670480  8.274871  0.112716
  N     3.982097  4.676199  3.725284
  N     4.106603  8.699596  3.994780
  S     3.220692  4.326115  2.267834
  S     3.327489  8.249871  2.619950
  S     6.389340  4.756483 -0.390228
  S     6.067301  8.991786 -0.305306
  S     5.477816  5.374372  3.632798
  S     5.637971  9.474238  3.737319
