16  
    
  C    10.308355  7.684402  2.630353
  C    10.532207 11.424436  2.900493
  C     9.039177  7.172910  2.055115
  C     9.319844 11.245655  2.122140
  N    11.307405  7.772245  1.758445
  N    11.679378 11.298787  2.202210
  N     9.079893  6.943188  0.755717
  N     9.580217 11.168577  0.797523
  N     8.477337  7.706821  4.469334
  N     8.561666 11.395944  4.542122
  S     7.702790  7.082683  3.122098
  S     7.890207 11.428843  3.031887
  S    10.653814  7.293546  0.283047
  S    11.186135 11.186843  0.569086
  S    10.125177  8.059660  4.311349
  S    10.197508 11.615228  4.570482
