16  
    
  C     9.416469  7.041231  2.998644
  C     9.618642 10.797354  2.620795
  C     8.278427  6.469225  2.284412
  C     8.367800 10.296949  1.984337
  N    10.397015  7.423583  2.158990
  N    10.576089 11.129077  1.746288
  N     8.377216  6.510491  0.957524
  N     8.464386 10.314031  0.646718
  N     7.701612  6.446307  4.750076
  N     7.947810 10.350871  4.505143
  S     6.989841  6.002640  3.300537
  S     7.139522  9.946605  3.120836
  S     9.881392  7.136403  0.614989
  S     9.980277 10.859725  0.219488
  S     9.238814  6.932881  4.720690
  S     9.517025 10.884634  4.346180
