16  
    
  C    11.720710  8.538756  3.194729
  C    11.353799 12.163510  3.331512
  C    10.506374  8.078919  2.612090
  C    10.221047 11.599690  2.626314
  N    12.664346  8.902921  2.308131
  N    12.347576 12.641626  2.623042
  N    10.474056  8.063367  1.264689
  N    10.456855 11.504220  1.340467
  N    10.118608  8.178915  5.232846
  N     9.493250 11.815840  5.103818
  S     9.236704  7.718395  3.810025
  S     8.820994 11.355863  3.652645
  S    12.014686  8.615316  0.789335
  S    11.892452 12.256669  1.009388
  S    11.634013  8.788338  4.915491
  S    11.124701 12.230524  4.987847
