16  
    
  C     5.588952  5.486405  1.894829
  C     5.399999  8.871501  1.758175
  C     4.349447  4.943323  1.412228
  C     4.252147  8.413530  1.044601
  N     6.542700  5.561050  0.973654
  N     6.433857  9.168169  0.991927
  N     4.237295  4.857093  0.090970
  N     4.477170  8.165939 -0.239675
  N     4.052098  5.138905  3.987582
  N     3.436374  8.895375  3.460388
  S     3.139714  4.746934  2.631436
  S     2.916944  8.087952  2.085717
  S     5.721445  5.309316 -0.512533
  S     6.083539  8.720523 -0.564861
  S     5.667790  5.490753  3.690092
  S     5.131580  9.146080  3.469083
