16  
    
  C     7.454950  5.959075  2.178736
  C     7.889775  9.845598  2.193553
  C     6.213781  5.583885  1.541389
  C     6.611054  9.440452  1.668479
  N     8.464054  6.326409  1.368582
  N     8.884623  9.972735  1.347593
  N     6.299381  5.436581  0.227911
  N     6.619116  9.301698  0.354285
  N     5.704588  5.703062  4.014500
  N     6.379512  9.347820  4.169385
  S     4.987868  5.160703  2.648639
  S     5.378660  9.241174  2.882150
  S     7.830550  5.983394 -0.144173
  S     8.143060  9.588104 -0.143649
  S     7.265759  6.125765  3.903047
  S     7.868260 10.006511  3.970761
