16  
    
  C     4.611690  5.047005  2.048593
  C     4.721714  8.770924  1.502877
  C     3.438594  4.824705  1.234385
  C     3.572831  8.157800  0.842151
  N     5.777588  5.159720  1.393816
  N     5.755958  9.033878  0.711299
  N     3.774317  4.535162 -0.031828
  N     3.659725  8.157602 -0.484031
  N     2.652619  4.942030  3.769704
  N     2.958270  8.359013  3.332898
  S     2.021382  4.522538  2.309956
  S     2.225704  7.837391  1.940142
  S     5.394454  4.890965 -0.186154
  S     5.226611  8.751312 -0.880435
  S     4.321593  5.134704  3.733981
  S     4.541636  8.782907  3.264703
