16  
    
  C    12.154366  8.945700  3.539860
  C    11.997033 12.411376  3.404595
  C    11.016536  8.478221  2.773600
  C    10.652356 12.146931  2.826499
  N    13.223393  9.046540  2.739461
  N    12.931089 12.571536  2.456008
  N    11.234667  8.345508  1.485669
  N    10.587499 12.124535  1.501062
  N    10.233900  8.579108  5.178961
  N    10.231961 12.038156  5.331348
  S     9.535290  8.348700  3.708072
  S     9.365792 11.865174  3.909122
  S    12.747466  8.827566  1.172503
  S    12.193711 12.213852  1.018709
  S    11.784630  9.032040  5.279592
  S    11.918551 12.422619  5.134483
