16  
    
  C    10.994327  7.823156  3.078151
  C    10.975199 11.698111  2.751566
  C     9.711534  7.314559  2.549060
  C     9.756329 11.193786  2.147990
  N    11.876626  8.133794  2.142405
  N    11.956863 11.840143  1.891533
  N     9.654589  7.258267  1.218187
  N     9.870859 10.897104  0.875195
  N     9.385696  7.519941  5.168829
  N     9.404128 11.213071  4.658341
  S     8.495860  7.104495  3.784205
  S     8.509567 11.041043  3.249077
  S    11.163161  7.725155  0.688585
  S    11.384791 11.411198  0.364877
  S    11.027760  8.028507  4.822506
  S    10.905108 11.971810  4.488705
