16  
    
  C     9.375288  6.723813  2.432644
  C     9.418001 10.549312  2.843162
  C     8.168686  6.336421  1.714910
  C     8.137630 10.415985  2.127519
  N    10.425533  6.813139  1.600682
  N    10.486213 10.356680  2.038515
  N     8.294991  6.046818  0.433807
  N     8.264455  9.998674  0.873175
  N     7.375323  6.617404  4.101870
  N     7.614045 10.991441  4.572827
  S     6.716545  6.205781  2.628540
  S     6.794456 10.630095  3.184257
  S     9.861081  6.398484  0.051857
  S     9.889991  9.974279  0.524510
  S     9.006734  6.870615  4.115119
  S     9.252071 10.910292  4.478098
