16  
    
  C     8.596906  7.280338  2.661800
  C     8.899907 11.075359  2.209930
  C     7.476110  6.599082  2.130694
  C     7.764857 10.573874  1.531977
  N     9.588473  7.521484  1.815079
  N     9.930930 11.379532  1.467764
  N     7.529647  6.365848  0.819879
  N     7.894520 10.595371  0.188944
  N     7.088951  6.978440  4.639198
  N     7.248733 10.402346  4.078928
  S     6.369459  6.179157  3.401522
  S     6.471936 10.136810  2.619701
  S     9.055543  6.898067  0.393635
  S     9.423355 11.143788 -0.064733
  S     8.689368  7.487476  4.385296
  S     8.791173 11.061470  3.963390
