16  
    
  C    10.208081  7.306049  2.629156
  C    10.361121 10.905957  2.750943
  C     8.981465  6.899690  2.024143
  C     9.088151 10.912715  2.092082
  N    11.252291  7.478546  1.808092
  N    11.401102 11.010439  1.943098
  N     9.030686  6.701021  0.704917
  N     9.161510 10.869892  0.788508
  N     8.415214  7.366263  4.542688
  N     8.517013 10.766912  4.591661
  S     7.617281  6.904907  3.154963
  S     7.724422 10.975685  3.171170
  S    10.596212  7.165285  0.271080
  S    10.759376 10.984114  0.339217
  S    10.125032  7.489066  4.372742
  S    10.224962 11.052484  4.489942
