16  
    
  C     8.398245  6.682353  2.393331
  C     8.388652 10.324887  2.325733
  C     7.190674  6.157939  1.778186
  C     7.131452  9.930182  1.761388
  N     9.414047  6.805235  1.560423
  N     9.407398 10.246701  1.444883
  N     7.239634  6.103425  0.457348
  N     7.197313  9.682019  0.456114
  N     6.764346  6.195931  4.287990
  N     6.735121 10.148722  4.317251
  S     5.871570  5.908508  2.937198
  S     5.921895  9.609615  2.963129
  S     8.857124  6.552519  0.017301
  S     8.819484  9.838303 -0.002257
  S     8.336844  6.778826  4.141461
  S     8.318067 10.538071  4.091987
