16  
    
  C    12.719470  8.966399  3.876266
  C    12.623601 12.773574  3.936762
  C    11.576295  8.332984  3.229615
  C    11.456413 12.272893  3.211725
  N    13.667195  9.215509  2.978522
  N    13.691823 13.048938  3.192131
  N    11.632320  8.260497  1.884728
  N    11.711621 12.035849  1.948099
  N    10.941496  8.597112  5.803534
  N    10.686937 12.339541  5.672313
  S    10.289674  8.115340  4.319906
  S    10.109852 11.862361  4.158010
  S    13.071899  8.837800  1.471448
  S    13.268765 12.505752  1.640164
  S    12.618158  9.055391  5.636843
  S    12.296038 12.754383  5.665404
