16  
    
  C     4.194287  4.870551  1.647151
  C     4.087572  8.304423  1.518771
  C     2.949833  4.501397  1.018577
  C     2.888973  7.957872  0.823626
  N     5.225575  4.804217  0.773032
  N     5.113082  8.597633  0.721406
  N     2.993277  4.387692 -0.293327
  N     3.045185  7.643046 -0.473038
  N     2.372130  4.705633  3.426248
  N     2.212091  8.353180  3.243639
  S     1.570385  4.372273  2.070755
  S     1.459090  7.949475  1.849606
  S     4.537100  4.421269 -0.713898
  S     4.619380  8.077393 -0.833910
  S     4.016214  5.004742  3.356509
  S     3.879223  8.648436  3.209063
