16  
    
  C    10.897739  8.128896  3.226731
  C    10.645407 12.036943  3.186766
  C     9.672265  7.596841  2.641348
  C     9.512879 11.247088  2.718908
  N    11.855893  8.338040  2.362274
  N    11.565053 12.363503  2.282470
  N     9.726691  7.435594  1.343109
  N     9.533069 11.021764  1.411659
  N     9.205689  7.713676  5.216909
  N     9.083677 11.669806  5.241564
  S     8.442318  7.303288  3.714211
  S     8.307573 11.009563  3.963020
  S    11.292291  7.844072  0.860734
  S    10.911523 11.768753  0.838687
  S    10.776401  8.274576  4.963054
  S    10.669157 12.062231  4.943288
