16  
    
  C    10.991679  7.867632  3.137707
  C    11.513270 11.968824  3.021838
  C     9.739216  7.489515  2.422088
  C    10.413704 11.261931  2.442725
  N    12.101581  7.994338  2.389877
  N    12.552515 12.068206  2.187212
  N     9.975754  7.375563  1.101805
  N    10.567027 10.857548  1.175417
  N     9.036957  7.874861  4.830881
  N     9.742249 11.525417  4.981165
  S     8.327952  7.350238  3.408444
  S     9.124793 10.890071  3.526520
  S    11.596217  7.582432  0.814793
  S    12.099733 11.419830  0.753213
  S    10.698418  8.105071  4.826901
  S    11.307747 12.232338  4.789732
