16  
    
  C     8.449657  6.653142  2.411114
  C     8.405552 10.324176  2.346403
  C     7.195127  6.171480  1.774007
  C     7.121231  9.928579  1.753197
  N     9.436625  6.831675  1.562847
  N     9.426193 10.285622  1.466952
  N     7.247226  6.087661  0.455620
  N     7.196101  9.691406  0.457762
  N     6.783435  6.190627  4.298768
  N     6.698962 10.147803  4.317965
  S     5.914287  5.915141  2.935177
  S     5.923179  9.595111  2.945534
  S     8.846187  6.550653 -0.004131
  S     8.822410  9.830811 -0.001453
  S     8.341465  6.777500  4.142877
  S     8.298356 10.542177  4.110459
