16  
    
  C     8.701309  7.147783  2.630766
  C     9.010012 10.964166  2.123339
  C     7.553367  6.613518  2.039189
  C     7.824806 10.581017  1.473958
  N     9.551895  7.660996  1.735284
  N    10.040344 11.247544  1.304628
  N     7.596578  6.530541  0.708753
  N     7.911003 10.532513  0.151609
  N     7.093002  6.665003  4.536915
  N     7.261222 10.413792  3.978889
  S     6.257119  6.306868  3.117524
  S     6.488934 10.316988  2.514297
  S     8.993025  7.262891  0.260621
  S     9.552921 10.940943 -0.210130
  S     8.557432  7.364441  4.359360
  S     8.853701 10.896638  3.891433
