16  
    
  C    12.769437  9.135903  3.415721
  C    12.805252 12.685104  3.473061
  C    11.503076  8.611454  2.891446
  C    11.619239 12.195878  2.791900
  N    13.726948  9.110196  2.506753
  N    13.808043 13.072404  2.652582
  N    11.468436  8.433690  1.609994
  N    11.801301 12.101155  1.486419
  N    11.121525  8.966038  5.414548
  N    10.876038 12.426506  5.252986
  S    10.267573  8.430196  4.013061
  S    10.228638 12.016250  3.764653
  S    13.007878  8.833201  1.023964
  S    13.314962 12.651477  1.145386
  S    12.700239  9.444081  5.114925
  S    12.417995 13.090058  5.157026
