16  
    
  C     4.380462  4.988382  1.366937
  C     4.225157  8.555038  1.650628
  C     3.087906  4.656866  0.785423
  C     3.099566  8.248418  0.837578
  N     5.409542  5.110305  0.557053
  N     5.305385  8.898247  0.952121
  N     3.195217  4.549769 -0.540193
  N     3.335764  8.247712 -0.460701
  N     2.793440  5.065521  3.322183
  N     2.343465  7.752126  3.124494
  S     1.813337  4.598501  2.038062
  S     1.645241  7.766168  1.639759
  S     4.813753  4.875232 -0.921913
  S     4.880595  8.782412 -0.603050
  S     4.454102  5.121154  3.081794
  S     3.791416  8.547898  3.357813
