16  
    
  C     3.764343  4.742734  1.589402
  C     3.777949  8.368854  1.714277
  C     2.455724  4.513652  0.950203
  C     2.606429  7.890658  1.056466
  N     4.826262  4.623716  0.782715
  N     4.824442  8.525912  0.910912
  N     2.555578  4.448968 -0.376683
  N     2.815849  7.458099 -0.182734
  N     2.065684  4.804590  3.446255
  N     1.961791  8.390798  3.479648
  S     1.114872  4.482604  2.092862
  S     1.206121  7.912562  2.050070
  S     4.170484  4.362073 -0.696466
  S     4.375724  7.855859 -0.521650
  S     3.699865  4.904820  3.287728
  S     3.555995  8.825120  3.379169
