16  
    
  C    11.320213  8.156899  3.267053
  C    11.439921 11.709493  3.293962
  C    10.011801  7.818130  2.675367
  C    10.148098 11.397944  2.760062
  N    12.333722  8.069281  2.420921
  N    12.403717 11.764962  2.389366
  N    10.158451  7.573765  1.380494
  N    10.073511 11.361047  1.423786
  N     9.514311  8.294945  5.078860
  N     9.722409 12.059037  5.237505
  S     8.678740  7.641983  3.768081
  S     8.812875 11.709851  3.875886
  S    11.734082  7.745875  0.932082
  S    11.624010 11.458437  0.925200
  S    11.106708  8.475611  4.966054
  S    11.393967 12.022331  4.989887
