16  
    
  C    11.661941  8.573483  3.208941
  C    11.375955 12.202152  3.302352
  C    10.458868  7.997215  2.621911
  C    10.203754 11.709505  2.621444
  N    12.549133  8.934788  2.318410
  N    12.402559 12.633414  2.537831
  N    10.471743  7.988954  1.296996
  N    10.443543 11.486677  1.319343
  N    10.054829  8.210185  5.197670
  N     9.454449 11.870683  5.117461
  S     9.243953  7.748404  3.813859
  S     8.822199 11.346155  3.580922
  S    11.999215  8.586222  0.788556
  S    11.886891 12.283938  0.988006
  S    11.591306  8.837074  4.941299
  S    11.130892 12.227097  5.015709
