16  
    
  C     9.826912  7.748747  2.799029
  C    10.649951 11.511077  3.156209
  C     8.803157  7.074739  1.999233
  C     9.389567 11.221246  2.395991
  N    10.900799  8.066898  2.069322
  N    11.717636 11.594088  2.378929
  N     9.147056  6.893864  0.722383
  N     9.554110 10.956684  1.112026
  N     7.977464  7.219665  4.390635
  N     8.715290 11.353222  4.913614
  S     7.403080  6.647370  2.974957
  S     7.988044 10.976468  3.405453
  S    10.731544  7.473525  0.534929
  S    11.196575 11.237593  0.830325
  S     9.394384  8.030011  4.474068
  S    10.333594 11.783459  4.850580
