16  
    
  C    11.058468  8.256877  2.953345
  C    10.795400 11.944254  3.016838
  C     9.846757  7.691289  2.345388
  C     9.676200 11.304813  2.387792
  N    12.042007  8.462155  2.090100
  N    11.829823 12.159297  2.206081
  N     9.949120  7.492346  1.052997
  N     9.774898 11.090158  1.077878
  N     9.360832  7.806090  4.921655
  N     9.039756 11.587105  4.905054
  S     8.572500  7.442271  3.480785
  S     8.352400 11.033330  3.467863
  S    11.509351  7.951026  0.566797
  S    11.337025 11.673347  0.697806
  S    10.934929  8.540145  4.651910
  S    10.611659 12.075152  4.829335
