16  
    
  C     9.968634  7.596197  2.689283
  C     9.885079 11.253027  2.976686
  C     8.713991  7.339026  2.040319
  C     8.726268 10.839666  2.241562
  N    10.987363  7.767019  1.851632
  N    10.922142 11.520107  2.206445
  N     8.711976  7.314449  0.717185
  N     8.901076 10.653902  0.924399
  N     8.168861  7.344476  4.586617
  N     7.980228 11.116560  4.719259
  S     7.332959  7.212950  3.137176
  S     7.363876 10.520674  3.291368
  S    10.292669  7.553290  0.291662
  S    10.493769 11.106340  0.617335
  S     9.749107  7.775459  4.408735
  S     9.638327 11.388979  4.704855
