16  
    
  C    12.430665  9.097005  3.358593
  C    12.250816 12.826487  3.395396
  C    11.140591  8.677387  2.838431
  C    11.079044 12.238234  2.686035
  N    13.364926  9.190688  2.445537
  N    13.340849 12.819597  2.628105
  N    11.185394  8.395326  1.562273
  N    11.356661 11.785066  1.450541
  N    10.777696  9.197741  5.371069
  N    10.604052 12.552071  5.218631
  S     9.930360  8.661617  4.091881
  S     9.759519 11.996203  3.892471
  S    12.710591  8.634010  1.026626
  S    12.966948 12.216223  1.134391
  S    12.407645  9.564402  5.016789
  S    12.092848 13.178642  5.057580
