16  
    
  C    11.023571  8.160387  3.109999
  C    11.523874 11.703497  3.181186
  C     9.814888  7.501305  2.638208
  C    10.297031 11.478800  2.473674
  N    11.977476  8.259263  2.154016
  N    12.652351 11.803066  2.462081
  N     9.900687  7.086160  1.367149
  N    10.508637 11.323075  1.184358
  N     9.487457  8.083063  5.159369
  N     9.603276 11.414881  4.952107
  S     8.618991  7.392949  3.845171
  S     8.874319 11.270494  3.439394
  S    11.335271  7.651712  0.786111
  S    12.107236 11.357148  0.893192
  S    11.061808  8.451772  4.781368
  S    11.237656 11.892886  4.887316
