16  
    
  C    10.970179  7.645606  3.153760
  C    11.203215 11.767745  2.819552
  C     9.750583  7.481046  2.474156
  C     9.999322 11.173229  2.241750
  N    12.011492  7.818018  2.337845
  N    12.202978 11.921134  1.956523
  N     9.851843  7.559534  1.123854
  N    10.120495 10.814541  0.948436
  N     9.186776  7.676394  4.944177
  N     9.519229 11.785829  4.661913
  S     8.378776  7.210622  3.508142
  S     8.819442 10.902752  3.458297
  S    11.459687  7.667285  0.791371
  S    11.617418 11.389827  0.521780
  S    10.805170  7.645088  4.891909
  S    11.139975 12.128587  4.569106
