16  
    
  C     9.845408  7.337053  2.518478
  C    10.397959 11.232735  2.541269
  C     8.654703  6.725700  2.044373
  C     9.147820 10.904464  1.939717
  N    10.771630  7.611126  1.594323
  N    11.380839 11.486029  1.702173
  N     8.708439  6.530775  0.745129
  N     9.205416 10.661666  0.637979
  N     8.101340  7.270801  4.496945
  N     8.661980 11.058747  4.500672
  S     7.363592  6.555560  3.141164
  S     7.817148 10.895779  3.048904
  S    10.151813  7.067584  0.174343
  S    10.728309 11.125474  0.214908
  S     9.600882  7.924052  4.160049
  S    10.276372 11.504956  4.310533
