16  
    
  C    12.109507  8.536024  3.612436
  C    11.985215 12.176704  3.261658
  C    10.911442  8.086362  2.936714
  C    10.732935 11.808904  2.691085
  N    13.160050  8.768150  2.809320
  N    12.961804 12.384039  2.361020
  N    11.008935  7.989886  1.600892
  N    10.814381 11.455685  1.418246
  N    10.173192  8.334338  5.416683
  N    10.242658 11.964991  5.189261
  S     9.484153  7.905433  3.905620
  S     9.475238 11.552888  3.796981
  S    12.577935  8.368667  1.266719
  S    12.269486 11.816076  0.902551
  S    11.782149  8.805254  5.306903
  S    11.889625 12.207001  5.045112
