16  
    
  C    11.997940  8.617040  3.544893
  C    11.906187 12.296330  3.204021
  C    10.838066  8.114635  2.909134
  C    10.636063 11.824588  2.677792
  N    13.026319  8.812843  2.726454
  N    12.917700 12.241503  2.335033
  N    10.970325  7.903110  1.588105
  N    10.633922 11.577203  1.382028
  N    10.266878  8.340619  5.399460
  N    10.238482 11.889768  5.189879
  S     9.497891  7.892144  4.017021
  S     9.306355 11.545326  3.830611
  S    12.535837  8.315874  1.208755
  S    12.254709 11.860402  0.886157
  S    11.806686  8.832103  5.253010
  S    11.867193 12.215840  4.931700
