16  
    
  C     4.414854  4.888967  1.459324
  C     4.168409  8.693072  1.689458
  C     3.139133  4.731565  0.827249
  C     3.077726  8.180937  0.815275
  N     5.427257  5.164857  0.636556
  N     5.294930  8.970152  1.020168
  N     3.232594  4.649464 -0.513476
  N     3.316707  8.335138 -0.476651
  N     2.743237  5.104131  3.427599
  N     2.285821  7.790414  3.218864
  S     1.864239  4.577426  2.132177
  S     1.615493  7.756962  1.629889
  S     4.825125  4.828546 -0.874854
  S     4.887897  8.834756 -0.639444
  S     4.401019  5.142650  3.142673
  S     3.777134  8.515010  3.379564
