16  
    
  C     8.474354  6.722397  2.314214
  C     8.141327 10.351857  2.595789
  C     7.289054  6.091172  1.772957
  C     7.079597  9.703725  1.862582
  N     9.495374  6.740053  1.456835
  N     9.280006 10.452109  1.947617
  N     7.297793  5.865165  0.457519
  N     7.417410  9.403475  0.611233
  N     6.832127  6.449817  4.267842
  N     6.290806  9.744485  4.288747
  S     5.972616  5.995010  2.854591
  S     5.769674  9.162449  2.844581
  S     8.850630  6.291877 -0.041887
  S     9.040185  9.866976  0.424789
  S     8.357381  7.054781  4.021586
  S     7.743429 10.529321  4.319905
