16  
    
  C     7.862904  6.193702  2.161341
  C     8.025688 10.311111  2.179144
  C     6.628010  5.887829  1.521114
  C     6.863148  9.801235  1.516214
  N     8.857206  6.567511  1.395149
  N     9.042306 10.555206  1.382420
  N     6.731566  5.793700  0.202179
  N     7.013602  9.591039  0.219128
  N     6.218202  5.806265  4.035810
  N     6.305659 10.138860  4.084880
  S     5.402740  5.462166  2.688938
  S     5.525446  9.675268  2.656831
  S     8.331288  6.324158 -0.127895
  S     8.634657 10.147526 -0.131320
  S     7.844099  6.272382  3.859059
  S     7.892201 10.575597  3.881377
