16  
    
  C    12.286912  9.059410  3.794458
  C    12.606908 12.606973  3.533396
  C    11.169654  8.432581  3.155468
  C    11.315409 12.466151  2.894681
  N    13.320744  9.281722  2.980196
  N    13.632811 12.878472  2.728317
  N    11.316691  8.245083  1.848663
  N    11.400406 12.479904  1.575792
  N    10.652846  8.709905  5.598438
  N    10.871480 12.354195  5.454914
  S     9.895377  8.018502  4.306884
  S    10.015048 12.272612  4.066401
  S    12.831976  8.817036  1.484749
  S    13.054720 12.735957  1.189307
  S    12.132091  9.224638  5.448421
  S    12.443063 12.981134  5.281063
