16  
    
  C    11.778641  8.560182  3.513432
  C    11.726853 11.902476  3.379557
  C    10.599231  8.215946  2.819600
  C    10.463310 11.654495  2.674865
  N    12.830950  8.770190  2.719276
  N    12.771000 11.930757  2.563082
  N    10.761093  8.016908  1.493795
  N    10.528488 11.643146  1.354546
  N     9.885387  8.568657  5.253347
  N     9.730649 11.812399  5.156727
  S     9.198861  8.282694  3.756769
  S     9.057637 11.456551  3.621096
  S    12.340646  8.472432  1.136601
  S    12.192582 11.877316  1.017364
  S    11.566409  8.858766  5.245287
  S    11.397096 11.972742  5.131885
