16  
    
  C    10.679002  8.343346  3.100887
  C    10.790786 11.774515  3.134037
  C     9.483814  7.762383  2.506351
  C     9.630144 11.342032  2.432373
  N    11.687600  8.551252  2.262053
  N    11.899430 11.977068  2.409120
  N     9.625147  7.546374  1.211061
  N     9.826938 11.103013  1.154546
  N     9.043523  8.009771  5.001868
  N     8.812213 11.725440  4.914196
  S     8.212242  7.664188  3.664360
  S     8.167334 11.308016  3.416618
  S    11.208490  8.050772  0.782078
  S    11.381269 11.574720  0.849244
  S    10.501074  8.744250  4.764240
  S    10.426163 12.064979  4.827895
