16  
    
  C     6.669619  5.895146  2.179210
  C     6.739717  9.779437  2.278227
  C     5.412713  5.472145  1.600097
  C     5.473343  9.346622  1.707043
  N     7.650000  5.940354  1.281350
  N     7.702473  9.916838  1.389319
  N     5.398957  5.380191  0.259525
  N     5.495155  9.075028  0.394980
  N     5.138353  5.552994  4.181107
  N     5.122215  9.336306  4.309726
  S     4.205831  5.242029  2.804774
  S     4.272055  9.117056  2.936274
  S     6.977415  5.668351 -0.207231
  S     6.995917  9.470708 -0.118269
  S     6.679878  5.981383  3.922026
  S     6.711001  9.875836  4.003815
