16  
    
  C     9.319193  6.995838  2.906889
  C     9.617141 10.824702  2.636642
  C     8.165702  6.498431  2.228974
  C     8.547865 10.212495  1.986980
  N    10.322960  7.277070  2.082523
  N    10.584727 11.218367  1.813243
  N     8.194794  6.553697  0.908780
  N     8.571237 10.209416  0.671511
  N     7.570417  6.563580  4.700024
  N     8.010021 10.268959  4.482149
  S     6.870642  5.952351  3.311115
  S     7.260291  9.736279  3.117943
  S     9.770278  7.015032  0.540969
  S    10.030937 10.889029  0.269589
  S     9.150187  6.933008  4.601580
  S     9.543010 10.880695  4.351808
