16  
    
  C     6.164180  5.584467  2.101674
  C     6.074075  9.225101  1.594953
  C     4.834844  5.490636  1.504964
  C     4.852927  8.695269  1.038980
  N     7.151361  5.614643  1.194159
  N     7.050554  9.322707  0.683900
  N     4.863370  5.173114  0.210485
  N     4.902866  8.476163 -0.257461
  N     4.405918  5.872384  4.016548
  N     4.260010  9.295937  3.461800
  S     3.519713  5.651865  2.664805
  S     3.490613  8.587352  2.052841
  S     6.425455  5.345482 -0.264864
  S     6.430781  8.879381 -0.763590
  S     6.129969  5.904232  3.765905
  S     5.905018  9.409346  3.289047
