16  
    
  C     4.515215  5.102314  1.600183
  C     4.143058  8.660997  1.649352
  C     3.244981  4.749471  1.010834
  C     3.002513  8.342739  0.785947
  N     5.497885  5.004077  0.714418
  N     5.194096  9.149448  0.965913
  N     3.200966  4.645253 -0.311888
  N     3.332105  8.337185 -0.502074
  N     2.714988  5.081188  3.487609
  N     2.189968  7.978767  3.225579
  S     1.913621  4.590634  2.101435
  S     1.663906  7.704390  1.704992
  S     4.806911  4.824939 -0.792298
  S     4.892117  8.897734 -0.605481
  S     4.364197  5.214693  3.403275
  S     3.759541  8.443786  3.343544
