16  
    
  C     7.719245  6.535326  2.445788
  C     7.810371 10.043981  2.074030
  C     6.504391  6.136523  1.826526
  C     6.558224  9.891027  1.446198
  N     8.758846  6.663271  1.654794
  N     8.851038 10.027036  1.283121
  N     6.602589  5.834125  0.566292
  N     6.647943  9.781210  0.130412
  N     5.901513  6.861269  4.235922
  N     6.010409 10.096452  3.974862
  S     5.152752  6.155962  2.877774
  S     5.192451  9.955789  2.526084
  S     8.240519  6.159293  0.168500
  S     8.302925  9.774743 -0.216814
  S     7.483314  7.076060  4.064923
  S     7.635011 10.410289  3.782169
