16  
    
  C    10.067735  7.754298  3.022727
  C    10.519942 11.821307  2.970043
  C     8.901613  7.360198  2.283477
  C     9.373378 11.057180  2.579117
  N    11.116603  7.938369  2.238427
  N    11.399262 11.933809  2.006744
  N     9.076162  7.245116  0.957156
  N     9.295156 10.700011  1.310504
  N     8.371998  7.017736  4.873607
  N     9.155568 11.452571  5.117054
  S     7.566937  6.859801  3.349524
  S     8.174658 10.838978  3.875843
  S    10.636363  7.627466  0.695768
  S    10.789181 11.246357  0.649683
  S    10.022350  7.551822  4.742455
  S    10.636080 12.024834  4.724914
