16  
    
  C     8.607179  6.876894  2.346720
  C     8.953161 10.205482  2.711418
  C     7.386061  6.452671  1.619752
  C     7.665142  9.981644  2.068032
  N     9.650141  7.171419  1.582423
  N    10.017592 10.376240  1.906731
  N     7.628964  6.278236  0.330880
  N     7.733967  9.973777  0.762342
  N     6.684836  6.531068  4.073570
  N     7.201641 10.304809  4.549065
  S     6.053791  6.000900  2.639950
  S     6.397440  9.864959  3.178980
  S     9.184034  6.657635  0.009086
  S     9.322747 10.170735  0.328462
  S     8.332947  7.036037  4.070788
  S     8.825483 10.569372  4.378272
