16  
    
  C    10.977349  7.731005  3.138889
  C    11.433622 11.731289  2.892612
  C     9.774964  7.594379  2.381966
  C    10.230722 11.090147  2.437062
  N    12.139737  7.708372  2.460672
  N    12.337043 12.027685  1.943367
  N     9.951953  7.493514  1.049698
  N    10.215981 10.873555  1.127093
  N     9.046582  7.553855  4.925222
  N     9.581002 11.748185  4.835981
  S     8.358651  7.340691  3.362388
  S     8.910568 10.896786  3.539249
  S    11.606276  7.651972  0.825836
  S    11.727529 11.380561  0.538699
  S    10.692580  7.670079  4.866912
  S    11.182397 12.211464  4.562525
