16  
    
  C     9.969749  7.721199  2.986353
  C    10.566086 11.665473  3.004513
  C     8.777800  7.298948  2.272539
  C     9.328442 11.080155  2.559828
  N    11.079693  7.940069  2.262280
  N    11.426021 11.948116  2.029142
  N     9.026338  7.135051  0.963668
  N     9.387916 10.708666  1.288902
  N     8.265253  7.007981  4.709659
  N     9.043438 11.384364  5.115669
  S     7.469221  6.840584  3.280651
  S     8.167958 10.863466  3.804196
  S    10.623551  7.651891  0.698270
  S    10.808102 11.177912  0.657934
  S     9.777406  7.545620  4.688707
  S    10.596249 11.999021  4.726293
