16  
    
  C     3.463585  4.651477  1.491988
  C     3.588085  8.334595  1.250275
  C     2.336945  4.053509  0.855026
  C     2.314432  8.088884  0.690847
  N     4.531751  4.777401  0.714697
  N     4.567129  8.445357  0.370728
  N     2.549448  3.821907 -0.434482
  N     2.237564  8.087926 -0.635613
  N     1.690388  4.251853  3.334306
  N     1.900512  8.134760  3.240032
  S     1.053373  3.613957  1.945417
  S     1.031270  7.796511  1.826208
  S     4.056658  4.293321 -0.822671
  S     3.781982  8.306188 -1.127696
  S     3.256907  4.835593  3.170351
  S     3.490010  8.590769  2.961700
