16  
    
  C     8.117370  6.547665  2.565803
  C     8.556429 10.237195  2.362079
  C     6.922140  6.201276  1.863895
  C     7.283418  9.826187  1.868221
  N     9.164020  6.751693  1.781575
  N     9.474350 10.302884  1.400663
  N     7.052098  5.962794  0.555498
  N     7.246935  9.483870  0.579666
  N     6.240657  6.314406  4.307220
  N     6.905268 10.407911  4.358301
  S     5.515981  5.954575  2.865635
  S     6.025025  9.752864  3.065268
  S     8.661695  6.435697  0.220319
  S     8.753591  9.911956  0.005880
  S     7.863872  6.772513  4.256921
  S     8.541388 10.482663  4.105055
