16  
    
  C    11.875826  8.804339  3.394280
  C    11.595699 12.209971  3.259125
  C    10.606779  8.281633  2.916481
  C    10.461072 11.575276  2.581445
  N    12.824509  8.888994  2.477717
  N    12.579065 12.557949  2.434829
  N    10.584190  8.044949  1.620340
  N    10.636345 11.395616  1.267065
  N    10.216910  8.619481  5.385372
  N     9.717240 11.852470  4.961263
  S     9.326844  8.299501  4.050787
  S     9.089815 11.231334  3.607172
  S    12.098408  8.311150  1.050779
  S    12.150567 12.078203  0.906283
  S    11.811121  9.086843  5.083616
  S    11.157487 12.633716  4.946269
