16  
    
  C    12.814573  9.382290  3.433429
  C    12.829585 12.916863  3.500533
  C    11.699650  8.758066  2.792041
  C    11.545929 12.636694  2.936211
  N    13.903936  9.377877  2.725266
  N    13.857062 12.998389  2.680356
  N    11.858417  8.424124  1.513109
  N    11.602088 12.255931  1.660823
  N    11.058051  9.023676  5.326322
  N    11.079646 13.026503  5.476194
  S    10.388582  8.493307  3.868047
  S    10.322263 12.456964  4.134384
  S    13.437003  8.871151  1.196304
  S    13.211449 12.365584  1.246918
  S    12.599446  9.730171  5.108149
  S    12.694720 13.203243  5.217740
