16  
    
  C     9.804435  7.696235  2.792309
  C    10.613111 11.487978  3.127221
  C     8.778880  7.058420  2.034010
  C     9.379497 11.195963  2.438777
  N    10.902573  8.057185  2.125699
  N    11.735878 11.588421  2.381264
  N     9.100695  6.938594  0.736783
  N     9.560583 10.965283  1.130192
  N     7.907285  7.244735  4.395988
  N     8.717519 11.380543  4.923764
  S     7.392259  6.631818  2.974591
  S     8.016808 10.945415  3.449665
  S    10.732280  7.503480  0.561175
  S    11.150842 11.239114  0.815972
  S     9.397758  7.984945  4.474652
  S    10.347381 11.810243  4.835471
