16  
    
  C    10.507939  7.262723  2.809547
  C    10.245043 11.036082  2.782669
  C     9.220008  7.476623  2.157932
  C     8.981886 10.870408  2.165519
  N    11.561738  7.054962  2.013370
  N    11.277333 11.147088  1.960812
  N     9.270627  7.478353  0.850704
  N     9.061747 10.715519  0.863524
  N     8.705244  7.389778  4.727674
  N     8.484432 11.044346  4.675827
  S     7.892526  7.423931  3.253241
  S     7.721831 10.631424  3.250783
  S    10.846101  7.126072  0.459575
  S    10.628442 10.894184  0.415557
  S    10.346663  7.217280  4.552278
  S    10.136474 11.213863  4.521412
