16  
    
  C    11.816877  8.727370  3.478220
  C    11.500510 12.156612  3.288878
  C    10.562059  8.283235  2.862251
  C    10.406418 11.648638  2.496075
  N    12.849622  8.752837  2.637771
  N    12.524671 12.496169  2.566899
  N    10.670381  8.058220  1.536766
  N    10.633507 11.481869  1.197799
  N    10.070618  8.650982  5.376194
  N     9.653300 11.979394  4.912866
  S     9.260030  8.316876  4.018716
  S     9.058189 11.293640  3.519093
  S    12.222822  8.481282  1.086739
  S    12.262429 11.969767  1.031662
  S    11.723657  9.037907  5.209834
  S    11.183319 12.508350  4.976423
