16  
    
  C     6.861191  5.733468  1.604494
  C     7.274285 10.036354  2.486204
  C     5.674066  5.170717  0.940272
  C     5.992589  9.520707  1.951349
  N     7.889679  5.797178  0.773859
  N     8.219127 10.065222  1.526925
  N     5.915672  4.662569 -0.269248
  N     6.000464  9.164443  0.667215
  N     4.945478  5.756073  3.335911
  N     5.654637  9.682735  4.451073
  S     4.302235  4.950465  2.039433
  S     4.734794  9.477790  3.112757
  S     7.470241  5.109814 -0.685687
  S     7.578838  9.553397  0.119652
  S     6.535677  6.395569  3.207735
  S     7.163895 10.291872  4.234615
