16  
    
  C     9.272184  6.908975  2.748895
  C     9.708197 10.833580  2.747499
  C     8.070928  6.432319  2.056173
  C     8.540397 10.176507  2.067698
  N    10.223374  7.293551  1.880628
  N    10.578729 11.296016  1.854247
  N     8.167888  6.308946  0.747307
  N     8.661856 10.058605  0.773151
  N     7.440087  6.350330  4.564713
  N     8.162958 10.048468  4.667738
  S     6.685227  6.083813  3.082086
  S     7.388212  9.623185  3.253924
  S     9.627165  6.864715  0.354149
  S    10.060153 10.818933  0.350802
  S     8.989086  6.917487  4.470887
  S     9.564224 10.961080  4.445821
