16  
    
  C     3.602892  4.959711  1.557875
  C     3.912123  8.196873  1.681503
  C     2.423868  4.359083  0.968780
  C     2.625610  8.001605  1.116682
  N     4.632388  5.038320  0.696166
  N     4.923494  8.376157  0.803420
  N     2.505526  4.172329 -0.341913
  N     2.648054  7.805805 -0.204473
  N     1.938089  4.322119  3.457832
  N     2.160205  8.187209  3.645738
  S     1.138061  3.952774  2.020778
  S     1.292686  7.859290  2.262591
  S     4.054832  4.612302 -0.840921
  S     4.215531  8.091468 -0.716071
  S     3.484720  4.760255  3.346578
  S     3.739548  8.561632  3.424250
