16  
    
  C     5.922206  5.706482  2.184908
  C     5.970237  9.221665  1.646156
  C     4.632399  5.596610  1.553951
  C     4.707394  8.933430  0.972380
  N     6.919670  5.452066  1.362279
  N     7.027325  9.142505  0.845470
  N     4.676409  5.399057  0.251174
  N     4.885577  8.709467 -0.318588
  N     4.121413  5.916682  4.029020
  N     4.150830  9.125239  3.413081
  S     3.355865  5.651155  2.658867
  S     3.343159  8.773274  1.984670
  S     6.257393  5.275845 -0.133618
  S     6.520627  8.742881 -0.654218
  S     5.786909  5.807583  3.874696
  S     5.701536  9.516539  3.345140
