16  
    
  C     4.923199  4.777794  1.649023
  C     4.795306  8.776803  1.734494
  C     3.578060  4.487315  1.174833
  C     3.517098  8.402472  1.258989
  N     5.823984  4.922696  0.685017
  N     5.673826  9.057032  0.762349
  N     3.474660  4.585510 -0.141621
  N     3.418302  8.276671 -0.063891
  N     3.483509  4.544226  3.815807
  N     3.220248  8.647100  3.866751
  S     2.416912  4.432520  2.504985
  S     2.302074  8.283739  2.506102
  S     5.057992  4.780751 -0.750091
  S     4.902908  8.768486 -0.652921
  S     5.102821  4.836015  3.364416
  S     4.815379  8.912801  3.506437
