16  
    
  C    12.402400  9.196547  3.467034
  C    12.520898 12.668456  3.492514
  C    11.284271  8.541126  2.720891
  C    11.209585 12.267082  2.973832
  N    13.422481  9.565702  2.708936
  N    13.376213 12.893189  2.476306
  N    11.416493  8.540369  1.415945
  N    11.151214 12.052287  1.649063
  N    10.584501  8.375407  5.114748
  N    10.844769 12.600925  5.536453
  S     9.975279  7.964145  3.668495
  S     9.955996 11.969753  4.194284
  S    12.962447  9.252736  1.136914
  S    12.626449 12.443439  1.046746
  S    12.033854  9.229933  5.191028
  S    12.384347 13.106282  5.212374
