16  
    
  C     8.680318  7.278005  2.693950
  C     8.947386 11.096940  2.257217
  C     7.449657  6.716768  2.131746
  C     7.759739 10.648611  1.527405
  N     9.560550  7.546453  1.731934
  N     9.946672 11.384089  1.405219
  N     7.579970  6.392154  0.846497
  N     7.886288 10.534211  0.218467
  N     7.076185  6.945667  4.653188
  N     7.260021 10.390025  4.014851
  S     6.350311  6.182246  3.334728
  S     6.482393 10.174796  2.570592
  S     9.010513  6.956817  0.321576
  S     9.459947 11.105873 -0.115551
  S     8.619324  7.438083  4.427030
  S     8.789696 10.999429  3.949155
