16  
    
  C     5.840658  5.538957  2.142587
  C     5.906413  9.083388  1.835618
  C     4.557276  5.374377  1.503426
  C     4.666084  8.813634  1.126010
  N     6.897514  5.465211  1.353183
  N     6.977845  9.041310  1.068554
  N     4.693283  5.237313  0.185465
  N     4.844314  8.626470 -0.176385
  N     4.022054  5.788570  3.977126
  N     4.005696  9.242111  3.510851
  S     3.178391  5.590985  2.556743
  S     3.244884  8.808037  2.130161
  S     6.286683  5.302899 -0.182774
  S     6.511473  8.817609 -0.471148
  S     5.665618  5.853861  3.819395
  S     5.631014  9.362047  3.478920
