16  
    
  C    12.215346  9.168123  3.578535
  C    12.475264 12.876011  3.493166
  C    11.225755  8.463422  2.894372
  C    11.283429 12.326442  2.933263
  N    13.222483  9.661901  2.862372
  N    13.446311 13.018802  2.612686
  N    11.511349  8.400148  1.586983
  N    11.282616 12.167762  1.614313
  N    10.616208  8.379242  5.480012
  N    10.851338 12.681798  5.497516
  S     9.925142  7.914872  3.952016
  S     9.943307 12.210550  4.168101
  S    12.910884  9.168886  1.326471
  S    12.863670 12.548420  1.106093
  S    12.117375  9.212270  5.282021
  S    12.515840 12.906966  5.233638
