16  
    
  C     7.641786  6.260076  2.292785
  C     7.778284 10.005255  2.444822
  C     6.352422  5.975595  1.800026
  C     6.585684  9.589418  1.779889
  N     8.524507  6.510072  1.313424
  N     8.816474 10.221228  1.629873
  N     6.284438  5.802276  0.479634
  N     6.691879  9.537715  0.442052
  N     6.028690  6.348319  4.277432
  N     5.874160  9.781696  4.205157
  S     5.144142  5.914698  3.021105
  S     5.215574  9.348213  2.763206
  S     7.773290  6.176369 -0.105961
  S     8.326940  9.885656  0.115072
  S     7.666216  6.626017  3.995323
  S     7.461884 10.315954  4.163516
