16  
    
  C     9.288821  6.970110  2.896557
  C     9.645142 10.824014  2.652675
  C     8.124310  6.473545  2.225498
  C     8.529764 10.209326  2.007202
  N    10.304207  7.272278  2.079642
  N    10.574719 11.239693  1.803473
  N     8.176956  6.555380  0.903340
  N     8.564470 10.189871  0.668197
  N     7.566426  6.552486  4.678353
  N     8.025590 10.256842  4.489394
  S     6.850952  5.957281  3.307829
  S     7.276849  9.715212  3.107085
  S     9.774744  7.010682  0.541706
  S    10.044504 10.886818  0.282475
  S     9.154553  6.948475  4.574304
  S     9.547783 10.885785  4.361315
