16  
    
  C     9.854602  7.644904  2.699208
  C     9.896236 11.266776  2.940033
  C     8.612992  7.307932  2.042830
  C     8.664491 10.819247  2.249090
  N    10.911752  7.825734  1.914159
  N    10.984866 11.383798  2.139936
  N     8.798865  7.258447  0.728613
  N     8.854171 10.762497  0.904521
  N     8.155860  7.286640  4.530690
  N     8.024188 11.055515  4.728601
  S     7.292687  7.207086  3.147854
  S     7.316492 10.626067  3.295561
  S    10.403915  7.578669  0.392755
  S    10.442758 11.083816  0.614733
  S     9.755558  7.772018  4.427829
  S     9.633844 11.368930  4.670698
