16  
    
  C     7.866742  6.356206  2.161851
  C     8.066671 10.617480  2.203316
  C     6.644250  5.882552  1.499173
  C     6.920159  9.953753  1.541863
  N     8.866303  6.625850  1.293099
  N     9.101393 10.826657  1.394479
  N     6.770588  5.778322  0.170555
  N     7.143735  9.632154  0.238049
  N     6.193046  5.747909  4.065947
  N     6.335181 10.139969  4.077659
  S     5.366496  5.545806  2.580760
  S     5.623294  9.687423  2.654922
  S     8.245706  6.272233 -0.215063
  S     8.593895 10.201730 -0.142153
  S     7.727255  6.353163  3.897614
  S     7.878004 10.843042  3.912469
