16  
    
  C    12.802364  9.259068  3.478257
  C    12.824691 12.992979  3.494023
  C    11.656056  8.728339  2.800911
  C    11.581050 12.575337  2.900455
  N    13.872672  9.420186  2.704060
  N    13.869617 12.935993  2.626278
  N    11.894544  8.352469  1.549214
  N    11.628636 12.238178  1.596621
  N    11.048555  9.051664  5.276914
  N    11.136686 13.093813  5.418178
  S    10.367043  8.476912  3.866549
  S    10.321683 12.476696  4.138344
  S    13.454729  8.888715  1.195715
  S    13.258925 12.386461  1.264446
  S    12.652247  9.706912  5.081004
  S    12.709518 13.235368  5.188838
