16  
    
  C     5.049418  5.075656  1.804173
  C     5.110365  8.626775  1.898109
  C     3.723915  4.835026  1.274825
  C     3.834583  8.363977  1.255212
  N     6.042780  5.079967  0.914941
  N     6.173543  8.662908  1.077155
  N     3.726475  4.866176 -0.067942
  N     3.906839  8.001142 -0.021912
  N     3.557545  4.664559  3.887258
  N     3.282432  8.706191  3.722920
  S     2.503534  4.824841  2.551234
  S     2.469030  8.412402  2.286272
  S     5.301593  5.045506 -0.537881
  S     5.551278  8.171731 -0.415514
  S     5.175928  5.005421  3.518646
  S     4.940494  9.059035  3.576064
