16  
    
  C     6.677173  5.908139  2.183614
  C     6.725664  9.737442  2.256766
  C     5.436106  5.417585  1.617961
  C     5.479737  9.343823  1.714525
  N     7.660087  5.987921  1.297909
  N     7.729067  9.960664  1.399144
  N     5.395305  5.380388  0.270278
  N     5.519439  9.116810  0.396763
  N     5.129046  5.536207  4.211262
  N     5.177006  9.407616  4.291840
  S     4.161110  5.204068  2.870694
  S     4.262104  9.109825  2.961773
  S     6.977488  5.689545 -0.195409
  S     7.037331  9.498818 -0.081747
  S     6.716425  5.993712  3.953455
  S     6.702183  9.883134  4.013568
