16  
    
  C     4.216295  4.813672  1.409696
  C     4.271625  8.368079  1.310413
  C     2.979928  4.500212  0.739154
  C     3.051609  8.027226  0.685046
  N     5.249461  5.047294  0.627168
  N     5.339626  8.417675  0.506397
  N     3.123819  4.455926 -0.597994
  N     3.146009  7.770640 -0.616959
  N     2.515748  4.839358  3.286854
  N     2.531214  8.264458  3.226163
  S     1.602022  4.544294  1.924345
  S     1.739153  7.829155  1.837288
  S     4.780911  4.710690 -0.953942
  S     4.753289  8.014638 -1.041063
  S     4.138164  4.995116  3.097353
  S     4.128547  8.654496  3.062963
