16  
    
  C    11.859078  8.681378  3.513814
  C    11.540088 12.310375  3.261041
  C    10.620893  8.342517  2.917334
  C    10.452233 11.671919  2.543452
  N    12.887742  8.805008  2.642012
  N    12.643048 12.458397  2.539692
  N    10.672541  8.173295  1.594912
  N    10.692470 11.505797  1.255548
  N    10.067100  8.577147  5.384610
  N     9.585754 11.888034  4.924780
  S     9.237773  8.283848  3.939514
  S     9.014445 11.413610  3.466811
  S    12.240402  8.450635  1.168848
  S    12.246781 11.892612  1.002567
  S    11.644060  9.016057  5.202553
  S    11.195715 12.383092  5.025971
