16  
    
  C     5.409107  5.463410  1.643620
  C     5.252288  8.992990  1.512686
  C     4.081742  5.198386  1.069952
  C     4.112597  8.395304  0.871417
  N     6.351992  5.700891  0.728257
  N     6.333087  9.015539  0.728875
  N     4.110336  5.016674 -0.272496
  N     4.283874  8.167407 -0.427974
  N     3.800301  5.457204  3.641072
  N     3.400458  8.799847  3.294005
  S     2.913007  4.982208  2.305645
  S     2.716695  8.278268  1.895046
  S     5.646788  5.326469 -0.747349
  S     5.814609  8.534740 -0.768806
  S     5.371131  5.694785  3.380958
  S     4.981046  9.372510  3.188637
