16  
    
  C     9.181477  6.892532  2.345272
  C     9.021039 11.150706  2.879140
  C     7.908455  6.495751  1.732852
  C     7.822008 10.561755  2.273262
  N    10.251242  6.869943  1.580210
  N    10.078642 11.218837  2.082614
  N     8.036688  6.223538  0.451381
  N     7.980133 10.299278  0.993150
  N     7.435635  6.797743  4.199044
  N     7.335604 10.810742  4.786379
  S     6.590783  6.373401  2.814221
  S     6.570080 10.297578  3.393054
  S     9.654102  6.452018  0.053863
  S     9.516020 10.689096  0.571640
  S     9.021157  7.284655  4.027973
  S     8.926695 11.380647  4.590585
