16  
    
  C     9.964302  7.517347  2.492436
  C    10.365888 11.041479  2.647388
  C     8.763160  6.992337  1.949082
  C     9.126311 11.070446  1.970520
  N    10.995987  7.615523  1.634597
  N    11.437185 11.058226  1.879880
  N     8.822711  6.706832  0.656426
  N     9.180765 11.015616  0.659559
  N     8.307438  7.224455  4.494471
  N     8.615032 11.144437  4.541399
  S     7.527130  6.586843  3.163051
  S     7.788576 10.862713  3.102057
  S    10.402715  7.012801  0.199388
  S    10.812669 11.019713  0.283195
  S     9.913036  7.697617  4.191513
  S    10.295706 11.205280  4.359300
