16  
    
  C    11.854331  8.819273  3.322742
  C    11.522985 12.334831  3.246768
  C    10.571533  8.366415  2.842763
  C    10.494441 11.586439  2.569499
  N    12.783166  8.806245  2.388799
  N    12.474685 12.670975  2.387636
  N    10.578242  7.915496  1.594189
  N    10.625333 11.401000  1.240650
  N    10.306049  8.557285  5.422732
  N     9.740794 11.798484  5.083729
  S     9.363235  8.224243  4.079127
  S     9.153394 11.291807  3.536003
  S    12.083692  8.282481  0.994704
  S    12.079240 12.005098  0.896976
  S    11.856767  9.133363  5.121889
  S    11.269331 12.588410  4.947108
