16  
    
  C     7.314980  6.037612  2.179912
  C     7.781583  9.729465  2.232221
  C     6.176194  5.500108  1.490562
  C     6.544993  9.382521  1.648043
  N     8.384607  6.221102  1.382715
  N     8.748756  9.913851  1.366353
  N     6.331277  5.571896  0.157338
  N     6.566689  9.263803  0.319000
  N     5.615977  5.610680  4.108832
  N     6.215381  9.455417  4.289185
  S     4.839706  5.176793  2.617501
  S     5.267575  9.286541  2.871618
  S     7.913584  5.951858 -0.168848
  S     8.216109  9.612626 -0.123889
  S     7.201668  6.094451  3.929176
  S     7.811077  9.872927  3.948980
