16  
    
  C     8.929041  7.145443  2.369973
  C     9.179381 10.834140  2.341693
  C     7.749013  6.766380  1.605581
  C     7.889518 10.531617  1.678844
  N    10.021015  7.409355  1.647994
  N    10.190678 10.960254  1.473454
  N     7.964287  6.898704  0.283005
  N     7.992536 10.357289  0.363421
  N     7.153069  6.567869  4.178890
  N     7.460614 10.625928  4.255725
  S     6.320822  6.404861  2.728036
  S     6.582627 10.459378  2.884734
  S     9.527302  7.351794  0.065574
  S     9.573083 10.648335 -0.017055
  S     8.685760  7.158087  4.069965
  S     9.080084 10.927956  4.049691
