16  
    
  C    12.684272  8.966170  3.774299
  C    12.482856 12.655081  3.965971
  C    11.513189  8.428755  3.181008
  C    11.357950 12.173251  3.198667
  N    13.687892  9.193661  2.935347
  N    13.551896 13.022098  3.246254
  N    11.628621  8.244471  1.883691
  N    11.646779 11.934847  1.919045
  N    10.984189  8.462983  5.686231
  N    10.674916 12.293982  5.701024
  S    10.195014  8.170544  4.281437
  S     9.987493 11.908111  4.196087
  S    13.109131  8.684909  1.419128
  S    13.177590 12.644556  1.694297
  S    12.573819  9.038592  5.472157
  S    12.152291 12.998618  5.646252
