16  
    
  C    11.088603  8.183985  3.078265
  C    11.493108 11.733607  3.236784
  C     9.872788  7.574977  2.641045
  C    10.255148 11.493069  2.512969
  N    12.085291  8.345981  2.194871
  N    12.548867 11.751557  2.434132
  N     9.923853  7.146688  1.393053
  N    10.391763 11.365550  1.195842
  N     9.503794  8.066273  5.133152
  N     9.669689 11.468738  4.952549
  S     8.598334  7.468876  3.882985
  S     8.835902 11.375008  3.569132
  S    11.416774  7.647732  0.784744
  S    12.050195 11.349887  0.896757
  S    11.121364  8.449292  4.809971
  S    11.241920 11.856080  4.918661
