16  
    
  C    12.081714  8.524467  3.489002
  C    12.107914 12.391228  3.307243
  C    10.873911  8.168327  2.817876
  C    10.999640 11.727504  2.651110
  N    13.136031  8.734186  2.717041
  N    13.228400 12.367502  2.541136
  N    11.037901  8.087940  1.505559
  N    11.191997 11.418811  1.364463
  N    10.209221  8.323363  5.303543
  N    10.262222 11.947466  5.124302
  S     9.465450  8.056081  3.857217
  S     9.660076 11.268859  3.686347
  S    12.641489  8.405036  1.197705
  S    12.773590 11.790753  1.038755
  S    11.797797  8.776109  5.216015
  S    11.877118 12.453285  5.001320
