16  
    
  C     8.183605  6.535710  2.269397
  C     8.010563 10.126865  2.380341
  C     7.026660  5.961365  1.695496
  C     6.873873  9.506110  1.771780
  N     9.256455  6.597793  1.453341
  N     9.047463 10.440093  1.592847
  N     7.122111  5.778183  0.354172
  N     7.015570  9.279736  0.479598
  N     6.375601  6.322026  4.164355
  N     6.304268  9.906331  4.253798
  S     5.613585  5.928022  2.793722
  S     5.507903  9.398225  2.892696
  S     8.662795  6.083970 -0.045272
  S     8.519397  9.799705  0.091949
  S     8.011219  6.778577  4.008655
  S     7.902835 10.298633  4.114025
