16  
    
  C     9.197949  6.749684  2.378593
  C     9.138118 10.832628  2.985803
  C     7.967019  6.285843  1.744025
  C     7.911131 10.362578  2.398022
  N    10.244470  6.827043  1.555169
  N    10.142550 10.979790  2.135485
  N     8.188976  5.786741  0.510000
  N     8.031108 10.029238  1.112789
  N     7.402306  7.056201  4.168138
  N     7.359880 10.952262  4.892131
  S     6.628247  6.310025  2.923208
  S     6.561007 10.537612  3.489849
  S     9.756034  6.107918  0.150071
  S     9.555193 10.450024  0.660339
  S     9.065199  7.252382  4.042544
  S     9.005587 11.237986  4.724714
