16  
    
  C     5.747753  5.627315  1.803232
  C     5.899976  8.975372  2.127993
  C     4.510079  5.257570  1.154013
  C     4.690064  8.687927  1.416419
  N     6.819598  5.506344  1.034419
  N     6.960048  9.052775  1.367307
  N     4.615326  4.926125 -0.140443
  N     4.784143  8.532522  0.091852
  N     4.023935  5.560170  3.659712
  N     4.138678  8.785327  3.915742
  S     3.195315  5.125093  2.275347
  S     3.344452  8.530951  2.525181
  S     6.258491  5.009018 -0.451652
  S     6.456302  8.702773 -0.197151
  S     5.678455  5.703610  3.544014
  S     5.762392  9.049407  3.845859
