16  
    
  C    11.993495  8.516071  3.253943
  C    11.925628 12.102603  3.174526
  C    10.671814  8.304168  2.703228
  C    10.625440 11.960811  2.570289
  N    12.949805  8.625336  2.365359
  N    12.961554 12.147742  2.330967
  N    10.717195  8.252215  1.371815
  N    10.654599 11.860287  1.213038
  N    10.428650  8.451401  5.280219
  N    10.340935 11.955470  5.162866
  S     9.433580  8.167029  3.908744
  S     9.400066 11.572662  3.897394
  S    12.268631  8.538205  0.919937
  S    12.351378 11.923844  0.829055
  S    12.019442  8.692804  4.957387
  S    11.925792 12.339655  4.864265
