16  
    
  C    12.331365  8.893346  3.705845
  C    12.464296 12.685039  3.405891
  C    11.137737  8.404300  3.100252
  C    11.227092 12.252669  2.803040
  N    13.333052  8.970076  2.825521
  N    13.456992 13.009780  2.591887
  N    11.283436  8.071163  1.798816
  N    11.382262 11.969968  1.521364
  N    10.678968  8.981034  5.516279
  N    10.792704 12.711833  5.348885
  S     9.782694  8.577249  4.237141
  S     9.958021 12.100837  4.029045
  S    12.795297  8.508846  1.365382
  S    12.952214 12.521112  1.092157
  S    12.276451  9.404532  5.341238
  S    12.386496 12.869296  5.122784
