16  
    
  C     5.839701  5.360530  1.765160
  C     5.945408  8.877037  2.123484
  C     4.549315  5.104213  1.150612
  C     4.709861  8.610129  1.437271
  N     6.830154  5.442135  0.882600
  N     7.001623  8.961893  1.330889
  N     4.660787  4.871088 -0.157496
  N     4.854092  8.538549  0.108320
  N     4.021792  5.417635  3.618664
  N     4.140669  8.729040  4.021146
  S     3.227172  4.978540  2.229203
  S     3.374737  8.533746  2.540346
  S     6.231141  4.988884 -0.598592
  S     6.465577  8.769520 -0.198160
  S     5.739894  5.652502  3.496958
  S     5.800839  9.079809  3.850435
