16  
    
  C    10.256963  7.138828  2.686390
  C    10.315648 10.990599  2.756610
  C     9.001042  6.984086  2.067659
  C     9.035294 10.781378  2.106370
  N    11.322280  7.306726  1.902555
  N    11.374653 11.095653  1.956501
  N     9.148181  6.988584  0.742247
  N     9.105909 10.732946  0.785928
  N     8.559140  7.396845  4.538096
  N     8.556911 10.738587  4.625152
  S     7.674136  7.058314  3.226764
  S     7.715174 10.936338  3.203510
  S    10.759116  7.207123  0.381425
  S    10.723256 10.972156  0.449151
  S    10.183013  7.411900  4.382932
  S    10.176302 10.999403  4.522963
