16  
    
  C     6.549449  5.895868  2.108733
  C     6.357265  9.164088  1.972089
  C     5.461338  5.227889  1.421196
  C     5.184843  8.743673  1.234288
  N     7.626205  6.132630  1.358734
  N     7.339463  9.485203  1.144119
  N     5.635249  5.138095  0.090596
  N     5.337374  8.618313 -0.081554
  N     4.807978  5.421198  3.923449
  N     4.475399  8.908123  3.618653
  S     4.136205  5.136818  2.467517
  S     3.773824  8.590130  2.213434
  S     7.187338  5.637640 -0.147824
  S     6.891961  9.175144 -0.373270
  S     6.323398  6.050584  3.818408
  S     6.056680  9.418807  3.651250
