16  
    
  C    10.730056  8.367025  2.973411
  C    10.758393 11.849018  3.065385
  C     9.550997  7.882876  2.326476
  C     9.619127 11.407912  2.309339
  N    11.729149  8.440646  2.105593
  N    11.853838 12.026520  2.351981
  N     9.643336  7.549869  1.050969
  N     9.867527 11.199562  1.026871
  N     8.979309  8.032118  4.799167
  N     8.857009 11.779099  4.791730
  S     8.205459  7.699778  3.418327
  S     8.203680 11.283807  3.316645
  S    11.186399  8.044333  0.626621
  S    11.450206 11.493127  0.827532
  S    10.585784  8.491250  4.727154
  S    10.494372 12.127054  4.758889
