16  
    
  C    12.305002  9.049365  3.802201
  C    12.616030 12.621572  3.546020
  C    11.170051  8.434553  3.153075
  C    11.314779 12.468409  2.892729
  N    13.329978  9.300923  2.971389
  N    13.631441 12.870359  2.721856
  N    11.305812  8.242911  1.840940
  N    11.401009 12.477104  1.575743
  N    10.652740  8.695951  5.599069
  N    10.870721 12.372026  5.446651
  S     9.899217  8.012477  4.293587
  S    10.006175 12.267765  4.067787
  S    12.831951  8.829503  1.476421
  S    13.048850 12.739255  1.189400
  S    12.123165  9.228950  5.456064
  S    12.450446 12.979842  5.286524
