16  
    
  C     4.157612  4.841282  1.650748
  C     4.075956  8.333393  1.534056
  C     2.893679  4.459614  1.007789
  C     2.833509  7.965802  0.819632
  N     5.189323  4.789587  0.794378
  N     5.082773  8.576166  0.723234
  N     2.961420  4.384923 -0.318359
  N     3.049913  7.653481 -0.459724
  N     2.377136  4.745417  3.485119
  N     2.189348  8.364747  3.282073
  S     1.515531  4.348279  2.122470
  S     1.446114  7.941010  1.861376
  S     4.560179  4.387936 -0.683627
  S     4.613291  8.073698 -0.805657
  S     4.015037  5.002247  3.366269
  S     3.817436  8.649845  3.235923
