16  
    
  C    11.860384  8.724542  3.484013
  C    11.484057 12.216290  3.303487
  C    10.597658  8.298697  2.859812
  C    10.417200 11.625510  2.503308
  N    12.872005  8.760743  2.643902
  N    12.552497 12.495821  2.559202
  N    10.673820  8.094314  1.549681
  N    10.675556 11.519208  1.192141
  N    10.069360  8.622229  5.382918
  N     9.666247 11.945921  4.864011
  S     9.240359  8.305298  3.993322
  S     9.049388 11.346182  3.502899
  S    12.223426  8.477629  1.124336
  S    12.247994 11.924050  1.021324
  S    11.690292  9.028664  5.210356
  S    11.181587 12.465268  5.020290
