16  
    
  C     6.600690  5.734307  2.030160
  C     6.617153  9.419662  1.868182
  C     5.324853  5.444856  1.445479
  C     5.453889  8.857845  1.245245
  N     7.560932  5.926506  1.136208
  N     7.655367  9.638928  1.050328
  N     5.324986  5.162599  0.142616
  N     5.534504  8.717209 -0.076642
  N     4.874022  5.774139  3.980871
  N     4.822897  8.949696  3.796306
  S     4.062492  5.343155  2.647110
  S     4.092250  8.657478  2.319976
  S     6.892237  5.551920 -0.338640
  S     6.998008  9.313355 -0.521680
  S     6.513067  6.086164  3.721109
  S     6.425557  9.654308  3.655786
