16  
    
  C     4.743181  4.897814  1.919226
  C     4.711935  8.948352  1.698973
  C     3.511875  4.639520  1.220606
  C     3.430578  8.557561  1.104678
  N     5.845684  5.043556  1.182950
  N     5.668686  9.233287  0.816412
  N     3.728259  4.559671 -0.083295
  N     3.408160  8.537248 -0.226232
  N     3.023960  4.779444  3.773376
  N     3.142546  8.234534  3.662302
  S     2.129699  4.413184  2.424762
  S     2.257745  8.030841  2.272287
  S     5.364481  4.755992 -0.352958
  S     4.970731  9.019541 -0.705559
  S     4.650774  4.983090  3.646639
  S     4.632416  8.840983  3.438406
