16  
    
  C     6.656344  5.876970  2.127106
  C     6.455602  9.325543  1.946834
  C     5.404361  5.450658  1.466112
  C     5.301898  8.771879  1.238862
  N     7.681867  6.111361  1.297482
  N     7.518039  9.581720  1.172542
  N     5.621930  5.145361  0.191478
  N     5.435932  8.710371 -0.096594
  N     4.809638  5.381919  3.938497
  N     4.534734  8.941071  3.762104
  S     4.012899  5.101935  2.504734
  S     3.872315  8.541828  2.228574
  S     7.176645  5.622758 -0.236750
  S     6.957431  9.181720 -0.423938
  S     6.402814  6.098630  3.847797
  S     6.107044  9.441573  3.646729
