16  
    
  C     5.575252  5.422091  1.946238
  C     5.469424  8.979176  1.779666
  C     4.314585  4.938405  1.401105
  C     4.334877  8.394547  1.071949
  N     6.446290  5.678856  0.979174
  N     6.525247  9.212136  0.996228
  N     4.329711  4.736513  0.075267
  N     4.546204  8.162829 -0.217798
  N     4.044767  5.073735  4.009565
  N     3.542161  8.839393  3.523553
  S     3.123740  4.683343  2.634971
  S     2.966235  8.115404  2.106717
  S     5.789320  5.276010 -0.466368
  S     6.079193  8.728524 -0.534326
  S     5.706204  5.531641  3.682313
  S     5.142406  9.092251  3.481226
