16  
    
  C     7.746636  6.543366  2.470089
  C     7.797408 10.044964  2.101709
  C     6.487231  6.182038  1.796145
  C     6.538810  9.871700  1.397698
  N     8.811719  6.686998  1.658795
  N     8.887328 10.019813  1.310227
  N     6.672757  5.825188  0.496496
  N     6.681957  9.789911  0.060659
  N     5.860693  6.782169  4.211854
  N     6.046182 10.159858  3.963924
  S     5.115558  6.148721  2.890309
  S     5.194826  9.950051  2.587951
  S     8.312023  6.158555  0.168555
  S     8.288833  9.796753 -0.249647
  S     7.490493  7.072491  4.075173
  S     7.675691 10.451849  3.729678
