16  
    
  C    10.840777  8.182972  2.887363
  C    10.808996 11.910137  3.053212
  C     9.630841  7.781955  2.245073
  C     9.627856 11.442859  2.320931
  N    11.885067  8.383705  2.098283
  N    11.882473 12.003505  2.298446
  N     9.793019  7.649631  0.943961
  N     9.890000 11.239835  1.038270
  N     9.103690  8.046513  4.753463
  N     8.891842 11.759306  4.813959
  S     8.269637  7.643081  3.390203
  S     8.304924 11.155143  3.385754
  S    11.371058  8.014058  0.600167
  S    11.425730 11.583320  0.732131
  S    10.703725  8.379619  4.647887
  S    10.538092 12.224835  4.765599
