16  
    
  C    12.108273  8.562808  3.591116
  C    11.978915 12.209662  3.266697
  C    10.893737  8.060415  2.927169
  C    10.695313 11.862411  2.699386
  N    13.140786  8.786268  2.758379
  N    12.973621 12.361839  2.351932
  N    10.994423  7.994901  1.617805
  N    10.785791 11.467428  1.433729
  N    10.175234  8.327115  5.401784
  N    10.279019 11.948088  5.144466
  S     9.493602  7.904458  3.939130
  S     9.427658 11.548899  3.810395
  S    12.570700  8.349663  1.261291
  S    12.253317 11.820016  0.886634
  S    11.778690  8.808369  5.296339
  S    11.871301 12.198490  5.025540
