16  
    
  C     4.586175  5.180540  1.892388
  C     4.636137  8.521258  1.430412
  C     3.407610  4.610967  1.255354
  C     3.423316  8.176756  0.736253
  N     5.643259  5.277155  1.068265
  N     5.699427  8.677837  0.632575
  N     3.521113  4.478740 -0.063099
  N     3.662571  7.860503 -0.542562
  N     2.706649  4.752424  3.691608
  N     2.828483  8.345917  3.267130
  S     2.014676  4.505878  2.217638
  S     2.042980  7.965014  1.838068
  S     5.020424  5.011583 -0.513265
  S     5.227381  8.210576 -0.909636
  S     4.263664  5.281243  3.669124
  S     4.397981  8.875942  3.130939
