16  
    
  C    12.074870  8.647296  3.581786
  C    12.191630 12.164655  3.352877
  C    10.897522  8.265399  2.829672
  C    10.966619 11.726426  2.668895
  N    13.171337  8.716260  2.845970
  N    13.240005 12.336039  2.503753
  N    11.070709  8.032820  1.530003
  N    11.136077 11.506064  1.367948
  N    10.138644  8.309515  5.307916
  N    10.286261 11.912224  5.123856
  S     9.510608  8.031045  3.773059
  S     9.697125 11.253866  3.716546
  S    12.650820  8.396088  1.250270
  S    12.717332 11.776275  1.013474
  S    11.783474  8.752720  5.310508
  S    11.828378 12.514289  5.095919
