16  
    
  C     9.619499  7.312811  3.002407
  C     9.631113 10.874209  2.742028
  C     8.547261  6.764703  2.231600
  C     8.418429 10.487756  2.103067
  N    10.639441  7.684685  2.236360
  N    10.586001 11.165556  1.909017
  N     8.693206  6.771602  0.921981
  N     8.473889 10.374174  0.780078
  N     7.746271  6.622177  4.604198
  N     7.902524 10.642430  4.623926
  S     7.152959  6.190662  3.128111
  S     7.100913 10.233742  3.217172
  S    10.209099  7.322775  0.674194
  S     9.988808 10.839724  0.376276
  S     9.229757  7.322241  4.671497
  S     9.530325 11.013229  4.461911
