16  
    
  C     8.349750  6.725277  2.464717
  C     8.806473 10.343912  2.829876
  C     7.253945  6.261842  1.718743
  C     7.605573 10.039790  2.122710
  N     9.443289  6.999863  1.776313
  N     9.879046 10.472351  2.035442
  N     7.516234  6.036394  0.431781
  N     7.693058  9.856214  0.819027
  N     6.514624  6.300161  4.231301
  N     7.029537 10.292453  4.650677
  S     5.842661  5.916679  2.779748
  S     6.246177  9.934568  3.237345
  S     9.076511  6.560039  0.202789
  S     9.284067 10.223725  0.408085
  S     8.075165  6.889321  4.172376
  S     8.698809 10.525013  4.552954
