16  
    
  C     6.650324  5.672254  1.936519
  C     6.632816  9.485850  2.023732
  C     5.389749  5.477615  1.342984
  C     5.378640  9.107095  1.459254
  N     7.694480  5.798190  1.106645
  N     7.629674  9.592916  1.153645
  N     5.418849  5.332012  0.024870
  N     5.392929  8.927258  0.126457
  N     4.984817  5.867338  3.906285
  N     5.084966  9.342702  4.073557
  S     4.162637  5.413353  2.518262
  S     4.142515  9.042318  2.776213
  S     7.012144  5.614871 -0.391584
  S     6.930289  9.378686 -0.335175
  S     6.589187  5.936030  3.657352
  S     6.628242  9.826170  3.757667
