16  
    
  C     7.153292  6.146639  2.052931
  C     7.411244  9.723083  2.489760
  C     6.083253  5.474468  1.362531
  C     6.141072  9.459246  1.825745
  N     8.282935  6.227501  1.306557
  N     8.460995  9.731562  1.669444
  N     6.237247  5.286952  0.051787
  N     6.226489  9.220078  0.538167
  N     5.152234  5.734662  3.798519
  N     5.467243  9.558423  4.312203
  S     4.720851  5.060146  2.371810
  S     4.771884  9.569519  2.829223
  S     7.828265  5.662087 -0.212094
  S     7.840462  9.359729  0.177500
  S     6.775147  6.284471  3.779981
  S     7.133524  9.990723  4.214244
