16  
    
  C     5.512629  5.339503  1.824868
  C     5.268529  8.857528  1.710271
  C     4.187826  5.090109  1.310298
  C     4.098659  8.477877  1.010659
  N     6.472879  5.325331  0.936485
  N     6.348767  8.997532  0.938190
  N     4.109898  5.093809 -0.031452
  N     4.251068  8.315082 -0.296286
  N     4.077320  5.136482  3.877078
  N     3.371586  8.676082  3.515826
  S     2.999886  5.012091  2.626789
  S     2.749017  8.172861  2.061217
  S     5.706319  5.281844 -0.539735
  S     5.814525  8.697926 -0.620670
  S     5.693024  5.450854  3.564661
  S     4.914566  9.292942  3.361707
