16  
    
  C    12.769248  9.012997  3.780782
  C    12.810289 12.512634  3.688749
  C    11.517125  8.621712  3.182216
  C    11.627855 12.041946  3.000798
  N    13.658922  9.297568  2.822184
  N    13.846501 12.661286  2.872552
  N    11.452477  8.439437  1.860484
  N    11.684686 12.091693  1.687501
  N    11.248854  8.444717  5.743468
  N    10.987983 12.270236  5.512788
  S    10.374213  8.180117  4.412666
  S    10.282450 11.893070  4.096379
  S    12.968778  8.901632  1.377521
  S    13.178348 12.599062  1.286005
  S    12.635293  9.245198  5.570483
  S    12.571126 12.705962  5.366310
