16  
    
  C     4.236072  4.765304  1.368990
  C     4.313776  8.422980  1.292949
  C     2.979142  4.568027  0.693652
  C     3.095186  7.975827  0.682978
  N     5.260792  5.073782  0.600828
  N     5.335679  8.384735  0.468800
  N     3.115986  4.448496 -0.629907
  N     3.172791  7.827146 -0.639690
  N     2.518866  4.873853  3.277962
  N     2.573915  8.249508  3.243936
  S     1.616701  4.552679  1.888485
  S     1.754705  7.798740  1.818323
  S     4.788354  4.741925 -0.955455
  S     4.777016  8.003616 -1.041657
  S     4.145208  5.007176  3.032796
  S     4.173404  8.654079  3.047398
