16  
    
  C     8.820118  7.304843  2.449535
  C     9.193498 10.817750  2.222571
  C     7.661672  6.889638  1.709946
  C     7.889881 10.593351  1.595247
  N     9.837396  7.589675  1.654540
  N    10.166408 10.786814  1.347023
  N     7.783246  6.969436  0.405279
  N     7.904329 10.517068  0.270293
  N     7.071180  6.656125  4.167914
  N     7.420053 10.711192  4.117626
  S     6.394309  6.285862  2.664681
  S     6.585714 10.425907  2.685101
  S     9.342662  7.401658  0.122497
  S     9.575187 10.626646 -0.151655
  S     8.639928  7.130275  4.167021
  S     9.084450 10.840096  3.942868
