16  
    
  C     6.777031  6.110072  2.377945
  C     7.255270  9.616209  2.139888
  C     5.665901  5.464474  1.753840
  C     6.000262  9.346387  1.515125
  N     7.638004  6.672947  1.517456
  N     8.291563  9.690226  1.306269
  N     5.772822  5.287109  0.436377
  N     6.041413  9.293727  0.202304
  N     5.261252  5.173488  4.308082
  N     5.490766  9.603866  4.051737
  S     4.577652  4.792059  2.876560
  S     4.677137  9.443249  2.583092
  S     7.115121  6.163540  0.030785
  S     7.557573  9.500602 -0.263107
  S     6.567901  6.230142  4.095374
  S     7.133819  9.802400  3.916120
