16  
    
  C    11.877402  8.565132  3.191946
  C    11.399230 12.316773  3.440223
  C    10.585586  8.287533  2.572761
  C    10.242288 11.698949  2.826464
  N    12.814375  8.828208  2.315091
  N    12.475458 12.411832  2.629730
  N    10.607966  8.291336  1.245678
  N    10.391564 11.537827  1.517084
  N    10.207571  7.973264  5.135329
  N     9.649534 11.605173  5.193050
  S     9.345283  7.866706  3.754312
  S     8.939478 11.139748  3.812432
  S    12.147586  8.578727  0.806935
  S    11.894066 12.010950  1.122591
  S    11.849606  8.486216  4.973345
  S    11.111677 12.276290  5.186444
