16  
    
  C     4.970789  4.796975  1.636235
  C     4.858788  8.791322  1.781927
  C     3.581950  4.764638  1.215861
  C     3.588200  8.296141  1.303033
  N     5.868464  4.954815  0.687501
  N     5.783358  8.862338  0.824908
  N     3.476008  4.650704 -0.101065
  N     3.544121  8.219297 -0.023682
  N     3.604243  4.787214  3.735095
  N     3.325342  8.691662  3.760372
  S     2.538875  4.431802  2.542067
  S     2.352382  8.306958  2.508467
  S     5.021145  4.864326 -0.735581
  S     5.030070  8.512323 -0.601374
  S     5.192896  4.761524  3.319816
  S     4.942087  9.016666  3.504785
