16  
    
  C    11.829625  8.589992  3.379929
  C    11.581474 11.994015  3.481619
  C    10.592092  8.358604  2.653866
  C    10.405437 11.537179  2.761958
  N    12.912889  8.546617  2.594665
  N    12.585521 12.296567  2.682760
  N    10.734308  8.214409  1.318757
  N    10.535202 11.361654  1.456420
  N    10.023411  8.302597  5.127387
  N     9.823764 11.591363  5.289160
  S     9.257063  8.199111  3.710826
  S     9.055447 11.304913  3.858654
  S    12.395940  8.371464  1.029575
  S    12.076292 11.879688  1.097005
  S    11.674256  8.605123  5.110873
  S    11.429267 11.982036  5.272500
