16  
    
  C    12.388912  9.116567  3.356116
  C    12.272607 12.771871  3.428372
  C    11.160104  8.642855  2.774672
  C    11.144101 12.141023  2.818541
  N    13.324459  9.240424  2.454396
  N    13.345055 12.953211  2.637213
  N    11.240128  8.307588  1.495646
  N    11.367875 11.770114  1.574854
  N    10.787079  8.953714  5.366396
  N    10.310679 12.648801  5.143342
  S     9.894832  8.553832  3.993512
  S     9.668093 12.104439  3.721854
  S    12.719774  8.769530  0.963802
  S    12.908997 12.240419  1.151008
  S    12.381351  9.568894  5.036194
  S    11.909020 13.040834  5.190457
