16  
    
  C    11.652205  8.584932  3.208029
  C    11.376558 12.219600  3.300796
  C    10.446682  7.987118  2.618877
  C    10.213623 11.722920  2.615967
  N    12.532805  8.942575  2.318196
  N    12.404156 12.625769  2.518362
  N    10.477949  7.972148  1.303345
  N    10.437520 11.494209  1.311833
  N    10.040833  8.215165  5.184322
  N     9.456115 11.878618  5.108796
  S     9.245028  7.754609  3.816870
  S     8.824767 11.345112  3.570961
  S    11.991385  8.577716  0.794814
  S    11.887635 12.285257  0.984184
  S    11.581696  8.845409  4.946055
  S    11.128322 12.227069  5.026537
