16  
    
  C     5.840607  5.577120  2.186746
  C     5.925771  9.182247  1.722548
  C     4.557892  5.581240  1.467614
  C     4.700766  8.912983  0.975376
  N     6.899457  5.516102  1.385569
  N     7.033328  9.092837  0.984003
  N     4.640337  5.369890  0.142354
  N     4.856620  8.745558 -0.338648
  N     4.108258  5.952930  4.056290
  N     3.950509  9.233797  3.485428
  S     3.218524  5.593729  2.618075
  S     3.347538  8.776556  2.019508
  S     6.302876  5.257697 -0.157175
  S     6.491001  8.739636 -0.603621
  S     5.770423  5.820960  3.922541
  S     5.688267  9.477531  3.439474
