16  
    
  C     7.637979  6.266177  2.281774
  C     7.771331 10.034167  2.474000
  C     6.334985  5.892970  1.746502
  C     6.575971  9.586297  1.723491
  N     8.541089  6.472869  1.345565
  N     8.800515 10.250292  1.682174
  N     6.309681  5.815238  0.426475
  N     6.721449  9.492732  0.412263
  N     6.024803  6.375879  4.290712
  N     5.908251  9.712399  4.249331
  S     5.110751  5.854639  2.987451
  S     5.215947  9.319563  2.796988
  S     7.789974  6.192642 -0.104498
  S     8.318237  9.897221  0.136015
  S     7.692266  6.599936  3.984279
  S     7.503278 10.318493  4.157725
