16  
    
  C     6.562041  5.864619  1.902674
  C     6.619070  9.606980  1.895999
  C     5.284045  5.419892  1.377902
  C     5.336103  9.216302  1.299825
  N     7.548505  5.815314  1.026114
  N     7.589917  9.688552  1.014173
  N     5.294488  5.308170  0.052233
  N     5.412163  8.877363  0.009867
  N     4.951757  5.783028  3.904847
  N     5.021850  9.210727  3.865882
  S     4.131457  5.456588  2.583568
  S     4.121336  8.929682  2.495434
  S     6.880120  5.485735 -0.436747
  S     6.979154  9.247470 -0.500885
  S     6.582020  5.988496  3.616848
  S     6.544664  9.709135  3.652333
