16  
    
  C     4.766649  5.003071  2.113423
  C     4.758010  8.700420  1.578318
  C     3.579119  4.592682  1.375211
  C     3.536272  8.342418  0.913570
  N     5.859142  5.136489  1.344246
  N     5.707077  9.132627  0.740773
  N     3.731297  4.636202  0.058982
  N     3.655695  8.319318 -0.412587
  N     2.731533  4.777124  3.695914
  N     3.005872  8.264265  3.451076
  S     2.098654  4.579245  2.199206
  S     2.286985  7.852500  2.021778
  S     5.359892  4.828550 -0.227724
  S     5.146286  8.904005 -0.754764
  S     4.347514  5.152947  3.853117
  S     4.586316  8.831357  3.287076
