16  
    
  C     9.547227  7.530707  2.584352
  C    10.204001 11.395862  2.517857
  C     8.477886  6.754546  2.037533
  C     8.998434 10.969864  1.946813
  N    10.498764  7.833949  1.734787
  N    11.202056 11.506477  1.645582
  N     8.686934  6.328317  0.782587
  N     9.033082 10.699714  0.639057
  N     7.820959  7.499037  4.480559
  N     8.559139 11.123106  4.516074
  S     7.194266  6.544452  3.252180
  S     7.714805 10.723373  3.165599
  S    10.163375  7.008175  0.330648
  S    10.607892 11.047381  0.208311
  S     9.441043  7.915231  4.261126
  S    10.135239 11.590973  4.268896
