16  
    
  C    12.781428  9.239277  3.401149
  C    12.656988 13.093124  3.582891
  C    11.601966  8.676696  2.823020
  C    11.553995 12.466573  2.930738
  N    13.792978  9.458093  2.542091
  N    13.735197 13.172443  2.810370
  N    11.712415  8.428996  1.511051
  N    11.744350 12.141765  1.652099
  N    10.935978  9.199992  5.188010
  N    10.847290 12.605439  5.403609
  S    10.250814  8.650888  3.838263
  S    10.201983 12.127099  3.909364
  S    13.258123  8.916744  1.055761
  S    13.280077 12.606839  1.350826
  S    12.551226  9.475120  5.156694
  S    12.380311 13.202706  5.289809
