16  
    
  C    10.469256  7.245692  2.831031
  C    10.285557 11.108040  2.793076
  C     9.224870  7.416513  2.162026
  C     9.016193 10.826773  2.149458
  N    11.490492  7.101437  1.986657
  N    11.282296 11.102642  1.895146
  N     9.299370  7.457327  0.801621
  N     9.030705 10.717309  0.803000
  N     8.733659  7.343209  4.735389
  N     8.510833 11.044206  4.669953
  S     7.910413  7.546993  3.294235
  S     7.696396 10.644276  3.248225
  S    10.862317  7.134329  0.478781
  S    10.627433 10.899443  0.434436
  S    10.424777  7.214372  4.535256
  S    10.137207 11.299990  4.502387
