16  
    
  C     9.265789  6.732758  2.432044
  C     9.596108 10.607566  2.765468
  C     8.080711  6.271656  1.725189
  C     8.340001 10.217921  2.210206
  N    10.344045  6.877271  1.665219
  N    10.594423 10.587387  1.921862
  N     8.246589  6.214039  0.395917
  N     8.352160  9.982769  0.887737
  N     7.452199  6.411319  4.254361
  N     7.886132 10.572760  4.747108
  S     6.667748  6.051452  2.835070
  S     7.004816 10.263423  3.404332
  S     9.821767  6.614373  0.109274
  S     9.927601 10.265135  0.431762
  S     9.050118  6.745827  4.128131
  S     9.481558 10.926732  4.504714
