16  
    
  C    10.951375  8.158388  3.008120
  C    10.814438 11.652253  2.772051
  C     9.770336  7.433862  2.537498
  C     9.636263 11.141345  2.149217
  N    11.790565  8.394547  1.983500
  N    11.854369 11.825215  1.944074
  N     9.765392  7.169461  1.220332
  N     9.720415 11.093811  0.804689
  N     9.592816  7.749588  5.113476
  N     9.137568 11.535391  4.730911
  S     8.713744  7.035514  3.856885
  S     8.393675 10.874572  3.344256
  S    11.199787  7.735857  0.601943
  S    11.277106 11.504965  0.447937
  S    10.999563  8.468555  4.720878
  S    10.831253 11.666197  4.564753
