16  
    
  C    10.527118  7.299269  2.728662
  C    10.320414 11.309434  2.665062
  C     9.233271  7.318095  2.146104
  C     9.101163 10.915761  2.034392
  N    11.479561  7.266807  1.829302
  N    11.389712 11.285777  1.882322
  N     9.140069  7.288811  0.841863
  N     9.154787 10.693295  0.722687
  N     8.838929  7.581833  4.673227
  N     8.574771 11.219170  4.537316
  S     7.955205  7.610821  3.252126
  S     7.746718 11.066688  3.140142
  S    10.741894  7.205221  0.316954
  S    10.778437 10.911682  0.324734
  S    10.450066  7.480587  4.492658
  S    10.215434 11.458760  4.395518
