16  
    
  C    10.976382  7.960666  3.040175
  C    10.980531 11.738370  2.728316
  C     9.755714  7.402649  2.590754
  C     9.749756 11.174588  2.143583
  N    11.842059  8.227753  2.085989
  N    11.973729 11.844247  1.855904
  N     9.696978  7.217639  1.298969
  N     9.821931 10.973933  0.841633
  N     9.545313  7.538436  5.076471
  N     9.300731 11.234993  4.698303
  S     8.547707  7.072623  3.830838
  S     8.400953 11.001178  3.279898
  S    11.137568  7.701303  0.683926
  S    11.331234 11.433369  0.400790
  S    10.994381  8.159894  4.759431
  S    10.865985 11.870436  4.448667
