16  
    
  C     6.998396  5.998077  1.886532
  C     7.237243  9.726106  2.494577
  C     5.952727  5.180845  1.252107
  C     6.013985  9.425847  1.827993
  N     8.040107  6.199091  1.090508
  N     8.285005  9.798336  1.691139
  N     6.109007  4.968125 -0.054804
  N     6.108586  9.157538  0.503451
  N     5.214026  5.812630  3.673223
  N     5.482258  9.859582  4.362131
  S     4.579179  4.967150  2.389999
  S     4.662990  9.588316  2.963989
  S     7.622386  5.612157 -0.383549
  S     7.775209  9.391139  0.202162
  S     6.834354  6.438716  3.545698
  S     7.185148 10.098194  4.170212
