16  
    
  C    12.848787  9.414467  3.419720
  C    12.797732 12.972259  3.581063
  C    11.680822  8.797923  2.805241
  C    11.538628 12.579814  3.000841
  N    13.977825  9.391370  2.635672
  N    13.818932 12.965061  2.712971
  N    11.860161  8.525290  1.504270
  N    11.609698 12.258196  1.724690
  N    11.095119  9.019408  5.298149
  N    11.042724 12.934163  5.497505
  S    10.375582  8.502537  3.900857
  S    10.256157 12.431899  4.105750
  S    13.431851  8.839925  1.176818
  S    13.185387 12.379671  1.206257
  S    12.518267  9.744355  5.170948
  S    12.737323 13.199591  5.280251
