16  
    
  C     3.585831  4.852672  1.546495
  C     3.906315  8.262691  1.706829
  C     2.385048  4.372237  0.871216
  C     2.601839  7.959799  1.102251
  N     4.600989  5.075344  0.744474
  N     4.872302  8.291030  0.799833
  N     2.462930  4.230828 -0.451404
  N     2.640365  7.777417 -0.197609
  N     1.944588  4.295829  3.432689
  N     2.118201  8.228092  3.632495
  S     1.110911  4.081150  2.041254
  S     1.312518  7.864172  2.252376
  S     4.109424  4.625101 -0.749266
  S     4.218976  8.038619 -0.674370
  S     3.538509  4.812352  3.262115
  S     3.756049  8.630151  3.397431
