16  
    
  C    12.390539  8.992311  3.745193
  C    12.595465 12.809846  3.576129
  C    11.218176  8.417856  3.117116
  C    11.361611 12.454913  2.934619
  N    13.346820  9.405705  2.920337
  N    13.624125 12.812855  2.730664
  N    11.299527  8.268873  1.808297
  N    11.418673 12.442353  1.598261
  N    10.524162  8.552511  5.647574
  N    10.883968 12.528336  5.435450
  S     9.934982  7.989161  4.183083
  S     9.979484 12.239949  4.037817
  S    12.816769  8.909454  1.399343
  S    12.962460 12.736906  1.180937
  S    12.117904  9.279570  5.527469
  S    12.489304 12.943017  5.304811
