16  
    
  C    12.086554  8.505328  3.635303
  C    12.009963 12.161089  3.282210
  C    10.906781  8.130184  2.919196
  C    10.800948 11.669749  2.688898
  N    13.157105  8.721778  2.877243
  N    12.938023 12.383982  2.373255
  N    11.046857  7.975254  1.601355
  N    10.799251 11.438310  1.376583
  N    10.178240  8.342863  5.400180
  N    10.210015 11.992079  5.266415
  S     9.477099  7.912609  3.872613
  S     9.523976 11.552609  3.783179
  S    12.602925  8.407023  1.277789
  S    12.334486 11.829435  0.927165
  S    11.789811  8.799421  5.323531
  S    11.913582 12.230713  5.057416
