16  
    
  C     3.415208  4.655020  1.513809
  C     3.549931  8.446431  1.336551
  C     2.299599  4.064444  0.851332
  C     2.295001  8.036326  0.693918
  N     4.343522  5.020923  0.645909
  N     4.606008  8.510104  0.513819
  N     2.466904  3.869257 -0.462517
  N     2.378398  8.020833 -0.630680
  N     1.595274  4.271629  3.311691
  N     1.875278  8.006874  3.279824
  S     0.890251  3.868757  1.836188
  S     0.984427  7.801156  1.879855
  S     3.955784  4.399647 -0.855367
  S     3.965244  8.288388 -1.040645
  S     3.080449  5.061784  3.214789
  S     3.408293  8.610987  3.077052
