16  
    
  C    11.946088  8.605675  3.244229
  C    11.972029 12.088052  3.172136
  C    10.673276  8.308812  2.681648
  C    10.670898 11.807096  2.566072
  N    12.988156  8.594931  2.405202
  N    12.998069 12.202522  2.365124
  N    10.668997  8.202421  1.344618
  N    10.781633 11.810167  1.252169
  N    10.409814  8.459325  5.208786
  N    10.375978 11.947425  5.130141
  S     9.488910  8.139895  3.964963
  S     9.411259 11.544447  3.793589
  S    12.273852  8.477332  0.883945
  S    12.417947 11.892047  0.840389
  S    12.040265  8.677615  4.971655
  S    11.946542 12.388422  4.907912
