16  
    
  C     6.693276  5.680368  1.917979
  C     6.665550  9.539513  1.966881
  C     5.365358  5.470749  1.390101
  C     5.416411  9.118776  1.446004
  N     7.666608  5.791639  1.005841
  N     7.608929  9.651105  1.021148
  N     5.407446  5.331495  0.085103
  N     5.342856  9.023077  0.131007
  N     4.948582  5.884544  3.817566
  N     5.035741  9.313967  4.007070
  S     4.012306  5.429388  2.510833
  S     4.103556  8.984424  2.549882
  S     6.942233  5.560741 -0.488465
  S     6.911772  9.278965 -0.393341
  S     6.651966  5.966616  3.666452
  S     6.619908  9.798372  3.667448
