16  
    
  C     6.714353  6.168970  2.374264
  C     7.268778  9.576465  2.106919
  C     5.753817  5.330247  1.685862
  C     6.010650  9.357396  1.485190
  N     7.701889  6.575505  1.573582
  N     8.269320  9.665407  1.239606
  N     5.852092  5.307566  0.345096
  N     6.013646  9.199860  0.167357
  N     5.211698  5.299352  4.234451
  N     5.466268  9.755601  3.999261
  S     4.481949  4.805694  2.775187
  S     4.685315  9.402784  2.611905
  S     7.222070  6.201074  0.022274
  S     7.658763  9.542945 -0.256803
  S     6.574369  6.228624  4.114659
  S     7.168792  9.774758  3.815774
