16  
    
  C     9.331435  6.761332  2.401590
  C     9.242165 10.705091  2.905613
  C     8.095339  6.258971  1.766632
  C     7.945654 10.450147  2.226140
  N    10.435154  6.607421  1.650449
  N    10.300620 10.437821  2.173787
  N     8.262696  5.963926  0.484328
  N     8.130043 10.047194  0.965769
  N     7.356663  6.913173  4.126282
  N     7.417699 10.742951  4.706014
  S     6.684487  6.249208  2.749926
  S     6.613417 10.753111  3.279574
  S     9.862469  6.050258  0.134348
  S     9.733071  9.978585  0.650347
  S     8.990245  7.200695  4.109423
  S     9.046794 11.107610  4.604557
