16  
    
  C     7.341970  5.997772  2.218344
  C     7.769476  9.619203  2.351410
  C     6.172390  5.575029  1.534086
  C     6.493329  9.345307  1.726184
  N     8.398266  6.202072  1.465216
  N     8.759818  9.798845  1.467982
  N     6.323641  5.456914  0.235615
  N     6.551824  9.263955  0.406156
  N     5.451869  5.651157  3.935904
  N     5.928856  9.743207  4.182591
  S     4.810224  5.227582  2.433671
  S     5.136097  9.265924  2.763639
  S     7.872280  5.915280 -0.089488
  S     8.080048  9.627269 -0.056629
  S     7.048747  6.022158  3.932116
  S     7.599188  9.760001  4.072493
