16  
    
  C     3.543741  4.405396  1.506876
  C     3.531796  8.513170  1.293464
  C     2.359562  3.820873  0.871875
  C     2.356451  7.947237  0.704217
  N     4.505423  4.872804  0.707020
  N     4.538930  8.669099  0.433672
  N     2.577199  3.539107 -0.424730
  N     2.369112  7.952311 -0.635674
  N     2.023888  3.863432  3.529158
  N     1.921357  8.210737  3.266452
  S     1.157204  3.436463  2.105482
  S     1.112870  7.744322  1.868112
  S     4.091963  4.304374 -0.766335
  S     3.936840  8.411118 -1.073924
  S     3.465539  4.611536  3.208717
  S     3.487461  8.599516  3.055243
