16  
    
  C    10.509890  7.229519  2.773947
  C    10.274732 11.088548  2.745934
  C     9.222145  7.353548  2.144824
  C     9.035879 10.884148  2.101087
  N    11.550110  7.113871  1.946735
  N    11.296143 11.202172  1.889492
  N     9.204516  7.253061  0.822152
  N     9.119497 10.682101  0.771039
  N     8.812865  7.346507  4.703615
  N     8.568210 11.066880  4.640951
  S     7.926259  7.712783  3.345578
  S     7.691186 10.810985  3.226971
  S    10.828875  7.216516  0.404971
  S    10.692350 10.893417  0.351749
  S    10.457153  7.320945  4.495465
  S    10.157472 11.437032  4.409470
