16  
    
  C     8.509106  6.631555  2.317523
  C     8.290635 10.185815  2.554641
  C     7.294749  6.242214  1.737819
  C     7.243681  9.593278  1.813615
  N     9.473556  6.892797  1.468674
  N     9.372879 10.539302  1.843188
  N     7.384188  6.028112  0.427049
  N     7.557921  9.416286  0.529531
  N     6.963538  6.330212  4.352408
  N     6.374842 10.040872  4.256640
  S     6.094989  5.862190  3.028013
  S     5.776307  9.458767  2.814119
  S     8.927343  6.497252 -0.009171
  S     9.041110 10.088765  0.275969
  S     8.585666  6.802580  4.042325
  S     7.960629 10.573328  4.228770
