16  
    
  C     9.112330  7.175050  2.288566
  C     9.034677 10.677759  2.361683
  C     7.958742  6.605364  1.736474
  C     7.868741 10.154786  1.777672
  N    10.089177  7.176326  1.372533
  N    10.035068 10.780106  1.472593
  N     7.970500  6.338734  0.434365
  N     7.888213  9.931471  0.490423
  N     7.352838  6.742989  4.175440
  N     7.176842 10.666339  4.212843
  S     6.603993  6.345412  2.780310
  S     6.465892 10.066262  2.805208
  S     9.489177  6.652050 -0.062680
  S     9.447310 10.370733 -0.012157
  S     8.978365  7.224464  4.088880
  S     8.792550 10.926781  4.080265
