16  
    
  C     6.683358  5.738053  1.921892
  C     6.668038  9.500216  1.986773
  C     5.402233  5.424341  1.405033
  C     5.396506  9.126700  1.456435
  N     7.672233  5.755070  1.027344
  N     7.609174  9.636194  1.070079
  N     5.418960  5.346054  0.094017
  N     5.352017  9.000575  0.142838
  N     4.940171  5.888204  3.801865
  N     5.048270  9.324854  3.999208
  S     4.032902  5.431065  2.514741
  S     4.090611  8.992804  2.600022
  S     6.963129  5.581959 -0.476761
  S     6.918793  9.302427 -0.405889
  S     6.641956  5.951220  3.648658
  S     6.637604  9.815606  3.691287
