16  
    
  C     6.962260  5.974663  1.652995
  C     7.342942  9.886788  2.499184
  C     5.870826  5.133392  1.199372
  C     6.024947  9.544018  1.934048
  N     7.940852  6.182745  0.754998
  N     8.321324  9.831587  1.582048
  N     6.012777  4.709591 -0.057440
  N     6.045015  9.160092  0.654945
  N     5.163152  5.796952  3.575931
  N     5.510004  9.881953  4.405836
  S     4.555021  4.979640  2.324587
  S     4.679794  9.542318  3.024450
  S     7.390698  5.407589 -0.626996
  S     7.630556  9.405872  0.135699
  S     6.704966  6.406496  3.359530
  S     7.161358 10.255904  4.209414
