16  
    
  C    11.987023  8.625001  3.544959
  C    11.880161 12.284478  3.197033
  C    10.818879  8.123579  2.890483
  C    10.621402 11.811371  2.671228
  N    13.017306  8.815493  2.729474
  N    12.908099 12.232406  2.332073
  N    10.966308  7.883515  1.584623
  N    10.626929 11.596779  1.362489
  N    10.278314  8.345381  5.411565
  N    10.222132 11.883007  5.208530
  S     9.495567  7.889069  4.020378
  S     9.302056 11.547332  3.829844
  S    12.527885  8.314043  1.201918
  S    12.251824 11.865443  0.888818
  S    11.816583  8.837622  5.246951
  S    11.868921 12.222713  4.921181
