16  
    
  C     7.503476  6.100645  2.180997
  C     7.951937  9.891282  2.215161
  C     6.363229  5.447343  1.621548
  C     6.681682  9.482048  1.724219
  N     8.470451  6.345108  1.295233
  N     8.890217  9.977002  1.306457
  N     6.360603  5.401278  0.300486
  N     6.646497  9.294987  0.426119
  N     5.719330  5.782696  4.048761
  N     6.340783  9.404457  4.266885
  S     5.039030  5.158234  2.649740
  S     5.482801  9.161646  2.870004
  S     7.836933  6.015724 -0.196787
  S     8.150004  9.666965 -0.153627
  S     7.385776  6.160531  3.922262
  S     7.880941 10.118067  3.974447
