16  
    
  C     3.639174  4.752960  1.559489
  C     3.850322  8.303171  1.712909
  C     2.402606  4.351848  0.903629
  C     2.554662  7.965340  1.072313
  N     4.678894  4.871092  0.751364
  N     4.858287  8.371035  0.850443
  N     2.514624  4.330399 -0.426117
  N     2.656464  7.656734 -0.210021
  N     1.989471  4.393344  3.424980
  N     2.113166  8.332167  3.561666
  S     1.036993  4.283314  2.046549
  S     1.276580  7.883724  2.219449
  S     4.141397  4.682631 -0.804934
  S     4.258688  7.888343 -0.617753
  S     3.543129  4.887897  3.233949
  S     3.715679  8.722857  3.381791
