16  
    
  C     9.325503  6.793141  2.385666
  C     9.425509 10.555329  2.771022
  C     8.149225  6.315516  1.702477
  C     8.176510 10.359660  2.153119
  N    10.413724  6.849864  1.616964
  N    10.519408 10.386622  2.039451
  N     8.307634  6.072416  0.405826
  N     8.304516 10.001256  0.875180
  N     7.377423  6.561326  4.095244
  N     7.654608 10.940162  4.569199
  S     6.739147  6.202020  2.637551
  S     6.814890 10.601113  3.205894
  S     9.835155  6.417444  0.082817
  S     9.871144 10.006232  0.534303
  S     9.030672  6.823152  4.117502
  S     9.304905 10.899924  4.478036
