16  
    
  C     9.969119  7.595440  2.649899
  C     9.876646 11.285596  2.977538
  C     8.667676  7.387724  2.062239
  C     8.716769 10.774611  2.255030
  N    10.974898  7.704591  1.755992
  N    10.936582 11.565445  2.212750
  N     8.713012  7.278198  0.733252
  N     8.962471 10.600488  0.972060
  N     8.131325  7.375360  4.593691
  N     7.988701 11.063988  4.713773
  S     7.373280  7.204750  3.115992
  S     7.386917 10.480286  3.282704
  S    10.252961  7.557683  0.264050
  S    10.480302 11.114741  0.644468
  S     9.771424  7.778385  4.438114
  S     9.634761 11.405917  4.693583
