16  
    
  C     4.470903  5.245448  1.617566
  C     4.544290  8.455229  1.501915
  C     3.264974  4.748570  1.025933
  C     3.278244  7.973912  0.876418
  N     5.505984  5.342927  0.796948
  N     5.580137  8.473647  0.671608
  N     3.386172  4.507250 -0.284256
  N     3.394083  7.712160 -0.415156
  N     2.793401  4.872750  3.600569
  N     2.586610  8.775360  3.224537
  S     1.993840  4.446429  2.227380
  S     1.938605  7.834731  1.973322
  S     4.921901  4.917404 -0.680425
  S     5.011127  8.044204 -0.836301
  S     4.358248  5.355597  3.371896
  S     4.276224  8.895431  3.176955
