16  
    
  C    10.785990  7.800563  3.114495
  C    10.620558 12.009681  3.136999
  C     9.520083  7.412521  2.527254
  C     9.426422 11.229341  2.711309
  N    11.705652  8.086223  2.239311
  N    11.507215 12.234294  2.179877
  N     9.480507  7.440039  1.212938
  N     9.338506 10.998244  1.408254
  N     9.115668  7.599504  5.133090
  N     9.172919 11.577324  5.248234
  S     8.305291  7.089670  3.723724
  S     8.306959 10.926229  4.011864
  S    11.057765  7.793628  0.725284
  S    10.792343 11.634316  0.791365
  S    10.751743  7.852555  4.786737
  S    10.670624 12.202105  4.827353
