16  
    
  C     9.429443  7.028680  2.943499
  C     9.558071 10.826694  2.589174
  C     8.310257  6.453647  2.263086
  C     8.400528 10.317963  1.975861
  N    10.428089  7.503240  2.225063
  N    10.564670 11.113101  1.785764
  N     8.448520  6.524224  0.950316
  N     8.442909 10.352154  0.663373
  N     7.710147  6.412532  4.765877
  N     7.953960 10.363222  4.491343
  S     6.984553  6.009214  3.315267
  S     7.118593 10.004456  3.116609
  S     9.926395  7.166982  0.678440
  S     9.942806 10.825888  0.237855
  S     9.277324  6.964794  4.679884
  S     9.524460 10.894036  4.350496
