16  
    
  C     9.221294  6.728453  2.531768
  C     9.649646 10.742681  2.763215
  C     8.014112  6.259752  1.858763
  C     8.427039 10.150594  2.209990
  N    10.267866  6.981220  1.739058
  N    10.605043 10.942390  1.876415
  N     8.130811  6.311757  0.556413
  N     8.415889 10.060767  0.897785
  N     7.379529  6.472212  4.339617
  N     8.074280 10.383799  4.767211
  S     6.661806  5.985082  2.919629
  S     7.232378  9.848997  3.431072
  S     9.735303  6.732396  0.187273
  S     9.989454 10.549221  0.410281
  S     8.993869  6.788136  4.291140
  S     9.603581 10.934914  4.520097
