16  
    
  C     7.614771  6.632214  2.329556
  C     7.740169 10.086315  2.242630
  C     6.396633  6.104395  1.859702
  C     6.537844  9.799352  1.521548
  N     8.618915  6.631306  1.450872
  N     8.824945 10.186932  1.459187
  N     6.431169  5.799977  0.549552
  N     6.692270  9.590693  0.218138
  N     5.939626  6.698882  4.368457
  N     5.849849 10.002477  4.041084
  S     5.106762  6.183761  3.064117
  S     5.088259  9.859793  2.554297
  S     7.951048  6.058140  0.050842
  S     8.358593  9.759878 -0.052286
  S     7.599131  6.952828  4.033501
  S     7.506124 10.194789  3.929530
