16  
    
  C    11.028499  8.226852  2.974046
  C    10.911968 11.558857  2.941665
  C     9.906359  7.416776  2.523827
  C     9.699580 11.063085  2.311931
  N    11.916058  8.515046  2.011372
  N    11.900902 11.837358  2.055526
  N     9.967935  7.092289  1.232585
  N     9.669683 11.186943  0.972931
  N     9.535205  7.933652  5.021179
  N     9.129271 11.266539  4.895269
  S     8.782473  7.154307  3.759338
  S     8.346696 10.903936  3.419308
  S    11.277719  7.921917  0.575616
  S    11.236963 11.617639  0.573555
  S    10.952956  8.714527  4.619432
  S    10.716492 11.771386  4.655468
