16  
    
  C     6.778533  6.113174  2.389475
  C     7.253603  9.614625  2.147287
  C     5.669463  5.477730  1.775937
  C     6.002652  9.358935  1.531105
  N     7.618598  6.677314  1.509617
  N     8.284013  9.706657  1.311509
  N     5.760458  5.296911  0.455475
  N     6.032256  9.309992  0.218686
  N     5.289349  5.177366  4.327503
  N     5.508881  9.574081  4.049821
  S     4.575880  4.778022  2.886543
  S     4.662512  9.448034  2.585817
  S     7.103942  6.153517  0.022592
  S     7.554915  9.492690 -0.262814
  S     6.569254  6.226472  4.094306
  S     7.122302  9.807312  3.930890
