16  
    
  C    10.126776  7.447158  2.595066
  C    10.382356 11.043324  2.683969
  C     8.943367  6.966783  2.008074
  C     9.137977 10.968766  2.014320
  N    11.066965  7.630367  1.661534
  N    11.416002 10.935842  1.847385
  N     8.935909  6.710482  0.707624
  N     9.167458 11.023656  0.689432
  N     8.387230  7.299628  4.440888
  N     8.609834 10.988689  4.560329
  S     7.621636  6.731089  3.110739
  S     7.748744 10.921076  3.141543
  S    10.450577  7.036153  0.220592
  S    10.791229 10.991484  0.358021
  S     9.997022  7.570567  4.339661
  S    10.239702 11.102725  4.427240
