16  
    
  C     7.954874  6.319311  2.312794
  C     8.086888 10.503745  2.110723
  C     6.717015  5.970388  1.591793
  C     6.839124  9.920439  1.612227
  N     8.951904  6.640201  1.488565
  N     9.009611 10.694760  1.150536
  N     6.886323  5.868418  0.273239
  N     6.837610  9.671729  0.304306
  N     5.986915  6.320335  3.971254
  N     6.459247 10.236492  4.130275
  S     5.289754  5.660145  2.548548
  S     5.622170  9.739916  2.799049
  S     8.369276  6.333479 -0.066261
  S     8.301214 10.128885 -0.268779
  S     7.600584  6.509718  4.063199
  S     7.975541 10.926133  3.859898
