16  
    
  C    10.971851  8.145757  2.969196
  C    10.844416 11.643281  2.780999
  C     9.803149  7.413127  2.540307
  C     9.625620 11.155668  2.166895
  N    11.811559  8.461190  2.011779
  N    11.858402 11.798215  1.956128
  N     9.764496  7.181291  1.244042
  N     9.686352 11.070697  0.844770
  N     9.588869  7.781533  5.052491
  N     9.141496 11.540608  4.725951
  S     8.720279  7.039007  3.868209
  S     8.382634 10.857590  3.342795
  S    11.215704  7.748013  0.589014
  S    11.264938 11.538613  0.471534
  S    10.994790  8.515444  4.701698
  S    10.820370 11.659295  4.587565
