16  
    
  C    12.144111  8.939049  3.532459
  C    11.973359 12.416669  3.388674
  C    11.012817  8.491046  2.765779
  C    10.641628 12.115485  2.833956
  N    13.206464  9.038626  2.750110
  N    12.922580 12.569547  2.445160
  N    11.228262  8.346553  1.476759
  N    10.582556 12.119086  1.500436
  N    10.232986  8.576878  5.196477
  N    10.227085 12.036129  5.340062
  S     9.530197  8.345937  3.705183
  S     9.350091 11.867300  3.911700
  S    12.742804  8.821501  1.167566
  S    12.189174 12.212286  1.012979
  S    11.783759  9.019237  5.278960
  S    11.933127 12.407188  5.126904
