16  
    
  C    10.672881  7.658351  3.051512
  C    10.624456 11.853821  3.109566
  C     9.419261  7.307641  2.492455
  C     9.410722 11.256644  2.726891
  N    11.655211  8.031869  2.206200
  N    11.492201 12.113087  2.131215
  N     9.433013  7.405085  1.140902
  N     9.359949 10.961939  1.451003
  N     9.075484  7.516956  4.997553
  N     9.234122 11.503687  5.279715
  S     8.229618  7.067223  3.719851
  S     8.300719 10.917397  3.987600
  S    10.951094  7.795752  0.731683
  S    10.743858 11.609803  0.753630
  S    10.680253  7.786596  4.805613
  S    10.614806 12.267064  4.801456
