16  
    
  C     9.281031  6.640825  2.552292
  C     9.628865 10.633417  2.801139
  C     8.104480  6.272947  1.832195
  C     8.396328 10.222730  2.216305
  N    10.294953  6.894156  1.721196
  N    10.607462 10.875616  1.906876
  N     8.161228  6.274958  0.486117
  N     8.440489 10.057095  0.895762
  N     7.389801  6.405703  4.283460
  N     8.024050 10.445937  4.740729
  S     6.703051  6.009032  2.824120
  S     7.146603  9.941963  3.430544
  S     9.677885  6.706717  0.161546
  S     9.937083 10.449489  0.434480
  S     9.010558  6.812437  4.296613
  S     9.614453 10.940157  4.504542
