16  
    
  C     7.827326  6.337707  2.165388
  C     8.097767 10.492813  2.190239
  C     6.562966  5.968455  1.465968
  C     6.882954  9.922702  1.578530
  N     8.851538  6.658307  1.397970
  N     9.079146 10.723947  1.332092
  N     6.794052  5.868730  0.154952
  N     6.988039  9.795055  0.250552
  N     6.144858  5.996215  4.019755
  N     6.420379 10.234884  4.115282
  S     5.313624  5.527280  2.625398
  S     5.615294  9.649222  2.773096
  S     8.364326  6.280221 -0.136597
  S     8.585059 10.238368 -0.146829
  S     7.727446  6.387771  3.859257
  S     7.895654 10.954440  3.801867
