16  
    
  C    11.864641  8.563769  3.181469
  C    11.396986 12.315376  3.437267
  C    10.582363  8.290692  2.565964
  C    10.231432 11.702396  2.814552
  N    12.810084  8.829959  2.314777
  N    12.470645 12.415436  2.633517
  N    10.595846  8.291842  1.236025
  N    10.404124 11.533689  1.515842
  N    10.207194  7.974879  5.143781
  N     9.638167 11.600491  5.197838
  S     9.349261  7.855964  3.749392
  S     8.932934 11.146419  3.802484
  S    12.137648  8.579302  0.812431
  S    11.889708 12.018443  1.108806
  S    11.850663  8.495963  4.977970
  S    11.113045 12.279966  5.187000
