16  
    
  C     5.519035  5.290921  1.792216
  C     5.161657  8.970565  1.678960
  C     4.183236  5.199572  1.287344
  C     3.992094  8.490250  1.003259
  N     6.479448  5.369466  0.899012
  N     6.227653  9.062704  0.892435
  N     4.149254  5.024908 -0.031917
  N     4.100387  8.374507 -0.315651
  N     3.968782  5.157641  3.885038
  N     3.380484  8.630615  3.491241
  S     2.988137  5.130527  2.540755
  S     2.625934  8.220763  2.098150
  S     5.701755  5.240676 -0.580431
  S     5.756233  8.686772 -0.658327
  S     5.562355  5.401358  3.512502
  S     4.939598  9.239871  3.436687
