16  
    
  C    10.331716  7.625656  2.616254
  C    10.525929 11.362913  2.820726
  C     9.060454  7.293285  2.002407
  C     9.290571 11.339229  2.023035
  N    11.285653  7.634142  1.728659
  N    11.619743 11.252884  2.080366
  N     9.090446  7.123170  0.690853
  N     9.454534 11.137127  0.700941
  N     8.610498  7.738513  4.533621
  N     8.564194 11.294096  4.504818
  S     7.765729  7.177357  3.171074
  S     7.832056 11.447508  3.033413
  S    10.683808  7.224390  0.264560
  S    11.136672 11.122336  0.514526
  S    10.253866  7.982963  4.343683
  S    10.244534 11.640718  4.515080
