16  
    
  C    11.783428  8.613865  3.203523
  C    11.344192 12.135982  3.401490
  C    10.530764  8.227239  2.605149
  C    10.205930 11.617585  2.662492
  N    12.726378  8.772547  2.327649
  N    12.325790 12.565374  2.616833
  N    10.507876  8.225588  1.295963
  N    10.365524 11.490169  1.338080
  N    10.235202  8.056461  5.131311
  N     9.546187 11.630672  5.254499
  S     9.346693  7.756860  3.758614
  S     8.883198 11.271769  3.713460
  S    12.078728  8.628906  0.807934
  S    11.932756 12.129848  1.055198
  S    11.759820  8.616124  4.915851
  S    11.134450 12.297337  5.155086
