16  
    
  C     7.622081  6.217694  2.203381
  C     7.864988 10.050927  2.374159
  C     6.339416  5.833333  1.593626
  C     6.680298  9.394271  1.800761
  N     8.590599  6.477246  1.311025
  N     8.807538 10.376541  1.503745
  N     6.483454  5.598829  0.290938
  N     6.783662  9.200873  0.479418
  N     5.977743  5.789556  4.084429
  N     6.170698  9.685831  4.263904
  S     5.105690  5.395790  2.733037
  S     5.436523  9.089829  2.902602
  S     7.957400  6.021572 -0.167250
  S     8.221363  9.930497  0.027447
  S     7.520700  6.328019  3.958739
  S     7.744480 10.151803  4.137178
