16  
    
  C     7.802217  6.377165  2.166302
  C     8.070561 10.508455  2.182264
  C     6.605199  5.911733  1.505681
  C     6.898007  9.914528  1.589345
  N     8.841632  6.641388  1.370731
  N     9.049356 10.748139  1.330907
  N     6.728476  5.859440  0.181351
  N     7.003553  9.779847  0.252989
  N     6.142884  5.911789  3.984177
  N     6.429876 10.224519  4.098579
  S     5.301615  5.524827  2.614132
  S     5.602656  9.651409  2.748261
  S     8.365281  6.277887 -0.154014
  S     8.635455 10.240589 -0.136149
  S     7.767425  6.386667  3.853478
  S     7.888514 10.934431  3.828497
