16  
    
  C     9.073703  6.943825  2.613349
  C     9.701750 10.791507  2.747947
  C     7.938384  6.411973  1.918130
  C     8.546029 10.173624  2.208961
  N    10.149150  7.171904  1.860986
  N    10.618519 11.166017  1.861515
  N     8.140438  6.277136  0.585238
  N     8.562877 10.027567  0.861068
  N     7.403867  6.523703  4.432882
  N     8.157467 10.165277  4.713843
  S     6.666963  6.002458  3.032686
  S     7.318185  9.679116  3.359122
  S     9.711145  6.783083  0.329576
  S    10.014871 10.732674  0.385712
  S     9.027527  6.782124  4.334801
  S     9.590967 10.964403  4.490830
