16  
    
  C     6.718457  6.228181  2.383009
  C     7.279841  9.645434  2.223284
  C     5.665096  5.379368  1.829128
  C     5.961809  9.461783  1.583052
  N     7.601634  6.658774  1.480144
  N     8.217258  9.782746  1.284255
  N     5.678553  5.359759  0.511171
  N     5.951580  9.343345  0.273481
  N     5.365004  5.209149  4.354300
  N     5.446276  9.419434  4.030083
  S     4.531213  4.699416  2.953274
  S     4.595469  9.460201  2.661746
  S     7.054840  6.104742 -0.006496
  S     7.586164  9.482198 -0.210193
  S     6.635910  6.231444  4.141529
  S     7.091192  9.829491  3.949694
