16  
    
  C     4.736383  4.995742  1.973542
  C     4.722087  8.876917  1.665281
  C     3.527653  4.615462  1.256761
  C     3.463896  8.591349  1.082495
  N     5.845097  4.993278  1.235506
  N     5.665135  9.225038  0.777113
  N     3.737833  4.542319 -0.078346
  N     3.467159  8.515377 -0.246960
  N     2.952532  4.809029  3.771071
  N     3.110029  8.189079  3.648565
  S     2.120272  4.440747  2.412234
  S     2.257323  7.989615  2.223994
  S     5.396285  4.795400 -0.312015
  S     4.999502  9.016946 -0.707064
  S     4.592892  5.002767  3.654959
  S     4.630209  8.858218  3.433970
