16  
    
  C     9.253767  6.584348  2.407693
  C     9.311352 10.536340  2.888830
  C     8.021981  6.311295  1.685508
  C     8.012797 10.458093  2.200361
  N    10.385779  6.580464  1.714981
  N    10.365093 10.318577  2.119623
  N     8.275647  6.029595  0.419055
  N     8.134896 10.055268  0.939273
  N     7.398258  6.940686  4.078455
  N     7.439635 10.764934  4.612917
  S     6.695449  6.183880  2.758271
  S     6.663698 10.764642  3.161866
  S     9.954010  6.246145  0.184732
  S     9.808429  9.942238  0.633051
  S     9.026991  7.099196  3.995700
  S     9.098417 11.070323  4.501339
