16  
    
  C    12.079461  8.866008  3.508065
  C    11.856946 12.407913  3.324144
  C    10.901908  8.544622  2.734986
  C    10.596197 12.013308  2.801781
  N    13.198397  9.051256  2.783697
  N    12.842617 12.529835  2.447161
  N    11.125833  8.363271  1.420763
  N    10.604184 12.023693  1.482023
  N    10.176861  8.558222  5.267240
  N    10.265602 12.047847  5.364104
  S     9.514084  8.329332  3.711570
  S     9.290582 11.880240  3.945271
  S    12.733283  8.775725  1.158229
  S    12.156139 12.224510  0.969421
  S    11.809770  8.952704  5.240384
  S    11.967390 12.322802  5.077421
