16  
    
  C     9.523355  7.571649  2.563940
  C    10.161759 11.401573  2.565286
  C     8.430241  6.752980  2.074499
  C     8.900797 10.901028  1.987858
  N    10.547663  7.891293  1.745363
  N    11.184462 11.444495  1.722855
  N     8.661053  6.380107  0.814178
  N     8.987737 10.749092  0.665439
  N     7.830113  7.442496  4.499055
  N     8.568920 11.087630  4.511097
  S     7.155307  6.557160  3.277044
  S     7.692921 10.717156  3.154887
  S    10.190302  6.995440  0.384489
  S    10.557247 11.036552  0.196531
  S     9.395260  7.924479  4.262281
  S    10.095154 11.600879  4.280147
