16  
    
  C     4.202329  4.851698  1.422472
  C     4.272626  8.345941  1.341366
  C     2.973890  4.470033  0.758441
  C     3.008251  8.044989  0.686789
  N     5.261602  5.019357  0.626144
  N     5.333006  8.435942  0.524948
  N     3.131827  4.453787 -0.567523
  N     3.135584  7.735752 -0.606345
  N     2.495467  4.814044  3.290163
  N     2.498978  8.271022  3.213307
  S     1.606386  4.538820  1.939478
  S     1.731899  7.848043  1.845750
  S     4.762201  4.694009 -0.945719
  S     4.737804  8.024580 -1.032314
  S     4.132693  4.991257  3.142528
  S     4.104688  8.652424  3.066249
