16  
    
  C    12.691862  8.786616  3.554672
  C    12.233116 13.048845  3.762404
  C    11.434416  8.423502  2.941031
  C    11.161797 12.285322  3.124565
  N    13.647066  9.076980  2.668726
  N    13.280617 13.130921  2.927534
  N    11.453891  8.322686  1.612629
  N    11.276265 11.989418  1.825346
  N    10.860082  8.689432  5.369088
  N    10.518461 12.563739  5.594288
  S    10.173709  8.238514  3.998186
  S     9.964682 11.727481  4.225225
  S    12.997708  8.742399  1.145971
  S    12.807721 12.597007  1.470166
  S    12.461473  9.109248  5.263489
  S    12.029841 13.104442  5.472781
