16  
    
  C     5.836150  5.439152  2.144657
  C     5.856614  9.025934  1.853379
  C     4.582714  5.388176  1.447948
  C     4.650824  8.681279  1.156447
  N     6.923078  5.481041  1.338640
  N     7.012382  9.081546  1.165792
  N     4.631171  5.107428  0.142973
  N     4.850029  8.581278 -0.149221
  N     3.989458  5.684432  3.993100
  N     3.947024  9.184834  3.618901
  S     3.230226  5.574614  2.476833
  S     3.217661  8.819511  2.174935
  S     6.249242  5.309884 -0.188505
  S     6.479713  8.818827 -0.424427
  S     5.613858  5.884908  3.780272
  S     5.672263  9.311144  3.545194
