16  
    
  C     9.789644  7.486226  2.846993
  C     9.753378 11.122661  2.891442
  C     8.625928  6.971534  2.134561
  C     8.586821 10.568116  2.211789
  N    10.795071  7.781234  2.048232
  N    10.771167 11.311650  2.078429
  N     8.721327  6.913879  0.820504
  N     8.667058 10.499793  0.878705
  N     7.913462  6.984177  4.565775
  N     7.956044 10.747997  4.692218
  S     7.188755  6.679085  3.069966
  S     7.262510 10.196354  3.288216
  S    10.268005  7.385134  0.480551
  S    10.271919 10.943609  0.550621
  S     9.434104  7.602223  4.526447
  S     9.541308 11.217950  4.617011
