16  
    
  C     5.191913  5.134622  2.047800
  C     5.157869  8.515150  1.924066
  C     3.901372  4.941934  1.392035
  C     3.998610  8.351777  1.144966
  N     6.218304  5.138138  1.185818
  N     6.288477  8.576634  1.237744
  N     3.948880  4.831412  0.078236
  N     4.282090  8.162406 -0.140109
  N     3.310436  5.176203  3.833187
  N     3.188241  8.953122  3.520737
  S     2.556397  4.927022  2.405813
  S     2.508696  8.436959  2.057324
  S     5.535436  4.883790 -0.360659
  S     5.880777  8.287372 -0.323845
  S     4.980161  5.221479  3.799125
  S     4.847467  8.782295  3.617915
