16  
    
  C     9.336652  7.005444  2.907177
  C     9.612978 10.826286  2.628492
  C     8.177113  6.510995  2.229702
  C     8.541428 10.210994  1.978641
  N    10.334522  7.280970  2.083694
  N    10.590984 11.209335  1.815438
  N     8.207711  6.550328  0.910094
  N     8.576745 10.218859  0.672724
  N     7.569034  6.566344  4.712767
  N     8.001047 10.274435  4.483052
  S     6.881778  5.951132  3.311532
  S     7.252785  9.747113  3.122658
  S     9.767118  7.017855  0.541018
  S    10.024964 10.890304  0.262912
  S     9.149455  6.926319  4.617248
  S     9.540325 10.878456  4.347758
