16  
    
  C    12.882288  9.390305  3.442849
  C    12.803767 13.006593  3.581134
  C    11.696400  8.846728  2.809936
  C    11.567922 12.536697  3.013448
  N    13.961480  9.414986  2.615637
  N    13.793658 12.928944  2.714458
  N    11.851720  8.559406  1.518154
  N    11.608516 12.241830  1.726364
  N    11.079504  9.013761  5.278463
  N    11.054888 12.892669  5.490427
  S    10.362202  8.503634  3.914511
  S    10.213893 12.420235  4.100339
  S    13.438156  8.825648  1.154798
  S    13.174352 12.403564  1.213529
  S    12.503246  9.751477  5.184328
  S    12.744991 13.201744  5.318759
