16  
    
  C    12.713325  8.906645  3.604804
  C    12.380326 12.802172  3.898791
  C    11.481242  8.430734  3.014151
  C    11.222221 12.253298  3.197664
  N    13.732295  8.959954  2.718480
  N    13.355059 13.184066  3.059061
  N    11.531662  8.306686  1.677621
  N    11.394905 12.067428  1.905188
  N    10.929456  8.583131  5.563410
  N    10.481919 12.503685  5.590779
  S    10.109569  8.188688  4.109422
  S     9.930509 11.742745  4.207238
  S    13.031175  8.694861  1.217152
  S    12.907823 12.576607  1.539930
  S    12.508760  9.127064  5.321982
  S    12.075814 13.146927  5.583426
