16  
    
  C     5.471384  5.303555  1.811125
  C     5.073415  9.097324  1.690496
  C     4.167575  5.195494  1.166462
  C     3.872068  8.518731  1.058979
  N     6.435039  5.466424  0.920742
  N     6.097329  9.247870  0.865855
  N     4.212316  4.950515 -0.147441
  N     3.987488  8.317914 -0.253882
  N     3.754023  5.374081  3.669091
  N     3.353361  8.749821  3.525181
  S     2.861971  5.213169  2.254157
  S     2.577766  8.316592  2.167986
  S     5.784921  5.236715 -0.594139
  S     5.577636  8.793319 -0.627807
  S     5.374082  5.426532  3.564134
  S     4.993367  8.936656  3.407997
