16  
    
  C    11.027613  7.677127  3.138759
  C    11.122183 11.764700  2.775290
  C     9.716604  7.405767  2.525000
  C     9.949769 11.183384  2.238587
  N    12.041348  7.882260  2.291372
  N    12.126684 11.927548  1.927314
  N     9.734932  7.432177  1.179527
  N    10.044808 10.885288  0.940173
  N     9.196238  7.704541  5.028682
  N     9.441917 11.635232  4.749882
  S     8.399147  7.147822  3.620249
  S     8.653836 10.931273  3.416632
  S    11.321048  7.725417  0.774069
  S    11.594997 11.369733  0.426775
  S    10.896305  7.690196  4.845334
  S    11.058532 12.058652  4.450975
