16  
    
  C     3.641327  4.528086  1.605903
  C     3.708308  8.454819  1.531927
  C     2.421839  3.965998  0.971276
  C     2.480960  8.001803  0.870008
  N     4.475159  4.990414  0.653789
  N     4.732946  8.548704  0.690332
  N     2.435723  3.700995 -0.330252
  N     2.540780  8.121222 -0.458642
  N     1.968777  3.903151  3.540785
  N     1.978873  8.132500  3.345285
  S     1.265598  3.407032  2.048521
  S     1.181683  7.669093  1.918894
  S     3.924448  4.294848 -0.791359
  S     4.129341  8.447096 -0.830287
  S     3.459902  4.664776  3.379065
  S     3.558670  8.530020  3.225919
