16  
    
  C     5.376571  5.651979  1.726802
  C     5.199341  8.826943  1.771658
  C     4.216586  5.305723  0.980365
  C     3.925222  8.607853  1.061746
  N     6.485365  5.529892  1.016235
  N     6.246677  9.065678  0.977986
  N     4.399803  5.114322 -0.314887
  N     4.048412  8.633956 -0.263368
  N     3.422640  5.321735  3.404050
  N     3.379679  8.462060  3.590708
  S     2.783087  5.124079  1.873122
  S     2.621846  8.209560  2.135606
  S     6.005664  5.300387 -0.543227
  S     5.640061  8.996754 -0.576443
  S     4.991174  5.762145  3.436378
  S     5.032593  8.905985  3.522222
