16  
    
  C     8.002213  6.744391  2.677643
  C     8.645897 10.367500  2.604687
  C     6.884700  6.134380  1.962322
  C     7.380960  9.931976  2.024109
  N     9.114811  6.776987  1.927173
  N     9.686346 10.329454  1.790604
  N     7.076088  5.945795  0.662779
  N     7.431896  9.637098  0.710559
  N     6.099822  6.219671  4.365434
  N     6.908118 10.233162  4.529400
  S     5.447499  5.889390  2.870201
  S     6.097722  9.783916  3.155852
  S     8.604477  6.313451  0.363011
  S     8.992812  9.957442  0.224008
  S     7.646127  6.806583  4.402714
  S     8.490796 10.730688  4.310228
