16  
    
  C     8.555492  6.656086  2.359777
  C     8.348753 10.247214  2.522915
  C     7.294347  6.183258  1.779208
  C     7.205356  9.663085  1.797002
  N     9.529700  6.889539  1.509240
  N     9.431800 10.478301  1.797143
  N     7.378070  6.031210  0.470126
  N     7.445945  9.431496  0.505532
  N     7.006639  6.282720  4.312901
  N     6.442119 10.113700  4.242526
  S     6.039744  5.872514  2.969978
  S     5.796749  9.487364  2.836542
  S     8.866119  6.533113 -0.039082
  S     8.980261 10.073518  0.210135
  S     8.573400  6.793435  4.103414
  S     8.062128 10.569521  4.184697
