16  
    
  C     9.903266  7.741022  2.873451
  C     9.871423 11.163947  2.893295
  C     8.746963  7.252786  2.156513
  C     8.627380 10.822746  2.192228
  N    10.896423  7.998938  1.999343
  N    10.915449 11.216913  2.058460
  N     8.870637  7.119715  0.839933
  N     8.735766 10.764330  0.837963
  N     7.917555  7.493015  4.547254
  N     8.117085 10.774844  4.678985
  S     7.286899  7.016045  3.082555
  S     7.275503 10.869772  3.304460
  S    10.415470  7.522652  0.490061
  S    10.328712 11.008491  0.503789
  S     9.520829  7.766844  4.569283
  S     9.712014 11.336901  4.614540
