16  
    
  C     9.959870  7.654825  2.999557
  C    10.593496 11.649552  3.024099
  C     8.833664  7.226765  2.238138
  C     9.379546 11.059837  2.531434
  N    11.003092  7.966264  2.269876
  N    11.494152 11.899659  2.078211
  N     8.999105  7.129873  0.949701
  N     9.346343 10.682761  1.257885
  N     8.129106  7.039095  4.643869
  N     9.031851 11.382000  5.088706
  S     7.434327  6.822350  3.222183
  S     8.142455 10.870700  3.780208
  S    10.602566  7.646100  0.688818
  S    10.840043 11.185592  0.679351
  S     9.666563  7.563723  4.664925
  S    10.548321 11.980174  4.724391
