16  
    
  C     6.648163  6.066261  2.358142
  C     7.009232  9.790778  2.259090
  C     5.550789  5.336066  1.838597
  C     5.772382  9.475894  1.630402
  N     7.527882  6.508206  1.487811
  N     8.044390  9.935616  1.444260
  N     5.566493  5.217092  0.526513
  N     5.859851  9.289630  0.315635
  N     5.300006  5.377609  4.446340
  N     5.351201  9.464761  4.111165
  S     4.564102  4.741938  3.096601
  S     4.486211  9.365040  2.785053
  S     6.916836  6.044605  0.025329
  S     7.523948  9.615882 -0.059821
  S     6.706005  6.135112  4.075184
  S     6.976027  9.850056  4.000047
