16  
    
  C    10.192373  7.366285  2.624414
  C    10.394695 10.929110  2.734422
  C     8.918633  6.920985  2.027423
  C     9.062887 10.965255  2.068180
  N    11.147842  7.541008  1.723979
  N    11.443598 10.974877  1.908100
  N     9.009550  6.687257  0.738959
  N     9.159261 10.929920  0.737663
  N     8.397234  7.340839  4.492211
  N     8.556654 10.845109  4.592520
  S     7.638876  6.835952  3.117638
  S     7.727971 10.958623  3.154088
  S    10.536387  7.115329  0.237496
  S    10.771710 10.987142  0.336427
  S    10.073940  7.519559  4.379121
  S    10.230170 11.073476  4.471568
