16  
    
  C    12.022753  8.577561  3.245547
  C    12.019526 12.167005  3.244570
  C    10.675686  8.329459  2.691876
  C    10.828686 11.705018  2.613810
  N    13.002412  8.656614  2.360727
  N    13.042501 12.199532  2.379613
  N    10.671845  8.210890  1.366909
  N    10.859553 11.657312  1.268853
  N    10.415671  8.473059  5.301747
  N    10.281975 11.936044  5.142928
  S     9.494966  8.110649  3.934605
  S     9.491557 11.555424  3.689929
  S    12.288612  8.409649  0.878072
  S    12.415190 11.909444  0.863244
  S    12.023781  8.679456  4.997847
  S    11.941992 12.394071  4.914520
