16  
    
  C    11.016112  8.199867  2.934791
  C    10.932047 11.536721  2.911779
  C     9.928333  7.425863  2.534338
  C     9.684551 11.085012  2.319811
  N    11.891293  8.492340  1.983805
  N    11.919097 11.829741  2.040417
  N     9.951128  7.110646  1.247481
  N     9.724992 11.174639  0.988280
  N     9.550439  7.932322  5.078811
  N     9.112650 11.314066  4.830734
  S     8.770866  7.120256  3.772511
  S     8.346419 10.889784  3.410114
  S    11.255173  7.902884  0.613666
  S    11.204625 11.606521  0.549547
  S    10.951977  8.686868  4.595725
  S    10.727447 11.737848  4.624407
