16  
    
  C     6.550693  5.891001  2.108458
  C     6.373230  9.164755  1.956981
  C     5.468634  5.257802  1.424764
  C     5.210743  8.745968  1.252827
  N     7.620760  6.132791  1.361111
  N     7.351853  9.501040  1.137070
  N     5.642743  5.143630  0.103790
  N     5.347976  8.633699 -0.066155
  N     4.838883  5.412187  3.931624
  N     4.475412  8.899829  3.629425
  S     4.127044  5.135886  2.469685
  S     3.794153  8.591146  2.213079
  S     7.186247  5.633518 -0.155064
  S     6.904222  9.177684 -0.377653
  S     6.320379  6.052211  3.819195
  S     6.057874  9.423975  3.650579
