16  
    
  C     6.770598  5.880454  2.378984
  C     7.000807  9.737412  2.341182
  C     5.536937  5.309853  1.864258
  C     5.731836  9.281518  1.761287
  N     7.512813  6.379307  1.389113
  N     7.946902  9.957055  1.444845
  N     5.505111  5.170427  0.533004
  N     5.730256  9.245161  0.443131
  N     5.216037  5.516752  4.406624
  N     5.133937  9.726073  4.180906
  S     4.368781  4.861188  3.048979
  S     4.425783  9.192228  2.833353
  S     6.837878  5.946871 -0.076139
  S     7.263780  9.722120 -0.075344
  S     6.781234  6.065417  4.128980
  S     6.796563  9.903971  4.091475
