16  
    
  C     8.129081  6.341860  2.299168
  C     7.992465 10.168403  2.307617
  C     6.852236  5.988959  1.637074
  C     6.757554  9.687697  1.703759
  N     9.139924  6.568905  1.465010
  N     9.006661 10.282041  1.476495
  N     7.038129  5.713336  0.333106
  N     6.926107  9.405641  0.421896
  N     6.423514  6.262066  4.202017
  N     6.318848  9.882587  4.268481
  S     5.528601  5.838031  2.800040
  S     5.478915  9.444211  2.871631
  S     8.660886  6.188312 -0.063964
  S     8.533998  9.835458  0.011470
  S     7.981658  6.638932  3.988659
  S     7.917766 10.325521  4.009223
