16  
    
  C    11.338627  8.064139  3.347797
  C    11.366753 11.931159  3.265669
  C    10.082857  7.754664  2.634076
  C    10.050437 11.689567  2.753914
  N    12.385728  8.123937  2.557817
  N    12.298163 11.788460  2.336161
  N    10.241117  7.656161  1.324475
  N     9.992290 11.274210  1.472298
  N     9.434965  8.399436  5.106800
  N     9.846446 12.222831  5.266883
  S     8.761030  7.711952  3.744522
  S     8.845342 11.765986  4.054123
  S    11.845508  7.813402  1.029868
  S    11.578980 11.447779  0.950143
  S    11.104733  8.520742  5.008979
  S    11.438986 12.214215  5.027197
