16  
    
  C    11.998607  8.822882  3.402770
  C    11.850030 12.199827  3.264804
  C    10.747067  8.509916  2.712327
  C    10.538799 11.837314  2.736998
  N    13.091728  8.926886  2.680920
  N    12.789158 12.429991  2.348704
  N    10.988229  8.483532  1.413617
  N    10.521690 11.739421  1.400150
  N    10.269749  8.517591  5.215945
  N    10.273327 12.106288  5.342341
  S     9.400338  8.275294  3.802283
  S     9.352165 11.879350  3.977651
  S    12.584382  8.655281  1.115856
  S    12.075154 12.232828  0.885953
  S    11.867783  8.778682  5.110089
  S    11.905953 12.175023  4.961618
