16  
    
  C    12.005495  8.611206  3.408669
  C    11.831599 12.093134  3.188701
  C    10.755756  8.049972  2.906424
  C    10.568854 11.697603  2.655548
  N    12.909510  8.896623  2.473649
  N    12.832915 12.128360  2.290034
  N    10.744734  7.796698  1.610099
  N    10.553690 11.626573  1.314770
  N    10.303477  8.486255  5.432109
  N     9.986147 11.909503  5.173444
  S     9.505928  7.918276  4.097091
  S     9.160485 11.509968  3.688107
  S    12.234344  8.260165  1.051258
  S    12.015689 12.038899  0.792192
  S    11.873887  8.992690  5.109352
  S    11.631534 12.357293  4.891928
