16  
    
  C     6.003720  5.628533  2.135817
  C     6.005965  9.156264  1.588325
  C     4.701052  5.400865  1.525193
  C     4.790171  8.704528  0.919589
  N     7.010099  5.539094  1.281168
  N     6.995976  9.332459  0.728973
  N     4.745169  5.305447  0.199497
  N     4.931712  8.457825 -0.381666
  N     4.349574  5.821382  4.064089
  N     4.243591  9.097761  3.410573
  S     3.484514  5.737020  2.688518
  S     3.427606  8.738880  2.064940
  S     6.371039  5.326553 -0.223127
  S     6.517339  8.839076 -0.783598
  S     6.004323  5.869496  3.844668
  S     5.846210  9.488077  3.281262
