16  
    
  C     9.264581  6.734396  2.427331
  C     9.596172 10.601037  2.772185
  C     8.074426  6.272071  1.720897
  C     8.331263 10.221081  2.207399
  N    10.344707  6.883554  1.664529
  N    10.591492 10.583803  1.923842
  N     8.253095  6.215176  0.389270
  N     8.357250  9.981721  0.881505
  N     7.450497  6.413636  4.252098
  N     7.880619 10.577824  4.743897
  S     6.664504  6.052898  2.837577
  S     7.000992 10.273452  3.402470
  S     9.827632  6.608136  0.106776
  S     9.925193 10.257485  0.430913
  S     9.054405  6.744153  4.125484
  S     9.478358 10.926931  4.506102
