16  
    
  C    11.387293  8.540242  3.367516
  C    11.496185 12.421623  3.319674
  C    10.258932  7.922112  2.778657
  C    10.337717 11.749102  2.724996
  N    12.390545  8.698431  2.527515
  N    12.548897 12.615777  2.506265
  N    10.341954  7.641424  1.509914
  N    10.530379 11.396780  1.469150
  N     9.491380  8.546505  5.191089
  N     9.589566 12.236700  5.073921
  S     8.933110  7.703749  3.873660
  S     8.929283 11.575699  3.722042
  S    11.906303  8.113747  1.041067
  S    12.020128 11.949341  0.986226
  S    11.069096  9.174269  4.986138
  S    11.159069 12.704876  5.035741
