16  
    
  C     7.835552  6.415884  2.146849
  C     8.042506 10.564350  2.174387
  C     6.649579  5.850146  1.510976
  C     6.906404  9.922578  1.540347
  N     8.840973  6.614595  1.322602
  N     9.078578 10.806137  1.389251
  N     6.715652  5.821558  0.194941
  N     7.091371  9.705251  0.252557
  N     6.157616  5.795591  4.019540
  N     6.383309 10.176679  4.080916
  S     5.327506  5.536494  2.587503
  S     5.611322  9.671241  2.696909
  S     8.307642  6.274652 -0.188066
  S     8.625471 10.218260 -0.143213
  S     7.766883  6.370678  3.875956
  S     7.885347 10.888692  3.889415
