16  
    
  C    11.766310  8.608522  3.198247
  C    11.340840 12.135977  3.381473
  C    10.535384  8.220408  2.618671
  C    10.204931 11.571196  2.645001
  N    12.733833  8.775876  2.319472
  N    12.310935 12.578394  2.599429
  N    10.517816  8.213740  1.298620
  N    10.366194 11.504645  1.327451
  N    10.214894  8.064580  5.117361
  N     9.556726 11.650487  5.226958
  S     9.336056  7.745995  3.775996
  S     8.877130 11.290402  3.714656
  S    12.067336  8.632597  0.808509
  S    11.937848 12.145230  1.063992
  S    11.747150  8.634955  4.905394
  S    11.126339 12.289750  5.143824
