16  
    
  C    12.419393  9.055550  3.509756
  C    12.505575 12.625541  3.416315
  C    11.149174  8.708322  2.956526
  C    11.266911 12.094687  2.869080
  N    13.392665  9.015376  2.613737
  N    13.481229 12.835453  2.509649
  N    11.209318  8.313623  1.712361
  N    11.278222 11.925421  1.553546
  N    10.668579  9.218899  5.474385
  N    10.718299 12.524725  5.273199
  S     9.859688  8.660154  4.151593
  S     9.966838 12.010751  3.906268
  S    12.747479  8.471611  1.206684
  S    12.811479 12.367904  1.061851
  S    12.291723  9.480902  5.166879
  S    12.221335 13.132305  5.104534
