16  
    
  C    10.448529  7.235558  2.817479
  C    10.270796 11.133498  2.756957
  C     9.213267  7.397377  2.153945
  C     9.032573 10.801394  2.148430
  N    11.461388  7.113703  1.973437
  N    11.314146 11.100068  1.900299
  N     9.285048  7.421330  0.830173
  N     9.012618 10.718614  0.795349
  N     8.765692  7.323292  4.701455
  N     8.510409 11.033035  4.640052
  S     7.913113  7.602037  3.316502
  S     7.681253 10.666958  3.256018
  S    10.881141  7.146035  0.468982
  S    10.638049 10.899846  0.419900
  S    10.451199  7.224793  4.534147
  S    10.148172 11.341389  4.493170
