16  
    
  C     5.994189  5.577622  2.155649
  C     5.957676  9.184058  1.554122
  C     4.722093  5.463109  1.530559
  C     4.774845  8.709094  0.931968
  N     6.974191  5.545763  1.283894
  N     6.979595  9.281475  0.726185
  N     4.748290  5.325372  0.204302
  N     4.922471  8.475106 -0.371407
  N     4.281662  5.811286  4.066676
  N     4.267128  9.065328  3.445523
  S     3.427392  5.740829  2.688240
  S     3.412882  8.762667  2.036040
  S     6.352114  5.313083 -0.227117
  S     6.543596  8.839158 -0.767473
  S     6.013775  5.870058  3.879773
  S     5.824897  9.501015  3.273560
