16  
    
  C    10.966183  7.741341  3.111879
  C    11.091571 11.694609  2.727635
  C     9.669754  7.359263  2.545255
  C     9.886430 11.156829  2.173243
  N    11.921653  7.949129  2.215221
  N    12.068180 11.940043  1.833908
  N     9.715474  7.269325  1.204986
  N     9.933339 10.926046  0.847941
  N     9.352887  7.602348  5.075070
  N     9.433124 11.362915  4.710491
  S     8.492405  7.132918  3.738137
  S     8.558040 11.014302  3.354492
  S    11.210033  7.772833  0.709279
  S    11.482917 11.363975  0.415961
  S    10.937885  7.843528  4.860183
  S    10.923747 12.005975  4.447926
