16  
    
  C    12.752974  8.975676  3.804502
  C    12.574993 12.796995  3.983015
  C    11.561462  8.407832  3.226721
  C    11.508036 12.157223  3.258282
  N    13.728567  9.230515  2.922252
  N    13.640865 13.066877  3.222983
  N    11.625802  8.191169  1.925901
  N    11.707727 12.084510  1.941808
  N    10.985818  8.581288  5.756087
  N    10.647847 12.294217  5.639080
  S    10.223973  8.119805  4.297062
  S    10.037893 11.876714  4.145057
  S    13.083182  8.798792  1.445770
  S    13.233618 12.511457  1.660561
  S    12.591798  9.034956  5.659125
  S    12.297164 12.840403  5.692483
