16  
    
  C     8.936884  7.175447  2.679995
  C     8.901506 11.081973  2.368197
  C     7.807905  6.372954  2.264069
  C     7.788331 10.530996  1.682923
  N     9.878817  7.320858  1.749422
  N     9.913661 11.401625  1.556168
  N     7.729432  6.121259  0.965275
  N     7.803167 10.510155  0.377400
  N     7.368735  6.849741  4.751677
  N     7.099807 10.691649  4.166144
  S     6.515996  6.318788  3.387781
  S     6.518904 10.025269  2.759786
  S     9.135458  6.735322  0.304160
  S     9.242855 11.143054 -0.033799
  S     8.760025  7.665879  4.410845
  S     8.721298 11.163212  4.084861
