16  
    
  C     8.555596  6.649440  2.363721
  C     8.348948 10.242137  2.525304
  C     7.283022  6.191491  1.775726
  C     7.199729  9.655576  1.795023
  N     9.528765  6.893060  1.508283
  N     9.431799 10.484424  1.807428
  N     7.387015  6.029719  0.463283
  N     7.456548  9.425930  0.502039
  N     7.008554  6.287067  4.316091
  N     6.434773 10.109872  4.245087
  S     6.040536  5.870089  2.973809
  S     5.794246  9.485882  2.835793
  S     8.868422  6.530918 -0.038320
  S     8.984058 10.076954  0.213215
  S     8.577452  6.794557  4.099500
  S     8.057173 10.570802  4.187962
