16  
    
  C    12.503161  9.151145  3.453049
  C    12.340151 12.810415  3.498201
  C    11.385231  8.546434  2.708397
  C    11.122324 12.147777  3.022875
  N    13.490849  9.425229  2.606306
  N    13.265339 13.081133  2.568080
  N    11.462146  8.415987  1.363704
  N    11.218366 11.867953  1.730589
  N    10.643753  8.439769  5.215528
  N    10.716303 12.370828  5.543774
  S    10.000522  8.223405  3.640333
  S     9.883287 11.880200  4.135742
  S    13.075459  8.928309  1.062801
  S    12.560916 12.607089  1.138498
  S    12.288167  9.089641  5.181498
  S    12.149940 13.108650  5.249505
