16  
    
  C     5.835423  5.010933  1.857234
  C     5.803854  9.324403  1.989123
  C     4.698367  4.475875  1.120269
  C     4.588810  8.679471  1.421173
  N     6.947225  5.150504  1.137471
  N     6.756386  9.563498  1.089774
  N     4.937266  4.402814 -0.193246
  N     4.736356  8.390069  0.129493
  N     3.952931  4.795794  3.509684
  N     4.091308  8.840389  3.921161
  S     3.286853  4.277986  2.102288
  S     3.330524  8.272180  2.593035
  S     6.534943  4.720311 -0.371336
  S     6.185767  8.956250 -0.352108
  S     5.512065  5.181959  3.504439
  S     5.616559  9.572813  3.728607
