16  
    
  C     5.782101  5.118585  1.957319
  C     5.652921  9.207620  2.024060
  C     4.605770  4.533461  1.307445
  C     4.535185  8.437993  1.462412
  N     6.739290  5.446882  1.106236
  N     6.563029  9.544954  1.127005
  N     4.754728  4.279490  0.023355
  N     4.595704  8.294151  0.148746
  N     3.965761  4.744341  3.738638
  N     4.152261  8.748484  3.965483
  S     3.267361  4.293837  2.341725
  S     3.256796  8.175183  2.636663
  S     6.260631  4.788272 -0.359251
  S     6.075358  9.030130 -0.361827
  S     5.455844  5.452709  3.601675
  S     5.622423  9.375675  3.732204
