16  
    
  C    12.412789  9.085676  3.483746
  C    12.505775 12.601348  3.422121
  C    11.154474  8.729329  2.956923
  C    11.283044 12.120152  2.863684
  N    13.408974  9.012921  2.597967
  N    13.474473 12.847663  2.518378
  N    11.212543  8.329690  1.715112
  N    11.274877 11.929074  1.560056
  N    10.675638  9.224460  5.425401
  N    10.721757 12.512591  5.277398
  S     9.868304  8.660206  4.143797
  S     9.973813 12.007812  3.902664
  S    12.729663  8.473272  1.186893
  S    12.806376 12.342858  1.056313
  S    12.298743  9.489472  5.175527
  S    12.187892 13.141678  5.092595
