16  
    
  C     4.552878  5.077648  1.710556
  C     4.211195  8.740447  1.550746
  C     3.300312  4.766332  1.086552
  C     3.043379  8.110557  0.891408
  N     5.579064  5.300838  0.861941
  N     5.259707  8.856948  0.736426
  N     3.401570  4.483962 -0.202347
  N     3.176268  8.018299 -0.438647
  N     2.639413  5.156676  3.511739
  N     2.480247  8.341325  3.352971
  S     1.971139  4.662898  2.070727
  S     1.758904  7.818853  1.991775
  S     5.009036  4.722165 -0.640459
  S     4.732791  8.407626 -0.781146
  S     4.303786  5.335067  3.439368
  S     4.087269  8.816660  3.245813
