16  
    
  C     6.865956  6.048239  2.348510
  C     7.259669  9.662261  2.085451
  C     5.802913  5.428379  1.606411
  C     6.023198  9.342252  1.452355
  N     7.846833  6.562496  1.607555
  N     8.280476  9.816817  1.267254
  N     5.973829  5.335937  0.289457
  N     6.091694  9.302777  0.127697
  N     4.905222  5.531972  4.062215
  N     5.450336  9.790304  3.961112
  S     4.449868  4.872006  2.610260
  S     4.643459  9.350056  2.619667
  S     7.438933  6.079171  0.054617
  S     7.701015  9.491174 -0.259998
  S     6.499678  6.136898  4.020092
  S     7.198846  9.768399  3.819338
