16  
    
  C     5.377038  5.423211  1.774979
  C     5.166648  8.854181  1.762858
  C     4.149001  5.221533  0.984427
  C     3.925356  8.495015  1.110031
  N     6.470136  5.567182  1.045300
  N     6.166789  9.086269  0.927379
  N     4.355093  5.112355 -0.318784
  N     3.988546  8.527723 -0.196992
  N     3.419680  5.318637  3.451849
  N     3.430785  8.440881  3.590327
  S     2.714084  5.186815  1.972283
  S     2.617465  8.309898  2.162356
  S     6.008621  5.260618 -0.558528
  S     5.529925  9.008979 -0.587288
  S     5.093130  5.743977  3.472636
  S     4.988856  8.899058  3.449701
