16  
    
  C    12.493837  9.145446  3.450188
  C    12.339405 12.821269  3.484086
  C    11.378314  8.551938  2.706594
  C    11.127866 12.132865  3.023426
  N    13.487344  9.427921  2.609566
  N    13.270592 13.076557  2.552194
  N    11.468191  8.426090  1.373539
  N    11.203449 11.878002  1.731490
  N    10.632804  8.431902  5.207633
  N    10.716504 12.387927  5.544179
  S     9.997355  8.216389  3.627625
  S     9.879202 11.873563  4.139812
  S    13.073599  8.937324  1.057992
  S    12.567710 12.602874  1.129433
  S    12.286210  9.097828  5.184687
  S    12.158210 13.104306  5.250757
