16  
    
  C     9.676664  7.395149  2.836740
  C     9.726883 10.986205  2.850307
  C     8.532336  6.876067  2.104692
  C     8.487283 10.545965  2.171547
  N    10.764204  7.724621  2.136416
  N    10.733143 11.265910  2.054285
  N     8.762474  6.897134  0.802646
  N     8.663816 10.480171  0.863381
  N     7.851617  6.862441  4.572374
  N     7.914262 10.762549  4.701952
  S     7.166959  6.535697  3.138596
  S     7.229165 10.213973  3.290038
  S    10.322369  7.402847  0.559604
  S    10.184611 10.927452  0.474165
  S     9.362231  7.561321  4.547250
  S     9.524381 11.161558  4.589013
