16  
    
  C     7.798379  6.413051  2.360654
  C     7.897762 10.515327  2.018556
  C     6.681859  5.971313  1.584618
  C     6.683912  9.899514  1.552851
  N     8.927016  6.641404  1.669202
  N     8.850345 10.668918  1.132425
  N     6.968793  5.826252  0.269583
  N     6.759667  9.486226  0.267757
  N     5.913519  6.354622  4.091339
  N     6.467317 10.291706  4.104324
  S     5.267414  5.850468  2.627168
  S     5.492377  9.842624  2.851922
  S     8.507811  6.323942  0.102613
  S     8.277964 10.049153 -0.259008
  S     7.498519  6.641588  4.045787
  S     8.034816 10.701959  3.725196
