16  
    
  C     8.071789  6.317942  2.273828
  C     7.967500 10.164583  2.271333
  C     6.860552  5.974047  1.633289
  C     6.764561  9.744437  1.679608
  N     9.118169  6.554753  1.488644
  N     9.037242 10.233896  1.463687
  N     6.987536  5.713006  0.316643
  N     6.873212  9.457111  0.396164
  N     6.382774  6.220572  4.194815
  N     6.331408  9.875050  4.256179
  S     5.533993  5.806739  2.786328
  S     5.495404  9.463884  2.847130
  S     8.617915  6.214533 -0.050119
  S     8.521859  9.850405 -0.030289
  S     7.983532  6.584435  3.974597
  S     7.902142 10.349138  3.997566
