16  
    
  C    10.729831  8.445821  3.196332
  C    10.696867 11.944692  3.202289
  C     9.584500  7.822372  2.654253
  C     9.530530 11.425715  2.517591
  N    11.736387  8.622302  2.345318
  N    11.789263 11.989632  2.433292
  N     9.704966  7.525287  1.361019
  N     9.727682 11.302158  1.183806
  N     8.940181  8.211480  5.096070
  N     8.890829 11.743751  5.003865
  S     8.283769  7.504149  3.729443
  S     8.194483 11.090529  3.596662
  S    11.221979  7.984035  0.926404
  S    11.287587 11.564645  0.894052
  S    10.571494  8.767059  4.923666
  S    10.529340 12.043011  4.944925
