16  
    
  C    11.743072  8.767006  3.513055
  C    11.546019 12.054253  3.321019
  C    10.551900  8.432800  2.821396
  C    10.402197 11.593261  2.488732
  N    12.837903  8.770909  2.740245
  N    12.629933 12.246792  2.618414
  N    10.728849  8.133596  1.520463
  N    10.630140 11.565874  1.170417
  N     9.950606  8.550288  5.355264
  N     9.702065 11.879405  4.998912
  S     9.191133  8.212407  3.908324
  S     8.985267 11.577437  3.502820
  S    12.371376  8.440688  1.186307
  S    12.309098 11.891544  1.057131
  S    11.579975  8.939956  5.248989
  S    11.338730 12.127766  5.033805
