16  
    
  C    12.761521  8.844712  3.850480
  C    12.596640 12.733890  3.836007
  C    11.505323  8.402932  3.246391
  C    11.483744 12.156065  3.111841
  N    13.733862  9.246499  2.989640
  N    13.733582 12.881118  3.140196
  N    11.575159  8.379424  1.908404
  N    11.744007 12.094694  1.808936
  N    11.131747  8.547927  5.756373
  N    10.789661 12.371738  5.612099
  S    10.228644  8.058864  4.455006
  S    10.153908 11.836738  4.175408
  S    13.087133  8.956677  1.530290
  S    13.306835 12.523910  1.551021
  S    12.624079  9.156852  5.513454
  S    12.467897 12.659331  5.578173
