16  
    
  C    10.939777  7.874833  3.122185
  C    11.528328 11.882568  3.057212
  C     9.790772  7.492178  2.425173
  C    10.375688 11.267894  2.391315
  N    12.007143  8.007162  2.325313
  N    12.580763 12.042766  2.249845
  N     9.948405  7.380073  1.113200
  N    10.630379 10.841596  1.147414
  N     9.026566  7.912550  4.876078
  N     9.739080 11.550531  4.911836
  S     8.376000  7.324780  3.467905
  S     9.138360 10.921015  3.500423
  S    11.552660  7.577283  0.825492
  S    12.103101 11.460786  0.792489
  S    10.748910  8.164351  4.812262
  S    11.296025 12.203252  4.814792
