16  
    
  C     9.558312  7.529545  2.594771
  C    10.226256 11.395254  2.515436
  C     8.484638  6.751708  2.033171
  C     9.003322 10.977143  1.936163
  N    10.492474  7.814706  1.727785
  N    11.206035 11.519510  1.635246
  N     8.695565  6.321746  0.778871
  N     9.044650 10.689644  0.634269
  N     7.824306  7.507152  4.477913
  N     8.557320 11.127844  4.519707
  S     7.203379  6.542513  3.243028
  S     7.718389 10.726528  3.165140
  S    10.155635  7.012423  0.320631
  S    10.615828 11.050223  0.210501
  S     9.448229  7.914554  4.261643
  S    10.143964 11.588893  4.266328
