16  
    
  C    12.378947  9.112672  3.348337
  C    12.278935 12.799345  3.406312
  C    11.163922  8.650231  2.796615
  C    11.178487 12.126836  2.815866
  N    13.322290  9.217206  2.434119
  N    13.340393 12.961839  2.629259
  N    11.251391  8.294868  1.492003
  N    11.350032 11.782127  1.548977
  N    10.784576  8.964251  5.386359
  N    10.335874 12.661643  5.180144
  S     9.889154  8.574565  4.021325
  S     9.678537 12.102796  3.727776
  S    12.730097  8.777686  0.959058
  S    12.918559 12.227096  1.180246
  S    12.399500  9.576524  5.010090
  S    11.921583 13.045321  5.149299
