16  
    
  C     9.297495  6.983592  2.509662
  C     8.922332 10.946443  2.305689
  C     8.049163  6.494253  2.022846
  C     7.740281 10.406151  1.745455
  N    10.213507  7.143060  1.555933
  N     9.906627 11.176332  1.419828
  N     8.011710  6.290476  0.727142
  N     7.844874 10.133811  0.441242
  N     7.510862  6.950496  4.436835
  N     7.225575 10.523428  4.236991
  S     6.739083  6.333485  3.110836
  S     6.415996 10.130689  2.822080
  S     9.479250  6.711307  0.131861
  S     9.379333 10.616060 -0.002116
  S     9.166393  7.376270  4.255163
  S     8.665657 11.294906  4.044241
