16  
    
  C     7.803775  6.664785  2.400171
  C     7.980315 10.345758  2.037010
  C     6.685727  6.103509  1.723324
  C     6.733563  9.880385  1.565067
  N     8.927780  6.682268  1.689467
  N     8.869574 10.480242  1.030930
  N     6.880074  5.912004  0.420430
  N     6.624028  9.604000  0.273799
  N     5.903396  6.314315  4.136853
  N     6.297816 10.375133  4.034736
  S     5.183920  5.963945  2.587356
  S     5.427064  9.872677  2.708946
  S     8.513215  6.184320  0.146281
  S     8.209257  9.923505 -0.334411
  S     7.467417  6.808845  4.128755
  S     7.922215 10.614512  3.780574
