16  
    
  C    10.506877  7.265841  2.810280
  C    10.236974 11.033669  2.784265
  C     9.228803  7.482919  2.166839
  C     8.987224 10.869898  2.172892
  N    11.560748  7.047349  2.011355
  N    11.284594 11.153969  1.970276
  N     9.264405  7.475581  0.859801
  N     9.058329 10.715084  0.860956
  N     8.701525  7.397162  4.712904
  N     8.479162 11.040465  4.670279
  S     7.886520  7.403006  3.249067
  S     7.719350 10.633463  3.255428
  S    10.846935  7.126446  0.452856
  S    10.632321 10.894043  0.411999
  S    10.334676  7.220444  4.555239
  S    10.138968 11.199401  4.524163
