16  
    
  C    12.710788  9.190287  3.362246
  C    12.653813 12.961484  3.484270
  C    11.493167  8.767756  2.776020
  C    11.562998 12.343756  2.784222
  N    13.741122  9.246477  2.536025
  N    13.767499 13.103425  2.758563
  N    11.555463  8.604962  1.438385
  N    11.820018 12.159593  1.479681
  N    11.123659  8.898291  5.300124
  N    10.821072 12.525576  5.287168
  S    10.164973  8.515989  4.002077
  S    10.127734 12.023330  3.812909
  S    13.211969  8.757602  1.006473
  S    13.405466 12.686798  1.239496
  S    12.613083  9.494868  5.030099
  S    12.357559 13.241902  5.217523
