16  
    
  C     9.383945  6.650815  2.411181
  C     9.413543 10.543034  2.813842
  C     8.161314  6.332016  1.723908
  C     8.139976 10.427674  2.130423
  N    10.427716  6.776546  1.588608
  N    10.443064 10.333012  2.041399
  N     8.291835  6.044283  0.446100
  N     8.217217 10.013137  0.863510
  N     7.378165  6.677900  4.112197
  N     7.562165 11.017904  4.592447
  S     6.695173  6.204535  2.642017
  S     6.771384 10.652977  3.167976
  S     9.897444  6.383455  0.037792
  S     9.908695  9.950861  0.526744
  S     8.993785  6.917207  4.121608
  S     9.216838 10.927753  4.496019
