16  
    
  C     9.250999  6.932827  2.764950
  C     9.689812 10.864090  2.692971
  C     8.087483  6.407406  2.106626
  C     8.561965 10.204339  2.092172
  N    10.230142  7.240353  1.905977
  N    10.601881 11.299024  1.828796
  N     8.146941  6.310966  0.769041
  N     8.648203 10.046793  0.760250
  N     7.457487  6.336337  4.574759
  N     8.163084 10.062523  4.647363
  S     6.707667  6.090212  3.135123
  S     7.384133  9.614728  3.240991
  S     9.656193  6.919294  0.358408
  S    10.087534 10.848053  0.325469
  S     8.987082  6.949062  4.486088
  S     9.537374 10.937065  4.442403
