16  
    
  C     4.514645  5.002654  1.719614
  C     4.103214  8.776612  1.653684
  C     3.247103  4.776591  1.106924
  C     3.038951  8.211345  0.806904
  N     5.523197  5.095573  0.888217
  N     5.204843  9.135799  1.002335
  N     3.275540  4.586758 -0.184706
  N     3.311833  8.308696 -0.478576
  N     2.720058  4.916474  3.560175
  N     2.185559  8.108881  3.207159
  S     1.902118  4.703630  2.125118
  S     1.641706  7.695909  1.677818
  S     4.859592  4.804001 -0.645568
  S     4.818233  8.913893 -0.625663
  S     4.369036  5.308664  3.432684
  S     3.877350  8.474709  3.317076
