16  
    
  C     4.336044  5.013149  1.287536
  C     4.425184  8.299111  1.336524
  C     3.092592  4.662131  0.645175
  C     3.145981  8.000426  0.649427
  N     5.348759  4.925551  0.429747
  N     5.448512  8.430386  0.505850
  N     3.099462  4.538113 -0.668404
  N     3.258276  7.723675 -0.640984
  N     2.526443  4.818145  3.104702
  N     2.685368  8.171523  3.142376
  S     1.731797  4.594410  1.661355
  S     1.897065  7.737751  1.761202
  S     4.679235  4.800129 -1.145080
  S     4.832439  8.082278 -1.013470
  S     4.134469  5.143754  3.031968
  S     4.249368  8.587172  2.973475
