16  
    
  C    12.408293  9.203723  3.380615
  C    12.208112 12.672653  3.497599
  C    11.216775  8.635410  2.811611
  C    11.114304 12.120918  2.790605
  N    13.357675  9.308814  2.467372
  N    13.299317 12.808387  2.723898
  N    11.177571  8.417628  1.523722
  N    11.304570 11.778473  1.512598
  N    10.655101  8.923996  5.255241
  N    10.236039 12.580743  5.231947
  S     9.892234  8.434307  3.918647
  S     9.633736 12.067506  3.696402
  S    12.743420  8.727914  1.044393
  S    12.817485 12.345137  1.159389
  S    12.212510  9.453280  5.108488
  S    11.846853 12.977936  5.223898
