16  
    
  C    12.004652  8.742272  3.404802
  C    11.903982 12.143009  3.241305
  C    10.764874  8.560804  2.705663
  C    10.641498 11.752005  2.743527
  N    13.094846  8.829628  2.605437
  N    12.802809 12.405818  2.313231
  N    10.840375  8.383450  1.372439
  N    10.552580 11.816856  1.435711
  N    10.200800  8.462437  5.259123
  N    10.297089 12.099267  5.308499
  S     9.421354  8.261229  3.799148
  S     9.310440 11.837223  3.888940
  S    12.493543  8.655201  1.033252
  S    12.017510 12.144539  0.831161
  S    11.907525  8.750632  5.122008
  S    11.937938 12.180629  4.994120
