16  
    
  C    11.047934  8.202380  2.957776
  C    10.928301 11.513969  2.885747
  C     9.907081  7.402028  2.535261
  C     9.675096 11.176514  2.309431
  N    11.881103  8.508123  1.975226
  N    11.895047 11.811934  2.045762
  N     9.892140  7.141191  1.231147
  N     9.732401 11.112885  1.007768
  N     9.555315  7.900103  5.086219
  N     9.135949 11.395984  4.735566
  S     8.748432  7.081586  3.812157
  S     8.348679 10.865639  3.391437
  S    11.232355  7.854146  0.632075
  S    11.202724 11.599695  0.504002
  S    10.961739  8.643164  4.588178
  S    10.744231 11.698750  4.598198
