16  
    
  C     6.697080  5.651846  1.934671
  C     6.680342  9.581977  1.929789
  C     5.333536  5.503390  1.352423
  C     5.388171  9.138055  1.405465
  N     7.631764  5.834517  1.002055
  N     7.630519  9.682439  1.008637
  N     5.353157  5.312065  0.029586
  N     5.358750  9.013725  0.077769
  N     4.984751  5.873436  3.876365
  N     4.996656  9.284178  3.953175
  S     4.026346  5.431770  2.510307
  S     4.142766  8.976080  2.520278
  S     6.912921  5.530064 -0.482108
  S     6.893675  9.249166 -0.395133
  S     6.635541  5.982247  3.673589
  S     6.589439  9.769285  3.650282
