16  
    
  C     9.013930  7.132046  2.637350
  C     8.839907 11.117114  2.349067
  C     7.766232  6.474228  2.163048
  C     7.710618 10.446892  1.712091
  N     9.946335  7.397373  1.729434
  N     9.785137 11.541562  1.519974
  N     7.831701  6.134116  0.888758
  N     7.844029 10.378875  0.353371
  N     7.468051  6.900728  4.665832
  N     7.115058 10.770130  4.217501
  S     6.571403  6.311708  3.406377
  S     6.423785 10.040209  2.874453
  S     9.329965  6.673318  0.335121
  S     9.302867 10.992816 -0.002577
  S     8.978236  7.569495  4.290695
  S     8.737791 11.187786  4.079108
