16  
    
  C     8.333197  6.696193  2.379438
  C     8.388711 10.313308  2.305379
  C     7.168875  6.165913  1.780280
  C     7.150929  9.923151  1.768478
  N     9.384735  6.782672  1.557456
  N     9.390335 10.208243  1.450991
  N     7.248874  6.122191  0.449593
  N     7.198708  9.658309  0.445103
  N     6.735043  6.208439  4.294547
  N     6.779311 10.149340  4.312846
  S     5.821194  5.900214  2.933690
  S     5.916435  9.631878  2.987956
  S     8.856585  6.547734  0.055247
  S     8.803556  9.852307 -0.002683
  S     8.319386  6.777764  4.132691
  S     8.352344 10.532620  4.055702
