16  
    
  C     5.179335  5.061494  2.063127
  C     5.194599  8.617280  1.904154
  C     3.906474  4.963599  1.382436
  C     4.005253  8.346068  1.112746
  N     6.229103  5.049350  1.249002
  N     6.349986  8.520796  1.246451
  N     4.024171  4.678164  0.088340
  N     4.195085  8.249963 -0.204843
  N     3.330175  5.272832  3.841754
  N     3.193796  8.859461  3.450727
  S     2.468642  4.989740  2.413493
  S     2.547649  8.437399  2.009295
  S     5.618878  4.894070 -0.292636
  S     5.884451  8.309909 -0.337560
  S     4.967922  5.349889  3.770771
  S     4.828404  8.762101  3.557718
