16  
    
  C     5.125532  5.362898  1.967498
  C     5.116847  8.674927  1.551354
  C     3.883206  5.023693  1.371248
  C     3.822227  8.425708  0.914551
  N     6.180301  5.145800  1.179655
  N     6.151856  8.676393  0.724249
  N     3.936037  4.561826  0.144263
  N     3.948745  8.166616 -0.383894
  N     3.298316  5.731011  3.772210
  N     3.349540  8.624328  3.433003
  S     2.485031  5.171145  2.379050
  S     2.499812  8.363861  2.009110
  S     5.529191  4.651054 -0.308385
  S     5.562198  8.350579 -0.760000
  S     4.936450  5.720002  3.680067
  S     5.003574  8.911313  3.248407
