16  
    
  C     3.563223  4.392613  1.518084
  C     3.545300  8.517954  1.302602
  C     2.381787  3.785642  0.886124
  C     2.345135  7.955331  0.694002
  N     4.494403  4.859659  0.696562
  N     4.531358  8.687936  0.415232
  N     2.578524  3.557795 -0.430716
  N     2.362568  7.921562 -0.641834
  N     2.005651  3.866911  3.516081
  N     1.912401  8.200939  3.264178
  S     1.164704  3.449707  2.091444
  S     1.100124  7.753821  1.855649
  S     4.089445  4.300137 -0.775380
  S     3.912617  8.402958 -1.082782
  S     3.462409  4.621126  3.222597
  S     3.500584  8.594432  3.042542
