16  
    
  C     6.782037  5.931855  1.478362
  C     7.239689  9.984918  2.490292
  C     5.692379  5.101267  0.986312
  C     5.962459  9.531587  1.910951
  N     7.884403  5.944790  0.723208
  N     8.253016 10.039366  1.616629
  N     5.860666  4.707040 -0.278254
  N     6.073484  9.188567  0.609095
  N     5.096574  5.808984  3.442857
  N     5.682902  9.731655  4.527777
  S     4.398331  4.926668  2.183504
  S     4.686976  9.502704  3.146591
  S     7.434376  5.160894 -0.669952
  S     7.587874  9.475473  0.146875
  S     6.570703  6.334617  3.096763
  S     7.212463 10.298614  4.137137
