16  
    
  C     9.452416  7.026597  2.998353
  C     9.599113 10.839668  2.643147
  C     8.323403  6.503258  2.254225
  C     8.357582 10.388725  1.998638
  N    10.435848  7.549434  2.254994
  N    10.553497 11.113959  1.763659
  N     8.505739  6.501589  0.926088
  N     8.393190 10.332627  0.656823
  N     7.696290  6.410555  4.792853
  N     7.952799 10.379842  4.537744
  S     6.998440  6.011295  3.320457
  S     7.095140 10.051587  3.113810
  S     9.993202  7.216055  0.699611
  S     9.943253 10.810892  0.263239
  S     9.296719  6.994540  4.644338
  S     9.520113 10.902782  4.336960
