16  
    
  C     6.728783  5.788380  2.118903
  C     6.721770  9.742759  2.197897
  C     5.446410  5.630547  1.547922
  C     5.476221  9.264792  1.723702
  N     7.699155  5.900226  1.221877
  N     7.653344  9.832829  1.257427
  N     5.423436  5.365387  0.238678
  N     5.418722  9.033318  0.416715
  N     5.018380  5.581663  4.070186
  N     5.168138  9.277335  4.230329
  S     4.214802  5.308574  2.684872
  S     4.203818  9.103558  2.840067
  S     6.967670  5.618325 -0.246673
  S     6.945517  9.413547 -0.153480
  S     6.655624  5.970971  3.822364
  S     6.720693  9.856999  4.010208
