16  
    
  C     6.669822  5.881025  2.174403
  C     6.740265  9.790165  2.283760
  C     5.401960  5.494552  1.593648
  C     5.471081  9.340600  1.706627
  N     7.648750  5.931690  1.274897
  N     7.694502  9.902626  1.378423
  N     5.403515  5.377482  0.265648
  N     5.484918  9.066002  0.399837
  N     5.131807  5.556209  4.170630
  N     5.112571  9.320049  4.311855
  S     4.219758  5.252471  2.786335
  S     4.271494  9.117876  2.925280
  S     6.976997  5.662824 -0.210596
  S     6.988150  9.464099 -0.127178
  S     6.671385  5.978755  3.910774
  S     6.714565  9.874043  4.002475
