16  
    
  C    12.775953  9.126436  3.417124
  C    12.808626 12.697458  3.470056
  C    11.498583  8.604808  2.913409
  C    11.626269 12.177964  2.794549
  N    13.735385  9.119779  2.509885
  N    13.810464 13.065255  2.634324
  N    11.474404  8.423665  1.630410
  N    11.787700 12.103251  1.477688
  N    11.128899  8.977444  5.398736
  N    10.878800 12.415646  5.252463
  S    10.265506  8.423058  4.017103
  S    10.222496 12.010418  3.764901
  S    12.995063  8.836475  1.020861
  S    13.317001 12.644409  1.139326
  S    12.704252  9.436836  5.127647
  S    12.434040 13.082347  5.167654
