16  
    
  C    12.674797  9.111248  3.550652
  C    12.753882 12.778336  3.409099
  C    11.492028  8.446696  3.010053
  C    11.548214 12.290459  2.795212
  N    13.565265  9.406401  2.651054
  N    13.797507 12.915736  2.594118
  N    11.516111  8.262096  1.678365
  N    11.649023 12.090676  1.464016
  N    11.171522  9.011996  5.601138
  N    11.073240 12.336020  5.374788
  S    10.338668  8.348633  4.314677
  S    10.309223 11.911823  3.956944
  S    13.004148  8.897312  1.154434
  S    13.275379 12.478311  1.141396
  S    12.762422  9.217098  5.244339
  S    12.665631 12.765219  5.108467
