16  
    
  C     7.371939  5.963407  2.237024
  C     7.775825  9.657598  2.321218
  C     6.162792  5.651842  1.514355
  C     6.546461  9.356668  1.681253
  N     8.427450  6.226918  1.459696
  N     8.796297  9.820689  1.483651
  N     6.288098  5.449738  0.212118
  N     6.589566  9.245727  0.355279
  N     5.474311  5.620550  3.924710
  N     5.985473  9.685722  4.160374
  S     4.829677  5.212623  2.514219
  S     5.170525  9.274217  2.829516
  S     7.876732  5.924475 -0.099017
  S     8.086113  9.631276 -0.080613
  S     7.075120  6.030574  3.902919
  S     7.648193  9.768280  4.027454
