16  
    
  C     5.375035  5.437706  1.735806
  C     5.134965  8.886449  1.723294
  C     4.144145  5.078595  1.082791
  C     3.873189  8.525504  1.058326
  N     6.475918  5.440355  0.996941
  N     6.078004  9.281390  0.864843
  N     4.304561  4.998849 -0.253019
  N     4.032538  8.384269 -0.272054
  N     3.540988  5.398232  3.615424
  N     3.357589  8.648164  3.633876
  S     2.770104  5.238377  2.180163
  S     2.536521  8.336665  2.183836
  S     5.919817  5.284234 -0.539952
  S     5.517679  8.889768 -0.674620
  S     5.224539  5.545323  3.434457
  S     5.021288  8.883823  3.489927
