16  
    
  C    12.342635  9.127188  3.668470
  C    12.535894 12.837552  3.499035
  C    11.219971  8.474244  2.972462
  C    11.253115 12.402284  2.940525
  N    13.314106  9.602465  2.886332
  N    13.503743 13.081535  2.610792
  N    11.420076  8.270054  1.663721
  N    11.332925 12.297575  1.610733
  N    10.626817  8.401151  5.434257
  N    10.863095 12.730395  5.472625
  S     9.947125  7.942768  4.041402
  S    10.029999 12.226198  4.120464
  S    12.854860  9.139252  1.362580
  S    12.874300 12.557997  1.139170
  S    12.071151  9.216456  5.344337
  S    12.463645 12.866665  5.286597
