16  
    
  C     5.823841  5.378220  1.786506
  C     5.918675  8.914749  2.117490
  C     4.525649  5.171573  1.133862
  C     4.680035  8.594436  1.415578
  N     6.825990  5.478519  0.900025
  N     7.010864  8.976670  1.350828
  N     4.639009  4.877781 -0.156495
  N     4.857132  8.552759  0.082567
  N     3.994349  5.445778  3.620709
  N     4.151435  8.737455  4.026571
  S     3.214278  5.005084  2.231944
  S     3.379026  8.531453  2.537425
  S     6.240075  4.987052 -0.568030
  S     6.453241  8.751838 -0.191403
  S     5.748942  5.671215  3.515684
  S     5.790098  9.070503  3.857844
