16  
    
  C    12.709557  8.999201  3.827954
  C    12.797031 12.411569  3.767858
  C    11.475540  8.470059  3.252284
  C    11.534885 12.115330  3.064283
  N    13.714212  9.171338  2.943306
  N    13.773219 12.844132  2.955856
  N    11.523763  8.446212  1.920528
  N    11.664966 12.115465  1.747069
  N    11.172916  8.427708  5.856907
  N    10.946473 12.322498  5.547684
  S    10.284554  8.109906  4.425746
  S    10.165277 11.842129  4.108605
  S    13.040767  8.973990  1.389413
  S    13.269685 12.558068  1.450622
  S    12.662023  9.246130  5.544351
  S    12.566987 12.700109  5.466372
