16  
    
  C    12.230884  9.070244  3.747912
  C    12.592833 12.691331  3.578362
  C    11.092127  8.418406  3.157953
  C    11.352030 12.407383  2.885634
  N    13.319454  9.219023  2.993654
  N    13.615160 12.873658  2.765449
  N    11.328984  8.217827  1.860154
  N    11.430723 12.471594  1.556446
  N    10.558069  8.768861  5.672165
  N    10.901404 12.292212  5.488970
  S     9.877129  8.067367  4.346519
  S    10.049451 12.293560  4.035885
  S    12.843149  8.728399  1.508491
  S    13.036935 12.705758  1.184994
  S    12.224137  9.230499  5.446833
  S    12.404247 12.954480  5.237431
