16  
    
  C    11.780107  8.788393  3.500965
  C    11.528777 12.142793  3.295582
  C    10.534895  8.402579  2.799336
  C    10.419770 11.679634  2.518851
  N    12.850306  8.767682  2.729349
  N    12.673784 12.298441  2.614030
  N    10.716141  8.173713  1.512614
  N    10.712209 11.515240  1.214151
  N     9.998393  8.544792  5.367726
  N     9.684425 11.855543  4.909446
  S     9.207822  8.215015  3.904679
  S     8.986407 11.570601  3.521989
  S    12.339306  8.429858  1.196258
  S    12.279222 11.887264  1.032590
  S    11.582407  8.964001  5.283781
  S    11.279019 12.158697  5.012727
