16  
    
  C     7.153829  6.143573  2.058293
  C     7.410158  9.712157  2.483278
  C     6.083401  5.476111  1.366108
  C     6.147956  9.463958  1.832828
  N     8.284597  6.229293  1.310994
  N     8.459489  9.734207  1.661302
  N     6.251560  5.303343  0.062386
  N     6.221591  9.227322  0.538661
  N     5.161339  5.728032  3.794247
  N     5.477395  9.545103  4.308452
  S     4.720051  5.067138  2.363302
  S     4.780079  9.563797  2.817504
  S     7.836416  5.664787 -0.203009
  S     7.853135  9.359381  0.179494
  S     6.780145  6.280440  3.798376
  S     7.135734  9.987596  4.218336
