16  
    
  C    10.337240  7.625464  2.619036
  C    10.522213 11.359442  2.823193
  C     9.059027  7.301892  1.996483
  C     9.286357 11.344066  2.021412
  N    11.290116  7.624955  1.728325
  N    11.613296 11.253193  2.067527
  N     9.093185  7.129006  0.682874
  N     9.453087 11.132470  0.694741
  N     8.616267  7.740164  4.533505
  N     8.564182 11.289594  4.501506
  S     7.771125  7.183733  3.178987
  S     7.832366 11.447096  3.034968
  S    10.683781  7.222055  0.265754
  S    11.132191 11.117574  0.511758
  S    10.257886  7.975803  4.342649
  S    10.245058 11.640678  4.510419
