16  
    
  C    10.976976  7.735059  3.106670
  C    11.099883 11.716335  2.721111
  C     9.673383  7.369171  2.536338
  C     9.893654 11.132045  2.179096
  N    11.924193  7.924387  2.208484
  N    12.089534 11.947850  1.844302
  N     9.730661  7.282866  1.214479
  N     9.966964 10.945598  0.862693
  N     9.344922  7.617849  5.050652
  N     9.423988 11.396352  4.736438
  S     8.485291  7.135416  3.731633
  S     8.565001 11.005039  3.366597
  S    11.222399  7.774712  0.726450
  S    11.493933 11.356014  0.416638
  S    10.920484  7.815787  4.861093
  S    10.938275 12.009596  4.436182
