16  
    
  C     7.154244  6.141208  2.045762
  C     7.405610  9.739778  2.502695
  C     6.074278  5.476768  1.357592
  C     6.134570  9.453131  1.820862
  N     8.273871  6.225901  1.300514
  N     8.460394  9.727177  1.683915
  N     6.220091  5.259581  0.039715
  N     6.236643  9.208300  0.532246
  N     5.148432  5.747618  3.804069
  N     5.461468  9.581159  4.315929
  S     4.719882  5.048685  2.382188
  S     4.756157  9.577357  2.847213
  S     7.816579  5.659103 -0.227041
  S     7.822881  9.360936  0.172439
  S     6.767602  6.290887  3.752006
  S     7.130632  9.994988  4.208054
