16  
    
  C     5.836482  5.597678  2.169157
  C     5.933889  9.226703  1.695697
  C     4.584379  5.640448  1.492073
  C     4.746798  8.908245  0.982506
  N     6.918629  5.502722  1.375487
  N     7.007762  9.106998  0.923444
  N     4.652723  5.374379  0.182040
  N     4.839487  8.759119 -0.335850
  N     4.117037  5.957067  4.076874
  N     4.019293  9.194396  3.459744
  S     3.294247  5.608558  2.626826
  S     3.346636  8.772742  1.993423
  S     6.276294  5.262470 -0.133608
  S     6.514536  8.729381 -0.633726
  S     5.770322  5.812354  3.906435
  S     5.699346  9.498730  3.404586
