16  
    
  C     6.604742  5.843750  1.928692
  C     6.618714  9.464929  1.873037
  C     5.245932  5.532363  1.419386
  C     5.383392  8.954038  1.241722
  N     7.573506  5.910817  1.012729
  N     7.616857  9.757965  1.036369
  N     5.309796  5.228642  0.137110
  N     5.485115  8.819560 -0.073786
  N     4.963223  5.711430  3.946047
  N     4.960293  9.035777  3.801879
  S     3.959122  5.399406  2.632804
  S     4.075863  8.851938  2.452773
  S     6.868970  5.446476 -0.427508
  S     7.012716  9.276810 -0.472688
  S     6.628262  6.049698  3.666453
  S     6.525635  9.683353  3.549267
