16  
    
  C     8.360917  6.696087  2.484657
  C     8.806091 10.356079  2.836381
  C     7.249038  6.261267  1.734098
  C     7.607479 10.047643  2.130986
  N     9.431214  6.993077  1.765384
  N     9.861568 10.488059  2.028393
  N     7.518428  6.028107  0.449442
  N     7.688482  9.857244  0.826493
  N     6.505434  6.296259  4.241801
  N     7.020751 10.296785  4.646731
  S     5.829429  5.910511  2.774431
  S     6.246764  9.937869  3.232460
  S     9.062450  6.554935  0.206946
  S     9.281042 10.216804  0.416256
  S     8.059162  6.887748  4.190872
  S     8.687306 10.520764  4.556870
