16  
    
  C    11.315286  8.097458  3.291952
  C    11.365562 11.765207  3.315296
  C    10.081593  7.783596  2.666974
  C    10.054718 11.561059  2.769656
  N    12.415280  8.083196  2.506261
  N    12.340181 11.779971  2.413943
  N    10.137358  7.636371  1.349648
  N    10.023878 11.305198  1.475926
  N     9.434780  8.358465  5.101938
  N     9.737771 12.180687  5.298299
  S     8.706635  7.666417  3.764426
  S     8.871052 11.729791  3.919812
  S    11.797587  7.774199  0.963530
  S    11.592484 11.457246  0.908962
  S    11.118419  8.490704  4.979279
  S    11.432030 12.090430  4.997749
