16  
    
  C    12.764901  8.827148  3.852350
  C    12.602898 12.761621  3.846143
  C    11.488078  8.393052  3.251879
  C    11.473847 12.189402  3.111054
  N    13.722144  9.258824  3.004334
  N    13.726096 12.886816  3.141297
  N    11.565682  8.360721  1.916430
  N    11.750676 12.072503  1.820972
  N    11.134359  8.570192  5.746460
  N    10.767155 12.370491  5.614713
  S    10.244977  8.063442  4.441840
  S    10.161681 11.840805  4.188413
  S    13.096052  8.948572  1.529740
  S    13.306171 12.524942  1.567692
  S    12.610878  9.140274  5.523850
  S    12.439701 12.657759  5.589641
