16  
    
  C     5.123539  5.006108  2.094165
  C     5.167664  8.689850  1.721466
  C     3.850520  4.891637  1.383687
  C     3.929539  8.429017  0.971067
  N     6.165876  5.088941  1.279542
  N     6.292329  8.542322  0.995697
  N     3.995449  4.637434  0.070840
  N     4.085586  8.338161 -0.355160
  N     3.300970  5.439032  3.795090
  N     3.249583  8.536912  3.463206
  S     2.492322  5.146097  2.400303
  S     2.509048  8.431694  1.992523
  S     5.629136  4.736090 -0.222995
  S     5.789145  8.291396 -0.581823
  S     4.915048  5.654533  3.708519
  S     4.875860  8.831243  3.449429
