16  
    
  C    11.216422  8.195504  3.184371
  C    11.433524 11.616590  3.289014
  C     9.928344  7.719143  2.619005
  C    10.164425 11.496314  2.660568
  N    12.240055  8.244205  2.344275
  N    12.433181 11.670585  2.438453
  N     9.983604  7.405257  1.318087
  N    10.194705 11.259551  1.359065
  N     9.471440  8.152163  5.162994
  N     9.682105 11.740753  5.156920
  S     8.724367  7.616242  3.776201
  S     8.814759 11.619366  3.752706
  S    11.590370  7.670088  0.886212
  S    11.798930 11.480978  0.876251
  S    11.140761  8.455897  4.910108
  S    11.333797 11.932369  4.977114
