16  
    
  C     7.873638  6.323970  2.155157
  C     8.071339 10.626091  2.199807
  C     6.657318  5.904083  1.499428
  C     6.941822  9.967421  1.540220
  N     8.870251  6.630667  1.289647
  N     9.103214 10.828872  1.385317
  N     6.780154  5.760021  0.166590
  N     7.144293  9.608279  0.257879
  N     6.200957  5.733467  4.071520
  N     6.323546 10.130433  4.076166
  S     5.380474  5.548216  2.584644
  S     5.625696  9.692194  2.637884
  S     8.229814  6.273731 -0.224911
  S     8.588723 10.198596 -0.139991
  S     7.712891  6.346893  3.904968
  S     7.872589 10.823522  3.919126
