16  
    
  C     6.713598  5.804051  2.228186
  C     6.781718  9.738955  2.316771
  C     5.395155  5.430186  1.711903
  C     5.503344  9.262659  1.745192
  N     7.641736  6.116681  1.309830
  N     7.706035  9.972401  1.413812
  N     5.446534  5.316890  0.384478
  N     5.533336  9.198642  0.410100
  N     5.112737  5.514508  4.274115
  N     5.162167  9.541038  4.264157
  S     4.158521  5.131136  2.959782
  S     4.239099  9.090220  2.960329
  S     6.962512  5.750258 -0.166658
  S     7.137778  9.574433 -0.037726
  S     6.746915  6.009933  3.965229
  S     6.760962  9.916303  4.011495
