16  
    
  C     4.513807  4.987363  1.206606
  C     4.289692  8.476710  1.519291
  C     3.241920  4.611726  0.679266
  C     3.162751  8.130243  0.735290
  N     5.407536  5.212673  0.249087
  N     5.360033  8.787767  0.785492
  N     3.117289  4.521327 -0.643651
  N     3.409210  8.054876 -0.576546
  N     2.672712  4.885857  3.177577
  N     2.365394  8.000826  3.178493
  S     1.893304  4.717626  1.752852
  S     1.723048  7.665640  1.725001
  S     4.674193  4.817303 -1.218054
  S     5.002972  8.495506 -0.773109
  S     4.294227  5.146312  3.011702
  S     3.981195  8.447747  3.270863
