16  
    
  C     5.174766  5.354598  2.009879
  C     5.104328  8.623471  1.605970
  C     3.875945  4.947648  1.424918
  C     3.874247  8.489222  0.927243
  N     6.215466  5.062198  1.224678
  N     6.179810  8.646811  0.815371
  N     3.963070  4.587059  0.141525
  N     4.044094  8.227714 -0.370200
  N     3.240459  5.645456  3.814589
  N     3.317742  8.554602  3.448149
  S     2.454600  5.156163  2.345943
  S     2.520099  8.388974  2.008251
  S     5.540507  4.669644 -0.292834
  S     5.615232  8.325022 -0.683464
  S     4.952241  5.709862  3.700974
  S     4.952190  8.882090  3.279707
