16  
    
  C    12.894520  9.222313  3.409284
  C    12.993529 12.849690  3.485869
  C    11.769590  8.535814  2.850473
  C    11.706872 12.470822  2.883140
  N    13.908842  9.457577  2.599874
  N    13.969624 12.961533  2.607204
  N    11.913587  8.274047  1.574127
  N    11.808725 12.066472  1.602759
  N    10.912877  9.166958  5.265381
  N    11.189913 13.070489  5.370069
  S    10.384463  8.424988  3.889346
  S    10.322761 12.552864  3.989817
  S    13.433949  8.831137  1.061314
  S    13.367760 12.460049  1.198043
  S    12.591907  9.553946  5.132196
  S    12.832700 13.431855  5.159450
