16  
    
  C     8.511977  6.744598  2.326486
  C     8.312552 10.260705  2.623267
  C     7.285613  6.134574  1.766806
  C     7.254754  9.573490  1.880375
  N     9.515592  6.869334  1.459230
  N     9.331675 10.571494  1.850694
  N     7.311029  6.050130  0.421922
  N     7.527925  9.434477  0.578917
  N     6.967601  6.382086  4.348656
  N     6.343186  9.944119  4.230548
  S     6.145282  5.881850  3.023508
  S     5.788726  9.409764  2.777202
  S     8.940640  6.440529 -0.028112
  S     9.074616 10.045161  0.336984
  S     8.513583  6.816477  4.022018
  S     7.861693 10.557667  4.249679
