16  
    
  C     9.613743  7.317083  2.997120
  C     9.625255 10.876622  2.740830
  C     8.544730  6.765468  2.226826
  C     8.425578 10.486122  2.108884
  N    10.646797  7.681988  2.237926
  N    10.593117 11.165848  1.915772
  N     8.697128  6.775021  0.915223
  N     8.479109 10.377007  0.785307
  N     7.748069  6.625346  4.598750
  N     7.904664 10.647742  4.620747
  S     7.152394  6.196225  3.131014
  S     7.101566 10.234787  3.218545
  S    10.214176  7.326559  0.673800
  S     9.989499 10.842191  0.378877
  S     9.232274  7.329682  4.669154
  S     9.530919 11.016319  4.464846
