16  
    
  C     5.062172  5.115916  1.832704
  C     5.110875  8.599881  1.911198
  C     3.718964  4.866478  1.284504
  C     3.871833  8.376784  1.251419
  N     6.060406  5.070349  0.964004
  N     6.189227  8.656414  1.111618
  N     3.768844  4.857132 -0.064668
  N     3.963112  7.989318 -0.016353
  N     3.535903  4.693350  3.862739
  N     3.260473  8.726352  3.716752
  S     2.478871  4.836996  2.561551
  S     2.485060  8.423673  2.257457
  S     5.338037  5.048230 -0.519173
  S     5.582532  8.175528 -0.394219
  S     5.176670  5.021193  3.532100
  S     4.927297  9.031660  3.569515
