16  
    
  C    12.366012  8.870313  3.692872
  C    12.476074 12.739464  3.420467
  C    11.150271  8.428270  3.122193
  C    11.299187 12.258120  2.826402
  N    13.365752  8.986367  2.837849
  N    13.461408 13.048414  2.577692
  N    11.274786  8.033988  1.872769
  N    11.357249 12.028573  1.498270
  N    10.665380  8.956357  5.592807
  N    10.788767 12.703622  5.335263
  S     9.791990  8.533879  4.214556
  S     9.987561 12.129375  4.044676
  S    12.777387  8.517514  1.388664
  S    12.965535 12.518185  1.118945
  S    12.257948  9.380407  5.367667
  S    12.377075 12.822996  5.129688
