16  
    
  C    10.506064  7.268652  2.814234
  C    10.235879 11.036017  2.789421
  C     9.238456  7.487030  2.179400
  C     8.992769 10.865773  2.176804
  N    11.554331  7.040604  2.007202
  N    11.291332 11.159389  1.977319
  N     9.260025  7.471146  0.865086
  N     9.053563 10.714930  0.854765
  N     8.696622  7.404286  4.695785
  N     8.475050 11.035681  4.664808
  S     7.879819  7.382461  3.245617
  S     7.714539 10.636546  3.260887
  S    10.847932  7.127359  0.445938
  S    10.636887 10.894367  0.409851
  S    10.323946  7.224246  4.557732
  S    10.141482 11.185045  4.526566
