16  
    
  C    11.784991  8.570941  3.160889
  C    11.301712 12.154753  3.350625
  C    10.480209  8.157802  2.603316
  C    10.253704 11.484553  2.646696
  N    12.755167  8.839009  2.292667
  N    12.295878 12.617398  2.596527
  N    10.542666  8.151289  1.276019
  N    10.417360 11.545900  1.306203
  N    10.146075  8.115006  5.161571
  N     9.581196 11.742352  5.092614
  S     9.274508  7.713236  3.817382
  S     8.842218 11.348228  3.717987
  S    12.018850  8.630186  0.817135
  S    11.923607 12.205492  1.056377
  S    11.688824  8.717712  4.895631
  S    11.100505 12.249127  5.053152
