16  
    
  C    10.736996  8.325328  3.019609
  C    10.768073 11.774210  3.100303
  C     9.495529  7.807502  2.426168
  C     9.583229 11.368302  2.349297
  N    11.744453  8.517835  2.172629
  N    11.858909 11.994417  2.364279
  N     9.606942  7.561632  1.112732
  N     9.809656 11.073610  1.058612
  N     9.035011  7.954651  4.883086
  N     8.865594 11.722472  4.782525
  S     8.171488  7.710276  3.457985
  S     8.157526 11.333908  3.333438
  S    11.161337  8.041108  0.639622
  S    11.486981 11.552996  0.819118
  S    10.556814  8.606488  4.738212
  S    10.466588 12.119147  4.796009
