16  
    
  C     9.528566  7.647841  2.646834
  C    10.142232 11.239978  2.609441
  C     8.482472  6.893053  2.108799
  C     8.897944 10.926116  2.012637
  N    10.555846  7.817683  1.811264
  N    11.146182 11.366428  1.719379
  N     8.695263  6.447348  0.876083
  N     8.898685 10.746165  0.669583
  N     7.849293  7.301650  4.588285
  N     8.470732 10.992822  4.554197
  S     7.140734  6.589661  3.222035
  S     7.591189 10.729901  3.167868
  S    10.174671  7.007177  0.436240
  S    10.467976 11.054714  0.269660
  S     9.336397  7.986496  4.310053
  S    10.051873 11.605093  4.311138
