16  
    
  C     4.206222  4.870014  1.635480
  C     4.089667  8.307136  1.510737
  C     2.962119  4.525028  1.024511
  C     2.904408  7.945077  0.822868
  N     5.234543  4.810368  0.769253
  N     5.125181  8.597304  0.716103
  N     2.998769  4.380909 -0.284989
  N     3.044939  7.645166 -0.473999
  N     2.370050  4.694947  3.413222
  N     2.221563  8.350001  3.236707
  S     1.590500  4.380678  2.051703
  S     1.465569  7.951446  1.844349
  S     4.533278  4.434765 -0.725423
  S     4.621447  8.078711 -0.841352
  S     4.016482  5.005410  3.353159
  S     3.897925  8.647414  3.199347
