16  
    
  C    12.083012  8.518163  3.478247
  C    12.092182 12.383395  3.301138
  C    10.860268  8.139943  2.813844
  C    10.977207 11.716677  2.633398
  N    13.146007  8.736062  2.708064
  N    13.214399 12.385456  2.554848
  N    11.023546  8.095603  1.485499
  N    11.220191 11.402986  1.367164
  N    10.240643  8.334185  5.303112
  N    10.269364 11.950159  5.093828
  S     9.452721  8.058621  3.869883
  S     9.661430 11.286799  3.692887
  S    12.635877  8.406761  1.185151
  S    12.771762 11.796977  1.043973
  S    11.799002  8.776958  5.203936
  S    11.882751 12.443559  4.987468
