16  
    
  C     9.682389  7.571619  2.807817
  C     9.885025 11.201452  2.749445
  C     8.552020  7.027377  2.112411
  C     8.657169 10.819974  2.157046
  N    10.804058  7.808665  2.115927
  N    10.941711 11.325923  1.942502
  N     8.835651  6.866503  0.821151
  N     8.731257 10.698296  0.820635
  N     7.834155  7.524277  4.550627
  N     8.187352 11.159057  4.608704
  S     7.208020  6.750622  3.201362
  S     7.334510 10.873207  3.244892
  S    10.398914  7.435654  0.579291
  S    10.299211 10.993281  0.389388
  S     9.421192  7.933683  4.498105
  S     9.854699 11.198877  4.485269
