16  
    
  C     7.312154  6.000955  2.251393
  C     7.700514  9.588714  2.375947
  C     6.204274  5.463981  1.481767
  C     6.470280  9.311769  1.731687
  N     8.383935  6.209594  1.468278
  N     8.695955  9.773524  1.507325
  N     6.367752  5.443482  0.154063
  N     6.458398  9.306136  0.407896
  N     5.363258  5.673827  3.933482
  N     5.841502  9.770100  4.188372
  S     4.728193  5.250264  2.377953
  S     5.061528  9.274647  2.722039
  S     7.906112  5.904646 -0.091885
  S     8.081767  9.596910 -0.005646
  S     7.021938  6.028607  3.991067
  S     7.513604  9.767876  4.140354
