16  
    
  C    11.843346  8.809128  3.330910
  C    11.494941 12.421977  3.194410
  C    10.547663  8.323729  2.834733
  C    10.474602 11.606876  2.567440
  N    12.806560  8.808434  2.382812
  N    12.509190 12.673943  2.376269
  N    10.569674  7.905301  1.559009
  N    10.646248 11.389111  1.274021
  N    10.303755  8.549413  5.405434
  N     9.801528 11.816834  5.031705
  S     9.389307  8.193950  4.109378
  S     9.131825 11.306741  3.583901
  S    12.084814  8.268046  0.983708
  S    12.073142 12.007887  0.895120
  S    11.869457  9.136356  5.102897
  S    11.289981 12.535682  4.920873
