16  
    
  C    11.828550  8.591630  3.380386
  C    11.580671 11.990965  3.476040
  C    10.585832  8.356358  2.650780
  C    10.400806 11.553560  2.760589
  N    12.911075  8.550098  2.597210
  N    12.593006 12.290489  2.684763
  N    10.736242  8.216022  1.313751
  N    10.547236 11.362612  1.455397
  N    10.019850  8.305984  5.124830
  N     9.820588 11.587715  5.298015
  S     9.254065  8.199698  3.712896
  S     9.052894 11.305863  3.859450
  S    12.395401  8.368043  1.037322
  S    12.078846 11.877641  1.094035
  S    11.675111  8.610572  5.115036
  S    11.431804 11.979960  5.263378
