16  
    
  C     9.272036  6.662412  2.547806
  C     9.643346 10.657399  2.797142
  C     8.082089  6.253774  1.843630
  C     8.380143 10.199924  2.226413
  N    10.294600  6.910665  1.723191
  N    10.607706 10.893997  1.894847
  N     8.157822  6.291298  0.494371
  N     8.436968 10.061065  0.885168
  N     7.395203  6.420549  4.295182
  N     8.036200 10.433537  4.738668
  S     6.692290  6.003497  2.840698
  S     7.166190  9.920147  3.431588
  S     9.685409  6.710667  0.165527
  S     9.948765 10.469925  0.432476
  S     9.004297  6.808746  4.303193
  S     9.615869 10.939992  4.511386
