16  
    
  C     8.384713  6.621494  2.583867
  C     8.804309 10.454134  2.810581
  C     7.222287  6.120395  1.870730
  C     7.579756 10.046173  2.173222
  N     9.412031  6.922207  1.780689
  N     9.815287 10.617224  1.932607
  N     7.417392  5.993930  0.566174
  N     7.676010  9.888054  0.868508
  N     6.403227  6.278447  4.278267
  N     6.957074 10.334631  4.623369
  S     5.755762  5.877770  2.737290
  S     6.230057  9.955403  3.200957
  S     8.961223  6.524514  0.233386
  S     9.248982 10.157081  0.509428
  S     7.958965  6.875464  4.318000
  S     8.607000 10.496300  4.569872
