16  
    
  C    10.767416  8.439932  3.266966
  C    10.725326 11.940624  3.217214
  C     9.616922  7.799320  2.696316
  C     9.507275 11.483503  2.521677
  N    11.737163  8.659151  2.371673
  N    11.811579 12.003726  2.433533
  N     9.685341  7.527768  1.396410
  N     9.660935 11.274818  1.211888
  N     8.992026  8.215519  5.071858
  N     8.887703 11.703717  5.068481
  S     8.310805  7.494113  3.739822
  S     8.200057 11.060440  3.653121
  S    11.241369  7.962134  0.929122
  S    11.277730 11.590934  0.899176
  S    10.554246  8.744384  4.940110
  S    10.534193 12.050304  4.926089
