16  
    
  C     6.012689  5.038179  1.631607
  C     5.993054  9.168624  1.958136
  C     4.754302  4.760989  0.999042
  C     4.768425  8.688923  1.342589
  N     6.997089  5.268503  0.740491
  N     7.066269  9.172754  1.147737
  N     4.847887  4.508989 -0.298967
  N     4.916185  8.470121  0.046922
  N     4.218230  4.800826  3.560155
  N     4.208759  8.849646  3.849845
  S     3.430622  4.519530  2.088952
  S     3.356507  8.601693  2.482153
  S     6.384501  4.860462 -0.737529
  S     6.476833  8.743971 -0.346466
  S     5.810172  5.108011  3.334292
  S     5.869662  9.175396  3.708071
