16  
    
  C    10.922722  8.187493  2.964534
  C    10.824595 11.863048  3.069165
  C     9.701376  7.766062  2.251103
  C     9.692300 11.274203  2.380529
  N    11.971828  8.282250  2.160415
  N    11.871042 12.066885  2.283744
  N     9.820240  7.558712  0.947453
  N     9.778737 11.206927  1.052753
  N     9.136690  7.919536  4.845995
  N     8.994148 11.688144  4.838189
  S     8.374871  7.616678  3.340671
  S     8.305789 11.160591  3.406147
  S    11.383443  8.035427  0.578150
  S    11.426763 11.655952  0.753936
  S    10.776904  8.446961  4.647675
  S    10.550797 12.242369  4.722503
