16  
    
  C    12.046161  8.698930  3.380798
  C    11.961652 12.081983  3.229963
  C    10.756154  8.510162  2.698168
  C    10.601011 11.805890  2.753227
  N    13.050355  8.771154  2.519105
  N    12.844204 12.385429  2.265956
  N    10.810649  8.365229  1.375026
  N    10.533815 11.817652  1.438761
  N    10.236864  8.442780  5.270369
  N    10.287441 12.075147  5.203666
  S     9.446083  8.258243  3.800135
  S     9.320340 11.801724  3.854228
  S    12.429996  8.649326  0.998227
  S    12.015315 12.101019  0.821928
  S    11.892186  8.733946  5.135602
  S    11.958057 12.203556  5.027640
