16  
    
  C     5.311748  5.455131  1.736324
  C     5.124336  8.890091  1.277530
  C     4.011772  5.001315  1.267394
  C     3.862562  8.502311  0.741318
  N     6.206046  5.428403  0.749738
  N     6.145610  8.957990  0.430332
  N     3.890156  4.831395 -0.033856
  N     3.890960  8.136450 -0.545276
  N     3.680610  5.400849  3.821384
  N     3.494604  8.941135  3.295629
  S     2.773000  5.192886  2.447043
  S     2.653397  8.280079  1.997055
  S     5.432848  4.950995 -0.630881
  S     5.524027  8.420605 -1.017150
  S     5.269877  5.962921  3.432191
  S     5.070085  9.316096  2.974465
