16  
    
  C     7.200515  6.021646  2.179438
  C     7.433204  9.704731  2.527682
  C     6.070087  5.578028  1.386941
  C     6.185270  9.452365  1.771360
  N     8.255419  6.257563  1.410214
  N     8.459550  9.728525  1.704069
  N     6.334074  5.330201  0.115791
  N     6.318961  9.272482  0.474929
  N     5.301930  5.697955  3.775021
  N     5.609234  9.487388  4.230843
  S     4.675158  5.119822  2.303617
  S     4.788143  9.509143  2.792370
  S     7.913812  5.720881 -0.143870
  S     7.924932  9.375821  0.151910
  S     6.830401  6.241847  3.884758
  S     7.182669  9.947617  4.224672
