16  
    
  C     8.011566  6.674270  2.687470
  C     8.699366 10.314172  2.656424
  C     6.863834  6.225106  1.952636
  C     7.438682  9.888391  2.065426
  N     9.113770  6.842867  1.961254
  N     9.729193 10.356573  1.796930
  N     7.042287  5.920414  0.678348
  N     7.485524  9.664507  0.776451
  N     6.064162  6.231331  4.386113
  N     6.925848 10.195841  4.546602
  S     5.507269  5.864749  2.876432
  S     6.079982  9.828829  3.139139
  S     8.642225  6.308522  0.402011
  S     9.026362 10.009703  0.317243
  S     7.657981  6.789895  4.387776
  S     8.474032 10.772000  4.361538
