16  
    
  C    10.990474  7.859429  3.129098
  C    11.517547 11.995838  3.029589
  C     9.816143  7.537904  2.374003
  C    10.409699 11.216635  2.490749
  N    12.138029  7.922323  2.439520
  N    12.518684 12.151531  2.166088
  N     9.999914  7.326875  1.087792
  N    10.531445 10.924519  1.211480
  N     9.051416  7.812473  4.785891
  N     9.814507 11.494209  4.955904
  S     8.302515  7.386668  3.353106
  S     9.088564 10.871501  3.592509
  S    11.642159  7.608753  0.833182
  S    12.065965 11.351056  0.704047
  S    10.628836  8.021389  4.840881
  S    11.295588 12.258358  4.724183
