16  
    
  C     5.098356  4.967443  1.662584
  C     4.931878  8.720590  1.768033
  C     3.703794  4.741456  1.263428
  C     3.644490  8.397530  1.274971
  N     5.936135  4.960884  0.614376
  N     5.914342  8.784038  0.869276
  N     3.519731  4.751831 -0.045444
  N     3.582383  8.105201 -0.027323
  N     3.595059  4.818878  3.819795
  N     3.363784  8.695574  3.836646
  S     2.511038  4.507229  2.495524
  S     2.414819  8.327153  2.509590
  S     5.006400  4.920959 -0.743403
  S     5.178076  8.386772 -0.556879
  S     5.227468  4.779141  3.421400
  S     4.927542  9.058369  3.470749
