16  
    
  C     5.897234  4.921408  1.831923
  C     5.779567  9.232153  1.996008
  C     4.763433  4.455754  1.094133
  C     4.621752  8.682791  1.374788
  N     7.024831  5.102530  1.157871
  N     6.775653  9.512558  1.147372
  N     4.921464  4.444960 -0.217899
  N     4.731184  8.423720  0.064642
  N     3.895770  4.878380  3.478589
  N     4.096129  8.917869  3.942401
  S     3.327551  4.245170  2.018292
  S     3.361901  8.288716  2.542061
  S     6.557784  4.730377 -0.428675
  S     6.232980  8.948505 -0.350138
  S     5.536855  5.131319  3.511676
  S     5.645110  9.604017  3.706229
