16  
    
  C    12.386450  8.995747  3.747746
  C    12.585799 12.829084  3.564360
  C    11.237360  8.411817  3.113532
  C    11.359792 12.456023  2.940741
  N    13.340715  9.410489  2.911434
  N    13.625915 12.814344  2.733014
  N    11.312778  8.279454  1.800891
  N    11.416438 12.434086  1.612389
  N    10.512164  8.534955  5.651940
  N    10.879724 12.550148  5.438983
  S     9.939117  7.987469  4.167548
  S     9.985671 12.237534  4.031139
  S    12.812284  8.920272  1.387031
  S    12.950241 12.732299  1.180521
  S    12.117135  9.283536  5.533168
  S    12.492529 12.936102  5.305436
