16  
    
  C     7.374809  5.979429  2.196862
  C     7.786168  9.698328  2.257584
  C     6.146114  5.628467  1.487746
  C     6.493836  9.343282  1.657535
  N     8.438556  6.234367  1.440596
  N     8.815312  9.854299  1.446365
  N     6.306255  5.492227  0.167454
  N     6.581496  9.239591  0.336342
  N     5.526835  5.605974  3.997735
  N     6.086814  9.608907  4.202917
  S     4.826140  5.195356  2.573639
  S     5.212769  9.284088  2.862431
  S     7.885508  5.932101 -0.119604
  S     8.143394  9.633137 -0.098554
  S     7.115805  6.049897  3.907152
  S     7.701254  9.793162  3.992836
