16  
    
  C    10.098768  7.505329  2.532456
  C    10.376958 11.067710  2.679999
  C     8.831697  6.953332  1.987517
  C     9.071227 11.001475  2.014995
  N    11.082873  7.666130  1.643165
  N    11.407939 10.960904  1.861090
  N     8.865924  6.723556  0.684979
  N     9.195440 11.048201  0.688707
  N     8.336099  7.263937  4.454019
  N     8.589318 11.072916  4.529202
  S     7.594854  6.664803  3.124554
  S     7.788722 10.893271  3.127278
  S    10.420362  7.008168  0.217103
  S    10.806500 10.997163  0.328290
  S     9.963096  7.617854  4.285094
  S    10.270175 11.134754  4.388322
