16  
    
  C     4.310565  5.049393  1.157001
  C     4.464790  8.235442  1.369019
  C     3.050318  4.693638  0.532237
  C     3.269256  7.871671  0.670176
  N     5.365079  5.038304  0.339189
  N     5.457330  8.619138  0.589753
  N     3.132690  4.711889 -0.787781
  N     3.407447  7.677525 -0.635584
  N     2.662908  4.663199  3.078355
  N     2.566659  8.219896  3.158612
  S     1.761124  4.675735  1.712260
  S     1.845189  7.718770  1.740397
  S     4.755210  4.742701 -1.204553
  S     4.939347  8.227451 -1.041955
  S     4.178292  5.230636  2.855095
  S     4.209318  8.450966  3.111354
