16  
    
  C     4.940700  4.779925  1.630826
  C     4.843631  8.770267  1.778279
  C     3.549537  4.715170  1.191939
  C     3.588398  8.315272  1.297590
  N     5.857390  4.954705  0.701010
  N     5.768880  8.901997  0.833677
  N     3.475981  4.648124 -0.126518
  N     3.508164  8.224813 -0.023873
  N     3.607104  4.761128  3.728342
  N     3.303741  8.687926  3.766041
  S     2.542673  4.425993  2.550076
  S     2.340020  8.302858  2.505508
  S     5.023901  4.847421 -0.728998
  S     5.001698  8.546745 -0.620655
  S     5.177520  4.765936  3.309218
  S     4.938001  9.006952  3.512170
