16  
    
  C    11.862019  8.721268  3.485667
  C    11.484230 12.226966  3.303019
  C    10.604052  8.302478  2.861339
  C    10.418707 11.623524  2.505473
  N    12.875234  8.763791  2.643048
  N    12.560344 12.494163  2.556965
  N    10.673626  8.100815  1.553813
  N    10.681443 11.522685  1.194783
  N    10.070718  8.618349  5.384511
  N     9.661775 11.939796  4.861593
  S     9.238221  8.303410  3.988529
  S     9.047360 11.353504  3.500628
  S    12.224049  8.476077  1.129795
  S    12.245913 11.918863  1.019552
  S    11.685285  9.027352  5.209809
  S    11.182613 12.458568  5.024210
