16  
    
  C    11.005629  7.866453  3.130673
  C    11.511968 11.990274  3.020847
  C     9.746406  7.497446  2.405338
  C    10.429815 11.252508  2.458566
  N    12.122215  7.981611  2.413397
  N    12.539443 12.085070  2.180627
  N     9.978290  7.365087  1.102301
  N    10.549429 10.874632  1.188349
  N     9.051226  7.862132  4.817660
  N     9.753887 11.517292  4.987565
  S     8.315008  7.358476  3.391909
  S     9.114577 10.881673  3.540751
  S    11.608563  7.587766  0.815893
  S    12.096239 11.401465  0.736412
  S    10.676851  8.083918  4.832614
  S    11.307746 12.239590  4.774024
