16  
    
  C     5.636534  5.214976  1.944260
  C     5.670862  9.035353  1.987946
  C     4.504006  4.548414  1.355954
  C     4.481549  8.461098  1.391529
  N     6.630929  5.483933  1.118838
  N     6.604669  9.324795  1.106335
  N     4.643555  4.290269  0.054904
  N     4.464440  8.407737  0.081530
  N     3.946573  5.030506  3.824675
  N     3.997625  8.753298  3.860351
  S     3.266520  4.192004  2.606611
  S     3.312800  8.036403  2.516670
  S     6.107334  4.994912 -0.405023
  S     6.004904  8.984698 -0.405942
  S     5.475721  5.626427  3.646732
  S     5.567552  9.177189  3.743603
