16  
    
  C     7.736626  6.603924  2.434391
  C     7.802453 10.057558  2.063707
  C     6.528616  6.164124  1.747716
  C     6.515140  9.869777  1.382853
  N     8.833031  6.673658  1.669372
  N     8.900321 10.007419  1.312678
  N     6.745542  5.847300  0.466442
  N     6.677929  9.771565  0.048910
  N     5.829178  6.711825  4.207122
  N     6.090928 10.209722  3.961155
  S     5.091845  6.140006  2.883223
  S     5.203598  9.940602  2.612874
  S     8.347236  6.153107  0.167170
  S     8.287252  9.822442 -0.267695
  S     7.501804  7.067898  4.102849
  S     7.706684 10.484661  3.717905
