16  
    
  C     6.877930  5.635953  1.774895
  C     7.227620 10.023481  2.458404
  C     5.764239  5.102796  1.079454
  C     6.031844  9.477395  1.930218
  N     7.978709  5.763035  1.022283
  N     8.189297 10.139986  1.559223
  N     6.023210  4.726495 -0.166286
  N     6.014256  9.257576  0.611606
  N     4.726435  5.972040  3.267219
  N     5.576588  9.702889  4.427344
  S     4.273225  5.068089  1.967330
  S     4.673211  9.373857  3.068133
  S     7.594791  5.126020 -0.449402
  S     7.611770  9.680904  0.122896
  S     6.415197  6.221919  3.282061
  S     7.168128 10.260025  4.166482
