16  
    
  C     5.390512  5.557164  1.714744
  C     5.193204  8.961558  1.784209
  C     4.187517  5.381492  0.947873
  C     4.022949  8.576720  1.079806
  N     6.521397  5.674596  1.017285
  N     6.262845  9.092908  1.003682
  N     4.418296  5.096966 -0.341128
  N     4.135709  8.680320 -0.249153
  N     3.430628  5.301817  3.350368
  N     3.371095  8.607158  3.571225
  S     2.764101  5.078403  1.911532
  S     2.657093  8.169224  2.103461
  S     6.051704  5.320135 -0.588359
  S     5.776400  8.938895 -0.587390
  S     5.017423  5.743218  3.403459
  S     4.995734  8.869499  3.523780
