16  
    
  C     5.455880  5.480382  1.656148
  C     5.275920  8.963309  1.699574
  C     4.236794  5.130651  0.994836
  C     4.179405  8.420750  0.966385
  N     6.470621  5.727176  0.846681
  N     6.358220  9.203583  0.954057
  N     4.352295  4.925348 -0.310140
  N     4.447589  8.252634 -0.314800
  N     3.677470  5.132849  3.515179
  N     3.343981  8.738012  3.370699
  S     2.854535  5.074788  2.041280
  S     2.688654  8.327363  1.895270
  S     5.836538  5.503081 -0.690886
  S     5.956579  8.751582 -0.594231
  S     5.228129  5.675286  3.380185
  S     4.992171  9.083397  3.439145
