16  
    
  C     9.254029  6.743528  2.404811
  C     9.506378 10.536168  2.810623
  C     8.054675  6.365400  1.663670
  C     8.225766 10.260714  2.196102
  N    10.287677  6.947585  1.612756
  N    10.524254 10.486337  1.960884
  N     8.251969  6.130724  0.354827
  N     8.260906 10.004848  0.883315
  N     7.464504  6.501390  4.194555
  N     7.746999 10.774723  4.688562
  S     6.692261  6.132212  2.731829
  S     6.874897 10.486960  3.259840
  S     9.917729  6.481816  0.088902
  S     9.932256 10.092791  0.484532
  S     9.082301  6.744774  4.110432
  S     9.419215 10.910571  4.491070
