16  
    
  C     7.721779  6.542097  2.425798
  C     7.793272 10.152613  2.204275
  C     6.406063  6.179400  1.879888
  C     6.528765  9.901274  1.515888
  N     8.686195  6.625791  1.488962
  N     8.870541 10.096393  1.386423
  N     6.452055  5.751433  0.604491
  N     6.686862  9.598176  0.236923
  N     5.964224  6.833788  4.294144
  N     5.890334  9.966757  3.958752
  S     5.079597  6.158840  2.971563
  S     5.150117  9.927246  2.476550
  S     8.031954  6.102947  0.029143
  S     8.289109  9.748872 -0.149307
  S     7.554788  7.050620  4.127509
  S     7.524209 10.242745  3.956576
