16  
    
  C     9.941439  7.849784  2.691325
  C    10.590981 11.483053  3.107685
  C     8.948380  7.089000  2.056224
  C     9.440491 11.217502  2.319165
  N    10.985582  8.135569  1.901114
  N    11.723421 11.687505  2.408972
  N     9.227002  6.695021  0.807819
  N     9.648242 10.928458  1.008622
  N     8.148293  7.389517  4.405715
  N     8.613543 11.278652  4.791400
  S     7.548178  6.721085  3.022595
  S     7.946609 11.221727  3.237359
  S    10.694574  7.383263  0.460165
  S    11.310125 11.245117  0.849233
  S     9.595662  8.126850  4.323473
  S    10.245288 11.624932  4.786663
