16  
    
  C     7.641381  6.537977  2.286366
  C     7.804070 10.022336  2.447890
  C     6.364737  6.032308  1.852949
  C     6.599735  9.645109  1.715878
  N     8.586175  6.553754  1.322359
  N     8.880713 10.133528  1.662608
  N     6.245362  5.793589  0.543557
  N     6.738581  9.558130  0.374793
  N     6.085944  6.328421  4.395658
  N     5.792715  9.954027  4.136186
  S     5.100700  6.037955  3.055882
  S     5.161892  9.466170  2.677275
  S     7.750160  6.102195 -0.094436
  S     8.272389  9.862393  0.044345
  S     7.676791  6.705134  4.035439
  S     7.434695 10.292620  4.128656
