16  
    
  C    11.787092  8.567817  3.159935
  C    11.301568 12.155430  3.350959
  C    10.478727  8.151738  2.598860
  C    10.256532 11.489202  2.647538
  N    12.751128  8.844970  2.293617
  N    12.297851 12.619956  2.601706
  N    10.539181  8.144803  1.274852
  N    10.422414 11.544980  1.307567
  N    10.144205  8.120534  5.170402
  N     9.576927 11.748612  5.087447
  S     9.269518  7.712029  3.817540
  S     8.839603 11.350538  3.715601
  S    12.016967  8.629318  0.816277
  S    11.920685 12.209780  1.052319
  S    11.683973  8.723898  4.896692
  S    11.101229 12.246722  5.044829
