16  
    
  C    11.147396  8.182816  3.156680
  C    11.403118 11.706735  3.255802
  C     9.963295  7.660109  2.626005
  C    10.145006 11.513773  2.559523
  N    12.124385  8.304157  2.250799
  N    12.471985 11.620846  2.469624
  N     9.963099  7.355426  1.338278
  N    10.269511 11.241673  1.259264
  N     9.543306  8.119731  5.169869
  N     9.634827 11.622356  5.178172
  S     8.691513  7.582379  3.808373
  S     8.852158 11.546869  3.675889
  S    11.545193  7.646331  0.857027
  S    11.871412 11.464906  0.884220
  S    11.118765  8.445864  4.879909
  S    11.320825 11.894114  4.969663
