16  
    
  C    10.196532  7.352976  2.622122
  C    10.391767 10.916514  2.738356
  C     8.926592  6.913370  2.023125
  C     9.057465 10.959058  2.071170
  N    11.172848  7.527641  1.741464
  N    11.437387 10.983813  1.919388
  N     9.013540  6.686748  0.737736
  N     9.160802 10.915074  0.754438
  N     8.397317  7.346768  4.504479
  N     8.543669 10.824982  4.593070
  S     7.635537  6.851440  3.124313
  S     7.727949 10.963294  3.157443
  S    10.550161  7.127786  0.243673
  S    10.769206 10.986509  0.333651
  S    10.086797  7.512830  4.380173
  S    10.230351 11.069360  4.476420
