16  
    
  C    11.804415  8.570776  3.187150
  C    11.379934 12.256003  3.446728
  C    10.548586  8.278380  2.574074
  C    10.213412 11.722385  2.748573
  N    12.799081  8.821461  2.307592
  N    12.426608 12.457276  2.653301
  N    10.537562  8.278875  1.222845
  N    10.416979 11.502911  1.474884
  N    10.232258  7.996265  5.172578
  N     9.580496 11.588180  5.247533
  S     9.362944  7.818981  3.726300
  S     8.910516 11.180201  3.758407
  S    12.113342  8.592219  0.821081
  S    11.889364 12.052781  1.060467
  S    11.834524  8.535155  4.977283
  S    11.130585 12.296673  5.182799
