16  
    
  C     5.440152  5.455369  1.684930
  C     5.251226  9.014177  1.723591
  C     4.189192  5.166978  0.969502
  C     4.175269  8.437706  1.000622
  N     6.465574  5.742354  0.892274
  N     6.341229  9.188289  0.981990
  N     4.366226  4.914135 -0.348883
  N     4.419049  8.303364 -0.299219
  N     3.659666  5.133046  3.453639
  N     3.362188  8.752237  3.381182
  S     2.859151  5.082046  2.036883
  S     2.700167  8.308597  1.895013
  S     5.893287  5.497667 -0.678290
  S     5.951482  8.781799 -0.572693
  S     5.194184  5.679209  3.371281
  S     4.994993  9.032464  3.463708
