16  
    
  C     5.579113  5.368871  1.922467
  C     5.506296  9.029352  1.785610
  C     4.326168  4.881227  1.404382
  C     4.412990  8.373183  1.139397
  N     6.440261  5.815109  1.012816
  N     6.580662  9.250743  1.012952
  N     4.356095  4.648240  0.101598
  N     4.591362  8.215226 -0.161399
  N     4.117239  4.999444  3.960051
  N     3.617510  8.679865  3.528658
  S     3.136624  4.634291  2.673003
  S     2.976196  8.144608  2.131222
  S     5.854103  5.219713 -0.415564
  S     6.077682  8.738941 -0.511762
  S     5.642782  5.563188  3.652439
  S     5.224754  9.090547  3.516019
