16  
    
  C     8.793125  7.292678  2.489819
  C     9.164643 10.646943  2.149434
  C     7.585538  6.906233  1.822649
  C     7.896139 10.546976  1.493549
  N     9.743157  7.773291  1.687305
  N    10.191614 10.787190  1.334611
  N     7.674962  6.839745  0.501664
  N     7.929611 10.571883  0.170799
  N     6.956785  6.717090  4.287135
  N     7.362941 10.616461  4.009973
  S     6.340261  6.208035  2.838019
  S     6.548633 10.416265  2.588350
  S     9.209235  7.450659  0.094617
  S     9.536364 10.732925 -0.261686
  S     8.568798  7.130256  4.255248
  S     8.985580 10.894226  3.876659
