16  
    
  C     7.976330  6.672363  2.631759
  C     8.648727 10.332727  2.735690
  C     6.915680  6.062343  1.901571
  C     7.466780  9.862765  2.098917
  N     9.151339  6.824447  2.022782
  N     9.728661 10.550657  2.003078
  N     7.190390  5.984950  0.599021
  N     7.598802  9.699578  0.765059
  N     6.149039  6.334088  4.377410
  N     6.888800 10.225093  4.611350
  S     5.448982  5.796645  2.963597
  S     6.100097  9.953240  3.201163
  S     8.817297  6.383345  0.414786
  S     9.186867 10.100139  0.422236
  S     7.784591  6.777862  4.365821
  S     8.487608 10.702523  4.429831
