16  
    
  C    12.608881  8.829745  3.665238
  C    12.416053 12.776833  3.888522
  C    11.390284  8.487718  3.021512
  C    11.324360 12.122441  3.233465
  N    13.639256  9.034583  2.872926
  N    13.470879 13.076542  3.129034
  N    11.516518  8.253949  1.705378
  N    11.487500 12.042904  1.922327
  N    11.040820  8.495714  5.527943
  N    10.563192 12.435645  5.702574
  S    10.144830  8.185977  4.213187
  S     9.900069 11.805601  4.249671
  S    13.130710  8.672188  1.305726
  S    13.046052 12.640515  1.601302
  S    12.564697  9.122196  5.398073
  S    12.048569 13.107145  5.586099
