16  
    
  C    10.951999  7.870199  3.133469
  C    11.522834 11.912402  3.040823
  C     9.771470  7.488215  2.431074
  C    10.378926 11.269371  2.406067
  N    12.039891  8.006326  2.342396
  N    12.575081 12.047629  2.220589
  N     9.961434  7.384250  1.108569
  N    10.610942 10.839870  1.154089
  N     9.020882  7.899521  4.860692
  N     9.735470 11.542167  4.941036
  S     8.358950  7.333575  3.447129
  S     9.138263 10.910478  3.506426
  S    11.568245  7.577012  0.820642
  S    12.101439 11.449915  0.782868
  S    10.735856  8.145392  4.816186
  S    11.301608 12.214311  4.811129
