16  
    
  C     9.938789  7.658869  2.677075
  C     9.886622 11.346671  2.991322
  C     8.682513  7.360112  2.040403
  C     8.784917 10.687100  2.309514
  N    10.906187  7.667856  1.774421
  N    10.937308 11.580139  2.171765
  N     8.663720  7.234687  0.711438
  N     8.960207 10.511362  0.979154
  N     8.182578  7.411862  4.530874
  N     8.050412 10.919177  4.718435
  S     7.356951  7.185539  3.130147
  S     7.375335 10.430511  3.280763
  S    10.239240  7.547394  0.237821
  S    10.477276 11.122355  0.682181
  S     9.796909  7.762729  4.437190
  S     9.609167 11.431472  4.672601
