16  
    
  C     3.464291  4.550964  1.472357
  C     3.574190  8.388380  1.225466
  C     2.321912  4.054036  0.833194
  C     2.306692  8.032132  0.684086
  N     4.511743  4.792958  0.699585
  N     4.578625  8.454982  0.339243
  N     2.549291  3.832431 -0.465185
  N     2.231907  8.077356 -0.632443
  N     1.684552  4.273276  3.335923
  N     1.908655  8.136638  3.208476
  S     1.061831  3.576981  1.982625
  S     1.012614  7.800703  1.842427
  S     4.098796  4.286464 -0.802349
  S     3.774740  8.309100 -1.140672
  S     3.297437  4.813161  3.167782
  S     3.504719  8.573889  2.950592
