16  
    
  C     5.500360  5.515678  1.663214
  C     5.305410  8.886335  1.624704
  C     4.242810  5.034567  1.095178
  C     4.173262  8.404327  0.921066
  N     6.416687  5.745002  0.730379
  N     6.361923  9.160687  0.856873
  N     4.203585  5.044109 -0.227936
  N     4.351664  8.128329 -0.357366
  N     3.674575  5.244731  3.558340
  N     3.376093  8.743690  3.373259
  S     2.864486  5.026226  2.149677
  S     2.716864  8.345512  1.900834
  S     5.729636  5.428554 -0.771676
  S     5.952079  8.649599 -0.689057
  S     5.351983  5.679590  3.422926
  S     4.934581  9.235847  3.285898
