16  
    
  C    11.301714  8.078610  3.347179
  C    11.378932 12.010810  3.262627
  C    10.097701  7.771991  2.657415
  C    10.047527 11.672843  2.774342
  N    12.380531  8.140902  2.557928
  N    12.331335 11.820478  2.336651
  N    10.281443  7.638256  1.353180
  N     9.997790 11.313075  1.479515
  N     9.479376  8.396914  5.088014
  N     9.852511 12.206722  5.275655
  S     8.763536  7.729264  3.728748
  S     8.829395 11.783057  4.096690
  S    11.869534  7.830372  1.046845
  S    11.568430 11.427811  0.952355
  S    11.094598  8.537776  5.027404
  S    11.448898 12.272673  5.013319
