16  
    
  C    10.948824  7.751676  3.112478
  C    11.075951 11.669592  2.744662
  C     9.695401  7.347434  2.542359
  C     9.856026 11.192304  2.159808
  N    11.918762  7.998125  2.223709
  N    12.025412 11.918490  1.832869
  N     9.680521  7.253624  1.195292
  N     9.887936 10.896098  0.842122
  N     9.352602  7.575731  5.118837
  N     9.443019 11.312117  4.672457
  S     8.495809  7.127338  3.749286
  S     8.549808 11.027336  3.328533
  S    11.192234  7.763984  0.687739
  S    11.463848 11.378926  0.406800
  S    10.972457  7.892900  4.854646
  S    10.907613 12.000610  4.466753
