16  
    
  C     9.256362  6.788227  2.383354
  C     9.491268 10.573732  2.825974
  C     8.087440  6.333946  1.669285
  C     8.193825 10.263386  2.179283
  N    10.333335  6.914409  1.605612
  N    10.532779 10.440110  1.964460
  N     8.265195  6.110950  0.371836
  N     8.263835 10.010158  0.873693
  N     7.442763  6.518613  4.154532
  N     7.709586 10.837248  4.642118
  S     6.723231  6.163827  2.688083
  S     6.848695 10.532600  3.234865
  S     9.885026  6.458807  0.100437
  S     9.911831 10.061559  0.517952
  S     9.064361  6.762638  4.116016
  S     9.388093 10.900270  4.478078
