16  
    
  C     5.173137  5.332363  2.022043
  C     5.104222  8.624966  1.609296
  C     3.878061  4.938665  1.425537
  C     3.887589  8.488026  0.928618
  N     6.220233  5.055054  1.226354
  N     6.192078  8.639061  0.840541
  N     3.968651  4.592009  0.138392
  N     4.051027  8.241920 -0.369901
  N     3.231783  5.624503  3.814857
  N     3.315781  8.545351  3.449468
  S     2.452018  5.155078  2.346328
  S     2.522203  8.394368  2.008551
  S     5.544874  4.674530 -0.286107
  S     5.628700  8.320012 -0.671301
  S     4.954488  5.708000  3.704248
  S     4.940292  8.875942  3.291846
