16  
    
  C     5.160418  5.266419  2.041664
  C     5.115474  8.640331  1.621835
  C     3.889086  4.928294  1.415859
  C     3.900619  8.473178  0.931543
  N     6.222353  5.051537  1.228368
  N     6.221270  8.620379  0.889527
  N     3.977485  4.601736  0.133146
  N     4.054125  8.270742 -0.372116
  N     3.222870  5.580834  3.808448
  N     3.312819  8.531975  3.451416
  S     2.450997  5.154213  2.353511
  S     2.524343  8.404712  2.008092
  S     5.556449  4.685305 -0.270213
  S     5.660239  8.310644 -0.650052
  S     4.955478  5.703642  3.710195
  S     4.917121  8.863555  3.320676
