16  
    
  C     6.587459  5.826546  2.126140
  C     6.249780  9.200639  1.917385
  C     5.481061  5.259455  1.412509
  C     5.087238  8.715963  1.181179
  N     7.610883  6.130260  1.353131
  N     7.347368  9.437721  1.210114
  N     5.626699  5.085119  0.104140
  N     5.306280  8.595576 -0.128296
  N     4.717709  5.499070  3.917565
  N     4.465471  8.974897  3.678302
  S     4.088206  5.109712  2.444821
  S     3.689992  8.566807  2.203735
  S     7.188635  5.652533 -0.177873
  S     6.836854  9.146009 -0.379404
  S     6.348237  6.054018  3.823581
  S     6.048107  9.387808  3.646429
