16  
    
  C    10.451996  7.256058  2.805395
  C    10.270114 11.089282  2.769323
  C     9.172065  7.365124  2.143965
  C     9.012813 10.776205  2.158748
  N    11.457972  7.036247  1.953195
  N    11.325157 11.159894  1.928573
  N     9.266393  7.372974  0.830212
  N     9.087907 10.715458  0.818684
  N     8.610115  7.457425  4.634679
  N     8.531467 10.946416  4.695223
  S     7.808222  7.204008  3.191981
  S     7.633744 10.720018  3.263890
  S    10.815365  7.157742  0.424838
  S    10.695526 10.924791  0.444370
  S    10.289390  7.286816  4.571267
  S    10.159302 11.058498  4.550618
