16  
    
  C     9.076461  7.171437  2.260383
  C     9.059489 10.630127  2.366735
  C     7.841806  6.617685  1.660737
  C     7.805393 10.151034  1.770860
  N    10.074670  7.203282  1.380035
  N    10.037914 10.739071  1.470282
  N     7.914149  6.313564  0.377433
  N     7.941803  9.839361  0.464359
  N     7.320018  6.735822  4.184224
  N     7.201120 10.566977  4.251104
  S     6.576301  6.338688  2.739064
  S     6.452791 10.089110  2.823977
  S     9.474341  6.664340 -0.104349
  S     9.438659 10.333275  0.022705
  S     8.877337  7.207793  4.059886
  S     8.832716 10.870647  4.106324
