16  
    
  C     7.961224  6.346005  2.202113
  C     8.084981 10.171105  2.193183
  C     6.775011  5.890524  1.571060
  C     6.841261  9.802469  1.573395
  N     8.986630  6.535201  1.373585
  N     9.159860 10.274565  1.427074
  N     6.836820  5.893650  0.249387
  N     6.937089  9.701723  0.250265
  N     6.181437  5.961587  4.124523
  N     6.295628 10.018350  4.075623
  S     5.464405  5.481723  2.709619
  S     5.507039  9.601195  2.680562
  S     8.339095  6.275993 -0.172690
  S     8.475598 10.049932 -0.151521
  S     7.853760  6.254519  3.990969
  S     7.877468 10.542532  3.888019
