16  
    
  C    10.646276  7.637603  3.085614
  C    10.658818 11.792676  3.152010
  C     9.358969  7.292779  2.452618
  C     9.410503 11.183245  2.694381
  N    11.564243  7.918934  2.184089
  N    11.462049 12.036109  2.123310
  N     9.332701  7.306330  1.133838
  N     9.357731 10.952226  1.377434
  N     9.011704  7.456590  4.992065
  N     9.235772 11.449107  5.239726
  S     8.108142  7.025911  3.664509
  S     8.284394 10.904194  3.998345
  S    10.883822  7.818855  0.686704
  S    10.701693 11.551686  0.704662
  S    10.588779  7.732356  4.816814
  S    10.608694 12.301610  4.798691
