16  
    
  C     9.216249  6.799656  2.386385
  C     9.135799 10.881736  3.022597
  C     7.995447  6.272771  1.756389
  C     7.915980 10.313115  2.393688
  N    10.243531  6.832499  1.561644
  N    10.131658 11.030738  2.138844
  N     8.145151  5.851502  0.486332
  N     8.048313 10.084790  1.088820
  N     7.396239  7.062987  4.180721
  N     7.344062 10.916648  4.911103
  S     6.661765  6.307370  2.916574
  S     6.563118 10.513445  3.500369
  S     9.723959  6.126299  0.109284
  S     9.533528 10.491258  0.633516
  S     9.031701  7.258648  4.067162
  S     8.991744 11.276272  4.715476
