16  
    
  C     5.998995  4.785846  1.708716
  C     5.942120  9.165517  1.966570
  C     4.781969  4.562306  0.978973
  C     4.753810  8.623105  1.360248
  N     7.047171  5.131630  0.958086
  N     6.952135  9.224318  1.104694
  N     5.010820  4.481759 -0.322195
  N     4.803011  8.467985  0.051154
  N     4.087779  4.750490  3.460642
  N     4.184913  8.849063  3.848644
  S     3.394684  4.365526  1.956287
  S     3.374266  8.510424  2.409059
  S     6.578794  4.806485 -0.574764
  S     6.401838  8.848463 -0.393816
  S     5.752539  5.002687  3.354426
  S     5.735693  9.499591  3.675173
