16  
    
  C    12.442259  9.106272  3.369486
  C    12.284999 12.710094  3.445952
  C    11.327684  8.551657  2.643859
  C    11.045071 12.224153  2.946758
  N    13.530967  9.407790  2.674820
  N    13.221688 13.070325  2.559400
  N    11.479888  8.503101  1.324095
  N    11.119272 12.030671  1.626336
  N    10.623182  8.455211  5.124610
  N    10.734781 12.683904  5.472722
  S     9.947816  8.090617  3.693794
  S     9.976862 11.799693  4.227172
  S    13.081694  9.162890  1.098379
  S    12.619718 12.477522  1.125747
  S    12.096395  9.150239  5.062695
  S    12.313087 13.051845  5.160630
