16  
    
  C     4.389698  4.935472  1.188419
  C     4.441696  8.327376  1.350781
  C     3.110376  4.762749  0.558523
  C     3.239916  7.793450  0.664744
  N     5.374317  5.055161  0.293208
  N     5.471777  8.513376  0.521685
  N     3.144980  4.692304 -0.790261
  N     3.381876  7.697307 -0.653635
  N     2.566814  4.673682  3.104842
  N     2.562022  8.186958  3.189023
  S     1.743246  4.644896  1.676445
  S     1.861005  7.735966  1.752659
  S     4.703271  4.731942 -1.206450
  S     4.930790  8.191246 -1.060773
  S     4.154521  5.239447  2.950955
  S     4.248476  8.490617  3.074348
