16  
    
  C    10.982102  7.641838  3.134476
  C    11.196926 11.757580  2.806642
  C     9.728371  7.443110  2.486146
  C     9.942562 11.206394  2.207798
  N    12.038260  7.853727  2.349756
  N    12.171179 11.911482  1.922062
  N     9.808772  7.541286  1.166616
  N    10.077900 10.801820  0.945795
  N     9.191302  7.703885  4.995736
  N     9.512430 11.755425  4.662179
  S     8.375534  7.182575  3.528092
  S     8.766255 10.904843  3.447556
  S    11.413799  7.677934  0.776340
  S    11.622079 11.397339  0.506861
  S    10.844303  7.653395  4.877337
  S    11.115828 12.109610  4.548199
