16  
    
  C     9.573152  7.234917  2.997655
  C     9.565601 10.898750  2.626990
  C     8.486465  6.685944  2.255633
  C     8.370468 10.445864  2.059877
  N    10.588049  7.691163  2.239023
  N    10.578791 11.142973  1.819437
  N     8.636879  6.651045  0.946662
  N     8.400856 10.357376  0.730664
  N     7.670380  6.540280  4.698336
  N     7.910669 10.536029  4.624342
  S     7.155674  6.102295  3.150306
  S     7.077416 10.197315  3.212161
  S    10.127421  7.287232  0.657449
  S     9.985224 10.804780  0.299701
  S     9.236692  7.183231  4.758590
  S     9.503335 10.954305  4.429983
