16  
    
  C    11.816871  8.568971  3.428680
  C    11.604624 11.984365  3.407563
  C    10.598905  8.251824  2.752594
  C    10.377189 11.620772  2.685208
  N    12.901180  8.690177  2.675160
  N    12.714761 12.077360  2.663657
  N    10.746894  8.113187  1.466940
  N    10.515499 11.610291  1.362364
  N     9.921121  8.436569  5.211892
  N     9.889943 11.626803  5.159743
  S     9.177512  8.270857  3.772637
  S     9.042016 11.371713  3.801250
  S    12.398549  8.392786  1.125743
  S    12.188179 11.815422  1.109152
  S    11.565581  8.769251  5.107660
  S    11.453378 11.943432  5.116290
