16  
    
  C     7.580870  6.654208  2.310679
  C     7.702488 10.064626  2.244359
  C     6.330983  6.081700  1.844664
  C     6.467130  9.735175  1.515004
  N     8.612657  6.649600  1.441111
  N     8.842964 10.208816  1.548477
  N     6.372077  5.801404  0.523241
  N     6.740991  9.586510  0.202596
  N     5.986266  6.623932  4.375123
  N     5.833627 10.023389  4.033346
  S     5.117438  6.181523  3.081898
  S     5.078796  9.813776  2.593395
  S     7.918163  6.045279  0.065517
  S     8.355849  9.774257 -0.016592
  S     7.625861  6.905740  4.004026
  S     7.515496 10.192290  3.943987
