16  
    
  C    12.826885  9.413109  3.408289
  C    12.809936 12.928055  3.541089
  C    11.688040  8.765113  2.799724
  C    11.524689 12.623027  2.971790
  N    13.947642  9.376193  2.688032
  N    13.846909 12.996541  2.701006
  N    11.859943  8.471830  1.501196
  N    11.606196 12.261809  1.698997
  N    11.080593  9.021944  5.321552
  N    11.050982 12.985403  5.493186
  S    10.386401  8.498564  3.880700
  S    10.300689 12.446114  4.119482
  S    13.430730  8.857787  1.192504
  S    13.198765 12.365267  1.221896
  S    12.558841  9.736884  5.140113
  S    12.715106 13.199487  5.241277
