16  
    
  C    12.764170  8.831899  3.852416
  C    12.599813 12.753741  3.842259
  C    11.492725  8.396476  3.250309
  C    11.476126 12.177048  3.111021
  N    13.726972  9.255517  2.998572
  N    13.729084 12.884433  3.141310
  N    11.568697  8.366822  1.913407
  N    11.749272 12.080400  1.817286
  N    11.134457  8.563208  5.749039
  N    10.773868 12.370856  5.613526
  S    10.239149  8.061636  4.446593
  S    10.159406 11.839556  4.184362
  S    13.093345  8.951475  1.530619
  S    13.306398 12.524550  1.562075
  S    12.614932  9.145698  5.520135
  S    12.449419 12.658051  5.586078
