16  
    
  C     7.837278  6.425070  2.350570
  C     7.944858 10.513707  2.053617
  C     6.708308  5.863105  1.627120
  C     6.713944  9.878509  1.600964
  N     8.918227  6.618360  1.639779
  N     8.862340 10.713560  1.110460
  N     6.875218  5.851850  0.319532
  N     6.757505  9.556311  0.332965
  N     5.905530  6.368546  4.052327
  N     6.488636 10.259156  4.123173
  S     5.302831  5.800849  2.581789
  S     5.524336  9.818218  2.849006
  S     8.486590  6.349266  0.071775
  S     8.311564 10.076048 -0.254008
  S     7.541367  6.586582  4.010322
  S     8.030307 10.763924  3.728974
