16  
    
  C     7.006023  5.926103  1.719858
  C     7.330961  9.867465  2.499188
  C     5.902212  5.186663  1.216206
  C     6.062158  9.516060  1.927223
  N     7.918029  6.193293  0.791294
  N     8.295110  9.819246  1.585620
  N     6.049608  4.734126 -0.035251
  N     6.029978  9.169571  0.657809
  N     5.179024  5.799028  3.597776
  N     5.505605  9.892588  4.368595
  S     4.579106  4.997012  2.349526
  S     4.681928  9.548710  3.021468
  S     7.411954  5.446941 -0.602290
  S     7.655817  9.404060  0.152504
  S     6.694862  6.399113  3.363992
  S     7.147183 10.227348  4.194569
