16  
    
  C     7.741929  6.530207  2.466484
  C     7.799989 10.040569  2.090951
  C     6.485722  6.175371  1.809357
  C     6.552577  9.876990  1.413259
  N     8.794576  6.684236  1.658190
  N     8.872023 10.023666  1.303250
  N     6.644007  5.824426  0.521306
  N     6.672680  9.791671  0.081437
  N     5.879885  6.812534  4.220586
  N     6.031572 10.138373  3.968150
  S     5.128405  6.151061  2.886343
  S     5.192801  9.952721  2.569912
  S     8.291992  6.159761  0.169012
  S     8.293970  9.787924 -0.238512
  S     7.484886  7.073373  4.068161
  S     7.661964 10.438157  3.743559
