16  
    
  C    11.340309  8.760401  3.300965
  C    11.418950 12.248271  3.293415
  C    10.230162  8.015843  2.733161
  C    10.276926 11.783025  2.534200
  N    12.324113  8.937141  2.424801
  N    12.500125 12.493569  2.594616
  N    10.390880  7.642406  1.459488
  N    10.509470 11.602763  1.236958
  N     9.682814  8.416698  5.244817
  N     9.643019 11.782739  5.070397
  S     9.002119  7.729224  3.888780
  S     8.934368 11.447486  3.584339
  S    11.928045  8.205932  1.013756
  S    12.088564 12.172062  1.009769
  S    11.195774  9.167595  4.916600
  S    11.090728 12.635178  4.995958
