16  
    
  C    12.742028  9.275619  3.338859
  C    12.651238 12.978446  3.545293
  C    11.504764  8.809505  2.778188
  C    11.500878 12.471074  2.837235
  N    13.805685  9.295386  2.519814
  N    13.722743 13.269912  2.829332
  N    11.639924  8.483928  1.472369
  N    11.788501 12.231369  1.567525
  N    10.981315  8.982382  5.295249
  N    10.825412 12.556070  5.298386
  S    10.204692  8.567140  3.842986
  S    10.174516 12.056688  3.859133
  S    13.185410  8.826780  1.068424
  S    13.379767 12.593436  1.262711
  S    12.630763  9.499286  5.091924
  S    12.336482 13.239977  5.256647
