16  
    
  C     8.261555  6.575589  2.301136
  C     8.078318 10.116991  2.450118
  C     7.021544  6.027152  1.690020
  C     6.900206  9.452519  1.852081
  N     9.278400  6.624295  1.447428
  N     9.018663 10.434110  1.595156
  N     7.102856  5.759789  0.405713
  N     7.035577  9.203499  0.546320
  N     6.427457  6.371045  4.188051
  N     6.273246  9.912097  4.278207
  S     5.690459  5.960894  2.734954
  S     5.564271  9.370771  2.875107
  S     8.672968  6.051018 -0.019769
  S     8.555051  9.817507  0.121256
  S     8.012052  6.847637  4.001860
  S     7.870292 10.299552  4.171583
