16  
    
  C     7.723687  6.531492  2.448478
  C     7.808602 10.041808  2.073153
  C     6.500775  6.144630  1.823132
  C     6.559915  9.888602  1.441290
  N     8.764043  6.667931  1.656283
  N     8.852297 10.026806  1.286662
  N     6.607604  5.832163  0.561337
  N     6.651998  9.784321  0.122890
  N     5.900488  6.854759  4.234181
  N     6.013466 10.103329  3.974314
  S     5.149140  6.155058  2.878789
  S     5.192200  9.955435  2.533665
  S     8.250136  6.159629  0.168808
  S     8.302091  9.776582 -0.219916
  S     7.482225  7.075444  4.064541
  S     7.639317 10.415042  3.775114
