16  
    
  C    12.274375  9.023388  3.785517
  C    12.585594 12.796013  3.557118
  C    11.094194  8.458201  3.135722
  C    11.367357 12.402716  2.891378
  N    13.322374  9.223880  2.976215
  N    13.630385 12.861098  2.742455
  N    11.258440  8.152078  1.835191
  N    11.449756 12.409142  1.568697
  N    10.559486  8.821483  5.735074
  N    10.889793 12.305732  5.429605
  S     9.853525  8.106031  4.337041
  S    10.040350 12.282382  4.008580
  S    12.856469  8.661464  1.492077
  S    13.004690 12.683897  1.189920
  S    12.247688  9.246660  5.482810
  S    12.414501 12.922192  5.254357
