16  
    
  C    10.233573  7.274897  2.655400
  C    10.344512 10.927903  2.769616
  C     9.001763  6.896299  2.027963
  C     9.109761 10.862257  2.115007
  N    11.284825  7.440154  1.846434
  N    11.376977 11.024609  1.938557
  N     9.058044  6.735395  0.682863
  N     9.157398 10.843126  0.780668
  N     8.445897  7.377333  4.559576
  N     8.521865 10.740174  4.594503
  S     7.609656  6.943072  3.178054
  S     7.720001 10.979860  3.179417
  S    10.628946  7.184992  0.294237
  S    10.751112 10.982074  0.360526
  S    10.142124  7.471543  4.361448
  S    10.213073 11.037844  4.497581
