16  
    
  C     8.083271  6.277370  2.273306
  C     8.138767 10.110560  2.262587
  C     6.777407  5.970883  1.646357
  C     6.860457  9.802735  1.630911
  N     9.030343  6.580541  1.353827
  N     9.108404 10.216695  1.348492
  N     6.822760  5.857342  0.312952
  N     6.843264  9.744972  0.320272
  N     6.196281  6.004019  4.098179
  N     6.311845  9.944051  4.118276
  S     5.477312  5.538210  2.699583
  S     5.505164  9.560053  2.654104
  S     8.384543  6.255537 -0.169774
  S     8.459400  9.977547 -0.152885
  S     7.882443  6.306329  4.028029
  S     7.870023 10.529696  3.927597
