16  
    
  C     6.862476  6.006942  2.352985
  C     7.250980  9.623993  2.093587
  C     5.746143  5.432037  1.638980
  C     6.011404  9.320023  1.440604
  N     7.799592  6.598870  1.582368
  N     8.290417  9.793286  1.294513
  N     5.967173  5.329729  0.324497
  N     6.120321  9.285329  0.127457
  N     4.941731  5.468748  4.099230
  N     5.501621  9.817455  3.945599
  S     4.434035  4.838296  2.654375
  S     4.622143  9.357494  2.634866
  S     7.400478  6.127399  0.041438
  S     7.688908  9.497710 -0.278903
  S     6.541448  6.174379  4.041912
  S     7.197998  9.761732  3.795143
