16  
    
  C     5.552349  5.327932  1.870295
  C     5.335852  8.829976  1.741601
  C     4.203819  5.026144  1.345527
  C     4.121294  8.461517  1.052704
  N     6.505201  5.391076  0.932221
  N     6.384718  9.021285  0.948925
  N     4.125113  5.141896  0.021175
  N     4.271813  8.287880 -0.244036
  N     4.069714  5.141876  3.974042
  N     3.363215  8.726581  3.480243
  S     3.030243  4.952071  2.613693
  S     2.773194  8.137073  2.048282
  S     5.693760  5.276670 -0.545809
  S     5.882923  8.705118 -0.593221
  S     5.709664  5.467285  3.575192
  S     4.957573  9.283533  3.321685
