16  
    
  C    11.080907  8.260894  2.940434
  C    10.809034 11.627859  3.008365
  C     9.980167  7.467338  2.482864
  C     9.568757 11.278864  2.323366
  N    11.939686  8.618261  1.956419
  N    11.824087 11.886263  2.177661
  N    10.005372  7.203146  1.165486
  N     9.748159 11.141133  0.999324
  N     9.524045  7.972426  4.984502
  N     9.184207 11.237843  4.856297
  S     8.735149  7.210784  3.698906
  S     8.354164 10.908108  3.488204
  S    11.360542  7.909734  0.565930
  S    11.283945 11.635630  0.610251
  S    10.960399  8.702547  4.669755
  S    10.707055 11.863701  4.729359
