16  
    
  C    11.795710  8.585729  3.203321
  C    11.365580 12.209921  3.450099
  C    10.526391  8.261580  2.583335
  C    10.215297 11.723364  2.725740
  N    12.779857  8.806575  2.310487
  N    12.398078 12.488856  2.656360
  N    10.514789  8.266451  1.236901
  N    10.402897 11.485425  1.431959
  N    10.248493  8.013032  5.174731
  N     9.556758 11.589451  5.271252
  S     9.365629  7.802225  3.721518
  S     8.901938 11.202087  3.738681
  S    12.106531  8.602904  0.818064
  S    11.899141 12.072718  1.046363
  S    11.816142  8.555037  4.965051
  S    11.138873 12.302660  5.177484
