16  
    
  C     6.094319  5.612945  2.077790
  C     6.059658  9.159607  1.559242
  C     4.810221  5.440919  1.504281
  C     4.830814  8.700928  0.995188
  N     7.124925  5.578256  1.250759
  N     7.072374  9.375188  0.719189
  N     4.779745  5.201056  0.189590
  N     4.924121  8.462098 -0.305334
  N     4.427669  5.861491  4.047468
  N     4.229926  9.240892  3.451235
  S     3.528509  5.692061  2.680408
  S     3.467190  8.636863  2.057998
  S     6.401825  5.350391 -0.227419
  S     6.444964  8.856909 -0.780058
  S     6.056568  5.882568  3.771499
  S     5.892628  9.437680  3.287999
