16  
    
  C     7.823857  6.401386  2.198702
  C     8.098108 10.503633  2.160854
  C     6.666075  5.957642  1.495721
  C     6.883433  9.960660  1.604024
  N     8.887747  6.608165  1.407809
  N     9.117718 10.636011  1.315033
  N     6.794815  5.871500  0.157361
  N     6.956873  9.751206  0.267987
  N     5.985545  6.149051  4.050427
  N     6.436369 10.257289  4.132799
  S     5.379559  5.583527  2.636189
  S     5.667594  9.668970  2.783881
  S     8.390790  6.315804 -0.130564
  S     8.425392 10.218533 -0.215641
  S     7.648576  6.396184  3.914808
  S     7.904547 10.974561  3.823420
