16  
    
  C     8.567008  6.706633  2.382209
  C     8.379677 10.297088  2.462214
  C     7.375361  6.111128  1.836533
  C     7.213629  9.751826  1.849507
  N     9.515584  6.853351  1.444471
  N     9.409185 10.416235  1.641378
  N     7.296874  6.055287  0.504139
  N     7.352894  9.555336  0.544324
  N     6.915324  6.218582  4.308195
  N     6.531736 10.145546  4.219696
  S     6.075205  5.914677  2.930919
  S     5.849272  9.508102  2.841907
  S     8.839287  6.548562 -0.025237
  S     8.921487  9.995964  0.170164
  S     8.490112  6.774712  4.126784
  S     8.117975 10.553633  4.155278
