16  
    
  C     9.189531  6.907545  2.675707
  C     9.646776 10.806698  2.717427
  C     8.004305  6.427059  2.046862
  C     8.577818 10.122039  2.155392
  N    10.185935  7.303217  1.857784
  N    10.579690 11.265076  1.893008
  N     8.135633  6.302001  0.721595
  N     8.630146 10.077626  0.811366
  N     7.398169  6.400547  4.501654
  N     8.178528 10.067421  4.666438
  S     6.682186  6.061849  3.027070
  S     7.367828  9.639091  3.272523
  S     9.651629  6.814651  0.350521
  S    10.035212 10.781696  0.373566
  S     9.023315  6.866182  4.435037
  S     9.598658 10.983136  4.470849
