16  
    
  C     3.975203  4.678190  1.692504
  C     3.960954  8.508059  1.581225
  C     2.715483  4.487770  0.994066
  C     2.785258  7.974503  0.884032
  N     5.030060  4.670988  0.916065
  N     5.054907  8.470053  0.855754
  N     2.887300  4.145921 -0.290465
  N     2.954859  7.736653 -0.411418
  N     2.264231  4.845366  3.576612
  N     2.010873  8.337924  3.357291
  S     1.459133  4.365398  2.275138
  S     1.387500  7.876913  1.910649
  S     4.556371  4.339024 -0.636032
  S     4.578267  8.033987 -0.706097
  S     3.964599  4.968470  3.355866
  S     3.674520  8.693253  3.279525
