16  
    
  C    12.393686  9.049293  3.435194
  C    12.426914 12.757678  3.461694
  C    11.271532  8.542757  2.651216
  C    11.152334 12.279426  2.972376
  N    13.406406  9.536558  2.704495
  N    13.368518 12.862790  2.523833
  N    11.474792  8.580815  1.323998
  N    11.153926 12.037864  1.677183
  N    10.631158  8.423706  5.093284
  N    10.806520 12.645869  5.486218
  S     9.957757  7.977624  3.673239
  S     9.972645 11.907852  4.221939
  S    12.994647  9.249413  1.131884
  S    12.615188 12.453554  1.051003
  S    12.042853  9.239814  5.182170
  S    12.374212 13.084908  5.184834
