16  
    
  C     3.550059  4.519115  1.604860
  C     3.820955  8.311598  1.675729
  C     2.460110  3.886228  0.964229
  C     2.591736  8.035955  1.022005
  N     4.514804  4.913205  0.792305
  N     4.838309  8.631204  0.861632
  N     2.478505  4.052647 -0.366466
  N     2.684785  7.816711 -0.296357
  N     1.948498  4.298874  3.456260
  N     2.155933  7.959469  3.540060
  S     1.193643  3.633658  2.131130
  S     1.258634  7.863896  2.149958
  S     3.976301  4.661550 -0.733287
  S     4.237849  8.272608 -0.668123
  S     3.486756  4.811377  3.280808
  S     3.744350  8.372416  3.389723
