16  
    
  C    12.015775  8.457010  3.266431
  C    11.901710 12.203260  3.157440
  C    10.709169  8.296769  2.729200
  C    10.618102 11.945062  2.589239
  N    13.022596  8.695971  2.383652
  N    12.924329 12.085864  2.332661
  N    10.683910  8.306274  1.396014
  N    10.644684 11.854839  1.281317
  N    10.351648  8.431913  5.297235
  N    10.297488 11.976875  5.249767
  S     9.421770  8.191541  3.876866
  S     9.431680 11.619994  3.878511
  S    12.274973  8.558691  0.909188
  S    12.243922 11.967526  0.816528
  S    12.000505  8.705706  4.984579
  S    11.912671 12.297991  4.860339
