16  
    
  C     5.611112  5.416832  1.963099
  C     5.653564  8.942689  1.914237
  C     4.506278  4.583084  1.458670
  C     4.397301  8.528947  1.294707
  N     6.545064  5.658530  1.038781
  N     6.643012  9.252114  1.079542
  N     4.529981  4.442132  0.138047
  N     4.519612  8.405389 -0.025219
  N     3.990573  4.995951  3.913504
  N     3.947449  8.544106  3.874568
  S     3.275758  4.288351  2.611317
  S     3.158896  8.037744  2.408027
  S     5.967412  5.016590 -0.377277
  S     6.089031  8.921599 -0.443303
  S     5.494782  5.688706  3.662934
  S     5.475348  9.129851  3.610139
