16  
    
  C    11.889025  8.571018  3.224226
  C    11.424518 12.212705  3.491060
  C    10.621782  8.247853  2.641604
  C    10.263783 11.675016  2.803162
  N    12.870810  8.795846  2.331596
  N    12.445170 12.440511  2.666140
  N    10.642585  8.252758  1.313062
  N    10.330691 11.544766  1.497479
  N    10.260073  7.990864  5.122824
  N     9.644180 11.626706  5.268136
  S     9.321686  7.943923  3.759634
  S     8.990292 11.112015  3.849698
  S    12.214953  8.593005  0.785729
  S    11.931332 11.971824  1.178576
  S    11.819103  8.433720  4.936195
  S    11.157310 12.271003  5.183474
