16  
    
  C     8.000246  6.494653  2.638356
  C     8.547755 10.330391  2.438914
  C     6.811964  6.136093  1.862278
  C     7.268059  9.910527  1.916978
  N     9.062798  6.791508  1.902152
  N     9.551432 10.420349  1.577925
  N     7.045161  5.920489  0.566650
  N     7.332430  9.665011  0.585382
  N     6.114995  6.247641  4.390691
  N     6.921740 10.375014  4.471277
  S     5.399074  5.941500  2.915393
  S     6.059230  9.718690  3.178603
  S     8.677414  6.377763  0.321355
  S     8.950130  9.858423  0.168778
  S     7.721439  6.830179  4.300045
  S     8.546457 10.590276  4.175953
