16  
    
  C     8.533110  6.614941  2.353933
  C     8.314384 10.193624  2.538338
  C     7.259642  6.247076  1.747916
  C     7.204313  9.606875  1.797507
  N     9.495342  6.903787  1.483201
  N     9.408251 10.528752  1.850317
  N     7.414580  6.023424  0.424755
  N     7.537960  9.408614  0.506034
  N     6.987262  6.316630  4.344191
  N     6.387063 10.069456  4.258755
  S     6.068758  5.859324  3.011090
  S     5.779222  9.470148  2.824174
  S     8.902591  6.510135 -0.020283
  S     9.019748 10.091557  0.249628
  S     8.594232  6.801272  4.061014
  S     8.000802 10.576402  4.217525
