16  
    
  C     5.813954  5.513246  2.102050
  C     5.874957  8.930037  1.967947
  C     4.551536  5.232829  1.425536
  C     4.655120  8.673712  1.200656
  N     6.838448  5.475528  1.273433
  N     6.917080  9.129086  1.182602
  N     4.655264  5.092156  0.112702
  N     4.860437  8.508405 -0.120981
  N     3.947935  5.590047  3.854960
  N     4.013779  9.105652  3.734196
  S     3.215427  5.543079  2.424949
  S     3.247163  8.797385  2.242147
  S     6.256451  5.258895 -0.258957
  S     6.452296  8.798005 -0.366451
  S     5.629211  5.906569  3.809130
  S     5.645173  9.242688  3.645542
