16  
    
  C    12.395160  9.160284  3.349407
  C    12.279646 12.714066  3.521473
  C    11.149940  8.604663  2.818993
  C    11.111199 12.182571  2.781861
  N    13.386422  9.308096  2.473806
  N    13.295419 12.879644  2.690014
  N    11.159600  8.363380  1.497013
  N    11.394728 11.735396  1.566759
  N    10.788500  8.944053  5.273209
  N    10.247958 12.609946  5.129473
  S     9.910291  8.492852  3.929358
  S     9.641538 12.093047  3.708962
  S    12.720081  8.741083  1.003029
  S    12.858720 12.292327  1.110367
  S    12.285731  9.516179  5.105356
  S    11.878288 13.018845  5.252789
