16  
    
  C     5.108962  5.402417  1.822920
  C     5.143210  8.747046  1.364509
  C     3.824643  4.977862  1.317733
  C     3.840566  8.317111  0.846617
  N     6.124940  5.344815  0.973456
  N     6.082638  8.902873  0.444747
  N     3.912770  4.557557  0.070174
  N     3.821903  8.045382 -0.453821
  N     3.490473  5.665180  3.812018
  N     3.450975  8.909692  3.335383
  S     2.521744  5.271418  2.468762
  S     2.589143  8.333737  2.020751
  S     5.497991  4.782967 -0.435938
  S     5.376340  8.436526 -0.986220
  S     5.142249  5.852544  3.479117
  S     5.061350  9.077179  3.047505
