16  
    
  C     6.800956  6.129770  2.322206
  C     7.269243  9.716980  2.125309
  C     5.811376  5.382188  1.586422
  C     5.987896  9.454259  1.489806
  N     7.908141  6.426268  1.616935
  N     8.274506  9.838601  1.257629
  N     6.037662  5.355904  0.273322
  N     6.057738  9.290814  0.181074
  N     4.900224  5.631734  3.964895
  N     5.502690  9.702045  4.037648
  S     4.465466  4.942475  2.497188
  S     4.699280  9.342969  2.559080
  S     7.537525  5.995454  0.044052
  S     7.703928  9.502696 -0.242773
  S     6.433470  6.088529  4.034723
  S     7.132655  9.799787  3.875266
