16  
    
  C     4.986616  4.835493  1.763786
  C     4.690615  8.869340  1.735891
  C     3.646224  4.619655  1.234262
  C     3.419677  8.461047  1.209285
  N     5.897208  4.888449  0.777019
  N     5.618430  9.210081  0.853507
  N     3.561700  4.430461 -0.060498
  N     3.350024  8.417434 -0.110451
  N     3.323506  4.449229  3.723824
  N     3.191690  8.536118  3.774486
  S     2.361919  4.447381  2.393289
  S     2.210652  8.209936  2.450554
  S     5.021377  4.749922 -0.665453
  S     4.878217  8.928335 -0.655882
  S     4.880320  4.889057  3.540035
  S     4.795711  8.849444  3.471142
