16  
    
  C     7.319150  5.908527  2.224013
  C     7.651796  9.595491  2.425721
  C     6.163915  5.486076  1.446170
  C     6.406186  9.309635  1.698852
  N     8.376247  6.250128  1.504050
  N     8.677313  9.759461  1.589195
  N     6.363776  5.387388  0.128937
  N     6.477871  9.323314  0.358372
  N     5.305739  5.665016  3.882526
  N     5.774262  9.737931  4.151284
  S     4.698477  5.266581  2.398728
  S     5.016397  9.299432  2.763159
  S     7.964264  5.909025 -0.101287
  S     8.060625  9.563816  0.019074
  S     6.987712  6.045719  3.993248
  S     7.452989  9.779941  4.146611
