16  
    
  C     5.087494  5.075382  1.900686
  C     5.130943  8.656497  1.925445
  C     3.773922  5.039673  1.310853
  C     3.925470  8.274359  1.239944
  N     6.105292  5.139853  1.060800
  N     6.229305  8.571336  1.156959
  N     3.823268  4.842555 -0.003868
  N     4.125472  8.016838 -0.049806
  N     3.484798  4.845711  3.835706
  N     3.236389  8.819261  3.643912
  S     2.489668  4.853167  2.531308
  S     2.507762  8.459093  2.200795
  S     5.441629  5.004405 -0.471976
  S     5.712322  8.214123 -0.342920
  S     5.106242  5.065678  3.627069
  S     4.866638  8.926363  3.599566
