16  
    
  C     8.578604  6.694726  2.393772
  C     8.397976 10.304066  2.454635
  C     7.363259  6.115881  1.834299
  C     7.196203  9.768302  1.846789
  N     9.507009  6.854969  1.430501
  N     9.411207 10.413290  1.618449
  N     7.301627  6.060018  0.501618
  N     7.341045  9.587436  0.542135
  N     6.890748  6.206683  4.320446
  N     6.543946 10.147785  4.222576
  S     6.087501  5.923444  2.924728
  S     5.863257  9.513795  2.845010
  S     8.828862  6.547682 -0.018953
  S     8.902794  9.970818  0.154724
  S     8.465349  6.770757  4.127462
  S     8.133200 10.552021  4.151742
