16  
    
  C     3.746128  4.368789  1.561719
  C     3.490308  8.544634  1.179698
  C     2.554963  3.875071  0.950423
  C     2.316881  7.909417  0.666576
  N     4.695549  4.687716  0.652952
  N     4.426276  8.749123  0.264785
  N     2.577956  3.576584 -0.337179
  N     2.283647  7.785738 -0.664617
  N     1.813152  4.135845  3.384434
  N     1.959533  8.101849  3.186547
  S     1.191345  3.477450  1.938283
  S     1.021303  7.864684  1.855449
  S     3.981503  4.319333 -0.826538
  S     3.779515  8.330467 -1.185711
  S     3.380115  4.673500  3.276210
  S     3.540676  8.492547  2.915958
