16  
    
  C     7.067896  5.977337  1.963613
  C     7.291064  9.748716  2.475575
  C     5.922450  5.437674  1.300060
  C     6.036736  9.440904  1.837057
  N     8.138217  6.212968  1.201037
  N     8.362343  9.724647  1.706861
  N     6.216927  5.109536  0.056542
  N     6.199514  9.155674  0.569160
  N     5.245455  5.822649  3.743158
  N     5.546077  9.748153  4.324136
  S     4.661231  4.981851  2.400103
  S     4.658394  9.597569  2.916605
  S     7.737006  5.649838 -0.312369
  S     7.820977  9.388278  0.157477
  S     6.772818  6.364424  3.635484
  S     7.135281 10.033284  4.199018
