16  
    
  C     4.589893  5.130077  1.746325
  C     4.217988  8.670699  1.552755
  C     3.368497  4.759060  1.097307
  C     3.028810  8.166390  0.884692
  N     5.581604  5.301157  0.884046
  N     5.262056  8.891825  0.788422
  N     3.413992  4.490546 -0.186694
  N     3.166649  8.035470 -0.419360
  N     2.643751  5.141299  3.498839
  N     2.474842  8.330093  3.299758
  S     1.959835  4.681452  2.059987
  S     1.729029  7.789535  1.960372
  S     4.963242  4.707004 -0.598022
  S     4.731378  8.492689 -0.773417
  S     4.298470  5.314773  3.452046
  S     4.074664  8.807448  3.257148
