16  
    
  C     3.504668  4.714938  1.492875
  C     3.548682  8.341994  1.288254
  C     2.360004  4.117651  0.875832
  C     2.302358  8.097822  0.686414
  N     4.542121  4.875510  0.653247
  N     4.547886  8.421613  0.432421
  N     2.446653  3.756197 -0.396574
  N     2.279877  8.109392 -0.647272
  N     1.655825  4.171950  3.275673
  N     1.865577  8.091539  3.224993
  S     0.985807  3.767958  1.823237
  S     1.054300  7.792893  1.855932
  S     3.944338  4.346862 -0.838987
  S     3.891889  8.301210 -1.085030
  S     3.125665  4.983292  3.258383
  S     3.440285  8.626395  3.066141
