16  
    
  C    10.791059  8.368570  3.260560
  C    10.705404 11.887054  3.253684
  C     9.668489  7.720986  2.679363
  C     9.492902 11.402613  2.624048
  N    11.814862  8.603084  2.399584
  N    11.718428 12.057468  2.404643
  N     9.808141  7.423572  1.375760
  N     9.631826 11.253791  1.311782
  N     9.028716  8.041449  5.177839
  N     9.024566 11.531645  5.143549
  S     8.364779  7.501960  3.775996
  S     8.253219 11.059398  3.775025
  S    11.274571  7.970886  0.970343
  S    11.175945 11.668911  0.893925
  S    10.594298  8.702889  4.992310
  S    10.533123 12.103154  4.937308
