16  
    
  C     8.721878  7.347262  2.635140
  C     8.994777 11.089405  2.193674
  C     7.576122  6.641026  2.146108
  C     7.812056 10.653080  1.501920
  N     9.677418  7.616449  1.724633
  N    10.045373 11.412153  1.399716
  N     7.529918  6.452587  0.830711
  N     7.960782 10.547453  0.183377
  N     6.999972  6.794816  4.650429
  N     7.231056 10.381492  3.987703
  S     6.286880  6.231985  3.246033
  S     6.471426 10.234566  2.528746
  S     8.964107  7.071207  0.221449
  S     9.457813 10.996274 -0.204366
  S     8.567708  7.387339  4.440083
  S     8.814328 10.927905  3.950282
