16  
    
  C     9.805299  7.692301  2.791035
  C    10.607016 11.487688  3.122940
  C     8.778871  7.057031  2.034437
  C     9.382250 11.188504  2.444520
  N    10.903234  8.054000  2.134560
  N    11.733569 11.586420  2.380549
  N     9.095937  6.943655  0.739205
  N     9.562111 10.968168  1.133718
  N     7.896377  7.249569  4.400380
  N     8.718265 11.384023  4.922870
  S     7.390738  6.629425  2.974742
  S     8.020968 10.941859  3.457028
  S    10.729514  7.507970  0.566098
  S    11.144889 11.239276  0.813885
  S     9.398474  7.977314  4.473526
  S    10.349089 11.813709  4.832851
