16  
    
  C     7.202190  6.016940  2.185648
  C     7.434322  9.706856  2.524135
  C     6.073115  5.581158  1.385049
  C     6.184007  9.450110  1.766961
  N     8.258956  6.258463  1.418440
  N     8.465389  9.726591  1.709928
  N     6.333753  5.327572  0.116400
  N     6.328871  9.273684  0.469347
  N     5.302902  5.694353  3.775579
  N     5.610745  9.486120  4.225975
  S     4.672426  5.124086  2.303537
  S     4.787883  9.505608  2.794769
  S     7.918044  5.726406 -0.139616
  S     7.928128  9.378601  0.149880
  S     6.834965  6.239091  3.884907
  S     7.188057  9.944869  4.223308
