16  
    
  C    10.680964  8.460114  3.175356
  C    10.735065 11.829214  3.201827
  C     9.511664  7.833253  2.544492
  C     9.551006 11.394058  2.487072
  N    11.737438  8.559557  2.354219
  N    11.779667 12.005987  2.405805
  N     9.696074  7.480781  1.250561
  N     9.714992 11.239445  1.192903
  N     8.986137  8.170887  5.098639
  N     8.866432 11.758340  4.889823
  S     8.234088  7.552921  3.711929
  S     8.205543 11.182824  3.497225
  S    11.197290  8.026658  0.868626
  S    11.354643 11.551148  0.883001
  S    10.552422  8.777574  4.865685
  S    10.493912 12.048279  4.930699
