16  
    
  C     5.987318  4.945499  1.666078
  C     5.943897  9.147533  1.953824
  C     4.782697  4.584061  0.964879
  C     4.739460  8.648664  1.309856
  N     7.042306  5.167325  0.886150
  N     6.979091  9.246067  1.129436
  N     4.956799  4.480743 -0.350078
  N     4.838962  8.454917 -0.014763
  N     4.207236  4.701791  3.429359
  N     4.207564  8.819233  3.784573
  S     3.380914  4.408185  1.974740
  S     3.435222  8.562335  2.406053
  S     6.552574  4.799264 -0.633909
  S     6.378558  8.795857 -0.350437
  S     5.792583  4.993755  3.404232
  S     5.773956  9.426775  3.699120
