16  
    
  C     7.723716  6.560788  2.412866
  C     7.812100 10.163366  2.177989
  C     6.463594  6.129377  1.860595
  C     6.576079  9.920776  1.475883
  N     8.726283  6.613573  1.539071
  N     8.897386 10.064510  1.404785
  N     6.484790  5.770852  0.588575
  N     6.689596  9.618377  0.195241
  N     5.896580  6.857402  4.235491
  N     5.899490  9.968355  3.915073
  S     5.099269  6.162013  2.943530
  S     5.166613  9.943423  2.464667
  S     8.045262  6.124014  0.069725
  S     8.239377  9.747960 -0.182213
  S     7.562041  7.085376  4.147344
  S     7.555044 10.277081  3.955910
