16  
    
  C     3.953090  4.730277  1.671630
  C     3.930632  8.412909  1.636259
  C     2.730430  4.386663  1.048120
  C     2.716974  8.072659  0.903565
  N     5.041988  4.589197  0.907024
  N     5.052626  8.488793  0.898789
  N     2.872192  4.078214 -0.248072
  N     2.940086  7.755486 -0.366919
  N     2.279602  4.854905  3.563365
  N     2.014774  8.317106  3.348414
  S     1.424195  4.417443  2.251034
  S     1.337525  7.835976  1.912821
  S     4.456894  4.320048 -0.603304
  S     4.553666  8.007280 -0.653428
  S     3.902611  4.952062  3.383372
  S     3.633417  8.742893  3.299962
