16  
    
  C     6.216795  5.691445  2.042618
  C     6.060388  9.209820  1.595697
  C     4.920141  5.399584  1.516896
  C     4.833184  8.743492  1.025319
  N     7.202114  5.658064  1.154207
  N     7.061719  9.295056  0.738162
  N     4.929270  5.211347  0.209660
  N     4.890819  8.491601 -0.268696
  N     4.517777  5.852413  3.984093
  N     4.273214  9.255686  3.374971
  S     3.550450  5.570964  2.601577
  S     3.528179  8.543857  2.130481
  S     6.497330  5.320767 -0.334460
  S     6.402343  8.901815 -0.742703
  S     6.192126  5.965154  3.812228
  S     5.948405  9.397320  3.345007
