16  
    
  C     6.688011  5.812034  2.137693
  C     6.716695  9.795775  2.255403
  C     5.397917  5.590094  1.568280
  C     5.475998  9.304703  1.720337
  N     7.656598  5.912578  1.251953
  N     7.670768  9.853983  1.313972
  N     5.419656  5.363935  0.280539
  N     5.441591  9.043029  0.425922
  N     5.069826  5.563823  4.119513
  N     5.118585  9.280997  4.293693
  S     4.249997  5.287564  2.727215
  S     4.248768  9.114404  2.875156
  S     6.972212  5.640852 -0.224468
  S     6.967701  9.439965 -0.148897
  S     6.654669  5.973518  3.861809
  S     6.724551  9.866423  4.008568
