16  
    
  C     9.704577  7.652799  2.863392
  C     9.928683 11.193171  2.769067
  C     8.606807  7.088629  2.111677
  C     8.649091 10.843239  2.136354
  N    10.773284  7.813379  2.127558
  N    10.932479 11.306797  1.915610
  N     8.866046  6.921744  0.810841
  N     8.717756 10.696473  0.835340
  N     7.838106  7.588456  4.487910
  N     8.149353 11.060076  4.669437
  S     7.242958  6.799515  3.167822
  S     7.301687 10.894398  3.268894
  S    10.413649  7.492050  0.573030
  S    10.292207 10.986459  0.449401
  S     9.468742  7.884035  4.556912
  S     9.807084 11.201307  4.504167
