16  
    
  C     8.039902  6.294135  2.245267
  C     8.121907 10.124765  2.243407
  C     6.787221  5.954616  1.618253
  C     6.870661  9.809125  1.620889
  N     9.022388  6.570245  1.357420
  N     9.130810 10.233442  1.377376
  N     6.829180  5.872176  0.296811
  N     6.865013  9.733584  0.292658
  N     6.171521  5.986175  4.103708
  N     6.307748  9.968546  4.105890
  S     5.470652  5.515540  2.706207
  S     5.499948  9.571809  2.659099
  S     8.366645  6.260553 -0.176885
  S     8.462075 10.000826 -0.155939
  S     7.878080  6.287332  4.022357
  S     7.872993 10.535659  3.912222
