16  
    
  C     8.520224  6.556312  2.395626
  C     8.426394 10.299616  2.390271
  C     7.276181  6.233011  1.781758
  C     7.185428  9.914873  1.772747
  N     9.485997  6.895440  1.531978
  N     9.457057 10.389846  1.564954
  N     7.311163  6.059892  0.452381
  N     7.219002  9.685843  0.445679
  N     6.828091  6.185448  4.355108
  N     6.609936 10.147125  4.294541
  S     6.030810  5.932694  2.920689
  S     5.908700  9.555924  2.902525
  S     8.797012  6.538706 -0.021558
  S     8.818255  9.837344  0.028644
  S     8.352180  6.769957  4.141045
  S     8.246073 10.550645  4.138186
