16  
    
  C    11.329792  8.501900  3.331649
  C    11.433647 12.254692  3.321989
  C    10.167079  7.873579  2.679906
  C    10.186842 11.741531  2.851519
  N    12.406390  8.630347  2.570178
  N    12.416850 12.163612  2.424081
  N    10.357229  7.489575  1.442252
  N    10.215694 11.255689  1.609049
  N     9.487008  8.308842  5.155092
  N     9.825450 12.170506  5.412996
  S     8.804668  7.845068  3.736357
  S     8.891581 11.816687  4.020423
  S    11.983387  7.872931  1.129532
  S    11.715768 11.573057  0.971630
  S    11.095870  8.793286  5.072984
  S    11.366070 12.813053  4.964115
