16  
    
  C     3.742055  4.371487  1.561431
  C     3.481649  8.541522  1.175090
  C     2.551770  3.882068  0.949143
  C     2.315257  7.908701  0.660544
  N     4.692663  4.682117  0.652250
  N     4.426837  8.746658  0.264961
  N     2.582365  3.579867 -0.338707
  N     2.279797  7.786726 -0.670076
  N     1.805795  4.144160  3.380215
  N     1.956101  8.100944  3.191002
  S     1.190655  3.477090  1.941399
  S     1.024223  7.866232  1.857145
  S     3.984009  4.320932 -0.825092
  S     3.779032  8.329483 -1.187163
  S     3.379997  4.673419  3.271351
  S     3.542359  8.491649  2.915325
