16  
    
  C     6.575545  5.866990  2.080230
  C     6.171163  9.193187  1.850244
  C     5.450464  5.241356  1.452779
  C     4.963065  8.825838  1.198624
  N     7.635258  5.999971  1.269827
  N     7.229751  9.437334  1.078023
  N     5.537431  5.081441  0.120443
  N     5.122405  8.657673 -0.111402
  N     4.639190  5.714722  3.824955
  N     4.360483  9.010304  3.646497
  S     3.993355  5.115677  2.462180
  S     3.622089  8.526800  2.273763
  S     7.063064  5.600944 -0.260905
  S     6.737924  8.994035 -0.446875
  S     6.286246  6.048350  3.809773
  S     5.924483  9.315673  3.586402
