16  
    
  C     3.985308  4.734573  1.680928
  C     3.908145  8.365174  1.636163
  C     2.724237  4.329071  1.099740
  C     2.709741  8.100216  0.932224
  N     5.067991  4.573581  0.879983
  N     5.014208  8.482294  0.910890
  N     2.824865  4.058935 -0.199578
  N     2.937292  7.776267 -0.346923
  N     2.269186  4.847719  3.563057
  N     2.034552  8.306369  3.353062
  S     1.389753  4.456557  2.197932
  S     1.301479  7.814854  1.909526
  S     4.389025  4.293538 -0.594239
  S     4.537225  7.992130 -0.610500
  S     3.874168  4.949419  3.409010
  S     3.603148  8.777922  3.319983
