16  
    
  C     3.647346  4.760261  1.560162
  C     3.851587  8.299291  1.715249
  C     2.405432  4.350148  0.907895
  C     2.557139  7.974113  1.075401
  N     4.692171  4.857235  0.743424
  N     4.856028  8.377226  0.844311
  N     2.508835  4.330517 -0.424261
  N     2.659989  7.648859 -0.209167
  N     1.982096  4.400427  3.422403
  N     2.106163  8.335023  3.559610
  S     1.038839  4.288882  2.047445
  S     1.272826  7.884566  2.220634
  S     4.140767  4.684260 -0.809961
  S     4.263093  7.883770 -0.617043
  S     3.540928  4.889036  3.240720
  S     3.712372  8.725106  3.380618
