16  
    
  C     7.494014  6.074599  2.200937
  C     7.956865  9.911024  2.257706
  C     6.328257  5.501784  1.589567
  C     6.683328  9.481968  1.722284
  N     8.464302  6.312267  1.322033
  N     8.877626  9.947949  1.276047
  N     6.367541  5.427599  0.267874
  N     6.587062  9.283591  0.412972
  N     5.725938  5.770486  4.055816
  N     6.400823  9.364798  4.221866
  S     5.024182  5.152192  2.628640
  S     5.434062  9.199428  2.856250
  S     7.791185  5.996869 -0.149968
  S     8.156731  9.629355 -0.145995
  S     7.322294  6.137081  3.892116
  S     7.864386 10.065395  3.960489
