16  
    
  C     8.797121  7.298241  2.489046
  C     9.170710 10.645566  2.149692
  C     7.586886  6.908155  1.815030
  C     7.889797 10.550150  1.493458
  N     9.750182  7.773676  1.688287
  N    10.195830 10.786063  1.337690
  N     7.671921  6.847110  0.497866
  N     7.935441 10.573368  0.169682
  N     6.953346  6.717303  4.278888
  N     7.364862 10.621692  4.011471
  S     6.347343  6.209161  2.828901
  S     6.553934 10.416969  2.591339
  S     9.211336  7.447255  0.093621
  S     9.531404 10.726551 -0.260009
  S     8.571153  7.127068  4.256226
  S     8.987296 10.892281  3.881051
