16  
    
  C    10.872484  8.124677  3.230855
  C    10.627358 12.034113  3.189791
  C     9.667795  7.621183  2.627099
  C     9.516483 11.282791  2.711578
  N    11.861943  8.288289  2.347248
  N    11.529291 12.383382  2.262942
  N     9.714954  7.426050  1.322777
  N     9.479545 10.997718  1.397603
  N     9.207123  7.707541  5.187646
  N     9.076288 11.701357  5.251596
  S     8.440044  7.267403  3.721263
  S     8.308677 10.989471  3.975171
  S    11.266919  7.832324  0.821079
  S    10.917772 11.757715  0.827120
  S    10.783839  8.217710  4.973653
  S    10.690445 12.061280  4.940792
