16  
    
  C    11.797729  8.598774  3.210066
  C    11.355727 12.178397  3.445203
  C    10.517407  8.249230  2.587500
  C    10.215796 11.711349  2.711408
  N    12.759160  8.793339  2.317633
  N    12.376829 12.513065  2.652497
  N    10.504627  8.255971  1.254564
  N    10.389247 11.477397  1.398373
  N    10.255347  8.026433  5.169106
  N     9.545260 11.594981  5.280356
  S     9.364385  7.789631  3.724495
  S     8.896549 11.220287  3.727057
  S    12.101036  8.611205  0.814423
  S    11.908767 12.088164  1.042204
  S    11.800170  8.570474  4.952283
  S    11.142146 12.304792  5.172838
