16  
    
  C    10.975567  7.897102  3.051813
  C    10.949091 11.750993  2.734478
  C     9.733184  7.358837  2.600354
  C     9.777538 11.172748  2.147388
  N    11.847783  8.203625  2.064848
  N    11.969926 11.821481  1.883410
  N     9.695739  7.249965  1.275143
  N     9.860939 10.945994  0.839145
  N     9.496800  7.523668  5.104428
  N     9.333919 11.206972  4.693783
  S     8.518991  7.082576  3.814667
  S     8.432938 11.020079  3.254851
  S    11.148080  7.705944  0.696688
  S    11.330487 11.425690  0.383952
  S    11.009873  8.116874  4.785101
  S    10.890506 11.913552  4.464945
