16  
    
  C    10.957765  7.774840  3.096958
  C    11.047381 11.666633  2.758002
  C     9.727630  7.333027  2.523203
  C     9.796937 11.206281  2.139683
  N    11.903997  8.059697  2.213137
  N    11.979004 11.884145  1.856195
  N     9.648216  7.248832  1.201032
  N     9.864868 10.881886  0.864322
  N     9.351876  7.546608  5.160261
  N     9.438393 11.260564  4.649480
  S     8.493721  7.118551  3.764361
  S     8.540018 11.038057  3.290434
  S    11.176120  7.747317  0.679191
  S    11.434385 11.395265  0.385938
  S    11.007672  7.953180  4.843137
  S    10.901564 11.992452  4.483360
