16  
    
  C    11.307731  8.074392  3.347567
  C    11.377299 11.999285  3.263186
  C    10.092979  7.767949  2.651249
  C    10.049276 11.676876  2.769625
  N    12.380303  8.137709  2.556968
  N    12.324708 11.813276  2.334254
  N    10.277140  7.642523  1.349080
  N     9.996180 11.304857  1.476050
  N     9.472642  8.398171  5.091696
  N     9.853769 12.210322  5.271749
  S     8.764320  7.726414  3.731247
  S     8.831192 11.780282  4.091276
  S    11.865147  7.827601  1.044709
  S    11.570169 11.431741  0.953041
  S    11.095685  8.534851  5.024631
  S    11.446682 12.262575  5.016882
