16  
    
  C     4.043368  4.582004  1.766387
  C     3.857089  8.460199  1.701134
  C     2.761085  4.377080  1.169477
  C     2.684364  7.957292  0.966273
  N     5.010315  4.647427  0.836922
  N     4.965138  8.408861  0.950803
  N     2.712410  4.060131 -0.101807
  N     2.879743  7.805544 -0.348750
  N     2.115519  4.801277  3.539448
  N     1.957140  8.260395  3.387548
  S     1.340471  4.534207  2.108824
  S     1.276813  7.819859  1.929923
  S     4.287982  4.215814 -0.641642
  S     4.517370  7.969609 -0.563190
  S     3.861014  4.960927  3.445293
  S     3.562502  8.830445  3.339851
