16  
    
  C     6.612481  5.732267  2.096471
  C     6.497192  9.443037  1.885670
  C     5.348593  5.392806  1.432019
  C     5.328674  8.863318  1.215356
  N     7.600954  5.977892  1.241050
  N     7.559336  9.700349  1.132431
  N     5.419532  5.207908  0.100986
  N     5.489095  8.813285 -0.118969
  N     4.818120  5.774687  3.968399
  N     4.680591  9.096718  3.744803
  S     4.074456  5.211843  2.614382
  S     4.069255  8.476229  2.313838
  S     7.017024  5.611662 -0.257919
  S     7.062085  9.226449 -0.389486
  S     6.466997  6.075459  3.769294
  S     6.346120  9.508627  3.583762
