16  
    
  C    12.756035  8.870879  3.841688
  C    12.603352 12.695162  3.830371
  C    11.527672  8.410977  3.240205
  C    11.500771 12.134257  3.112642
  N    13.737230  9.228026  2.983329
  N    13.735478 12.878809  3.134580
  N    11.584962  8.398765  1.904207
  N    11.730780 12.111685  1.794641
  N    11.123608  8.523056  5.772246
  N    10.817849 12.372737  5.611213
  S    10.216880  8.057051  4.464093
  S    10.144255 11.832104  4.160872
  S    13.076527  8.963186  1.524006
  S    13.307267 12.523668  1.535546
  S    12.638862  9.173862  5.506021
  S    12.492641 12.662726  5.564350
