16  
    
  C     8.366936  6.682996  2.495660
  C     8.807876 10.362668  2.838058
  C     7.244595  6.258921  1.742133
  C     7.606680 10.050586  2.135918
  N     9.426085  6.989411  1.759460
  N     9.852645 10.496002  2.023483
  N     7.518807  6.024495  0.458377
  N     7.686828  9.858379  0.829791
  N     6.500879  6.294688  4.247061
  N     7.016284 10.299036  4.644671
  S     5.823038  5.907513  2.771319
  S     6.247115  9.939519  3.229979
  S     9.055553  6.552540  0.209047
  S     9.279514 10.213135  0.421286
  S     8.051208  6.886966  4.200177
  S     8.681330 10.518647  4.558625
