16  
    
  C    12.389847  8.995023  3.751638
  C    12.611586 12.772891  3.589892
  C    11.193020  8.425263  3.125344
  C    11.355241 12.456358  2.923135
  N    13.352287  9.393161  2.932401
  N    13.622168 12.817470  2.724707
  N    11.286035  8.255395  1.815795
  N    11.417597 12.452775  1.581716
  N    10.550783  8.582441  5.637172
  N    10.885247 12.494036  5.431537
  S     9.927919  7.992179  4.207333
  S     9.975627 12.244435  4.048052
  S    12.822783  8.893144  1.417747
  S    12.982922 12.741723  1.182388
  S    12.117112  9.270614  5.515318
  S    12.483310 12.953145  5.302676
