16  
    
  C     9.261884  6.841688  2.394023
  C     9.096540 11.034067  2.941399
  C     8.013355  6.508447  1.769772
  C     7.891137 10.548863  2.347740
  N    10.287427  6.826312  1.515585
  N    10.095548 11.185506  2.084065
  N     8.086759  6.098782  0.501513
  N     7.989687 10.206970  1.040737
  N     7.387994  6.874612  4.194843
  N     7.378529 10.814573  4.812223
  S     6.626685  6.323697  2.822078
  S     6.561305 10.351662  3.439824
  S     9.604453  6.344739  0.069195
  S     9.490446 10.660596  0.632210
  S     9.017537  7.301352  4.051566
  S     8.918093 11.375966  4.625945
