16  
    
  C    10.033380  7.752543  2.667963
  C    10.563874 11.513570  3.062388
  C     9.011703  6.993709  2.031497
  C     9.446571 11.152485  2.251039
  N    11.049610  8.067445  1.846536
  N    11.703975 11.545326  2.381544
  N     9.189802  6.680886  0.725705
  N     9.701412 10.999212  0.951287
  N     8.192361  7.652059  4.435165
  N     8.568354 11.404262  4.632253
  S     7.604303  6.815683  3.106418
  S     7.909158 11.318381  3.122799
  S    10.714585  7.375539  0.359949
  S    11.284911 11.271552  0.741218
  S     9.841769  8.153186  4.333963
  S    10.228056 11.574131  4.757744
