16  
    
  C    10.994680  8.085393  3.067114
  C    11.544693 11.775809  3.197820
  C     9.824058  7.465363  2.628387
  C    10.362208 11.411410  2.437087
  N    11.920090  8.239762  2.154609
  N    12.636294 11.737714  2.427519
  N     9.871353  7.118880  1.353060
  N    10.536492 11.241687  1.119936
  N     9.438692  8.059394  5.084057
  N     9.585985 11.424621  4.939196
  S     8.635295  7.367096  3.848241
  S     8.918914 11.222224  3.392836
  S    11.309365  7.634000  0.785895
  S    12.148281 11.414792  0.909310
  S    11.017220  8.457263  4.793976
  S    11.224575 11.916277  4.887457
