16  
    
  C     9.655967  7.474219  2.537394
  C    10.256112 11.407333  2.522688
  C     8.556654  6.696849  2.072031
  C     9.041943 10.909810  1.963672
  N    10.626444  7.718753  1.668428
  N    11.285473 11.595110  1.680589
  N     8.690438  6.321199  0.805327
  N     9.137002 10.660406  0.655988
  N     7.898332  7.479141  4.421038
  N     8.627159 11.142545  4.502614
  S     7.270190  6.542125  3.166347
  S     7.753316 10.779143  3.113041
  S    10.086321  7.050801  0.249380
  S    10.667035 11.071709  0.166896
  S     9.490369  7.927043  4.276660
  S    10.207911 11.568175  4.259671
