16  
    
  C     5.804173  5.416794  1.797362
  C     5.895387  8.945161  2.114392
  C     4.521882  5.222089  1.118816
  C     4.671157  8.593538  1.399925
  N     6.823874  5.503177  0.929658
  N     7.013910  8.995124  1.371683
  N     4.614537  4.883966 -0.156813
  N     4.847126  8.559655  0.065787
  N     3.982654  5.474482  3.625013
  N     4.163443  8.748452  4.014607
  S     3.203244  5.032475  2.238763
  S     3.377276  8.529597  2.535232
  S     6.247562  4.988691 -0.536038
  S     6.444960  8.734919 -0.188965
  S     5.747503  5.684926  3.529984
  S     5.779153  9.061725  3.862376
