16  
    
  C    12.907433  9.250227  3.429310
  C    12.941990 12.881278  3.516754
  C    11.798290  8.513621  2.849251
  C    11.664246 12.506811  2.889843
  N    13.910058  9.469421  2.606548
  N    13.943395 12.944149  2.644691
  N    11.912112  8.295721  1.537706
  N    11.790079 12.077429  1.610519
  N    10.954924  9.163332  5.248829
  N    11.168555 13.094131  5.377856
  S    10.347428  8.438347  3.909701
  S    10.286255 12.530854  4.003643
  S    13.442015  8.840048  1.077349
  S    13.359247 12.447630  1.174953
  S    12.595199  9.572047  5.128904
  S    12.855572 13.413182  5.168105
