16  
    
  C     6.892952  6.014701  1.594907
  C     7.289923  9.906884  2.463792
  C     5.831680  5.093040  1.159920
  C     6.006322  9.541847  1.916343
  N     7.909061  6.156088  0.733550
  N     8.332074  9.868394  1.617522
  N     5.956224  4.687759 -0.096877
  N     6.086938  9.178043  0.644326
  N     5.177599  5.826515  3.568315
  N     5.557077  9.869005  4.473032
  S     4.506510  4.933655  2.268998
  S     4.687134  9.533863  3.026769
  S     7.383947  5.347611 -0.658422
  S     7.589871  9.400318  0.120911
  S     6.727019  6.418574  3.343576
  S     7.178275 10.286949  4.222027
