16  
    
  C     4.896127  4.799709  1.633174
  C     4.850474  8.730525  1.764218
  C     3.582511  4.478226  1.154636
  C     3.498422  8.408746  1.265519
  N     5.810703  4.925688  0.685502
  N     5.708194  9.040619  0.781329
  N     3.461318  4.632342 -0.181642
  N     3.406910  8.237422 -0.053396
  N     3.537344  4.604974  3.806550
  N     3.240480  8.666211  3.871751
  S     2.456998  4.427932  2.529585
  S     2.312506  8.288195  2.494140
  S     5.053061  4.791315 -0.729776
  S     4.924173  8.712551 -0.655241
  S     5.129166  4.813328  3.332112
  S     4.850271  8.943013  3.513543
