16  
    
  C     7.556246  6.034536  2.179979
  C     7.932122  9.866716  2.257845
  C     6.336291  5.481063  1.576000
  C     6.681277  9.435354  1.687995
  N     8.476687  6.429078  1.306632
  N     8.917113 10.045952  1.356511
  N     6.387326  5.367777  0.259523
  N     6.688113  9.311762  0.357219
  N     5.789086  5.784411  4.049280
  N     6.337450  9.502341  4.275286
  S     5.044509  5.175807  2.696644
  S     5.490594  9.117737  2.916819
  S     7.882295  6.022523 -0.231316
  S     8.155680  9.709971 -0.155146
  S     7.414560  6.189126  3.953844
  S     7.873141 10.147135  3.996410
