16  
    
  C     9.299072  6.614963  2.511495
  C     9.643025 10.634358  2.796138
  C     8.058480  6.310730  1.817554
  C     8.336148 10.227767  2.254560
  N    10.316815  6.847106  1.690434
  N    10.611279 10.746057  1.917703
  N     8.158892  6.204728  0.505071
  N     8.392119 10.023895  0.931661
  N     7.391383  6.372662  4.260278
  N     7.975710 10.497727  4.778387
  S     6.745133  6.033449  2.778321
  S     7.086499 10.060848  3.408523
  S     9.716495  6.694709  0.141948
  S     9.936990 10.378312  0.432089
  S     9.023883  6.802066  4.233550
  S     9.569899 10.931765  4.477545
