16  
    
  C    10.318075  7.626518  2.611412
  C    10.530026 11.371315  2.814507
  C     9.061291  7.276510  2.016831
  C     9.298085 11.327052  2.027065
  N    11.281900  7.652545  1.729279
  N    11.633134 11.252862  2.106393
  N     9.084238  7.109866  0.706727
  N     9.459686 11.146456  0.716003
  N     8.598160  7.735116  4.532495
  N     8.565071 11.303939  4.511601
  S     7.755593  7.164820  3.155959
  S     7.832833 11.447917  3.030306
  S    10.683885  7.229765  0.262257
  S    11.144808 11.131466  0.519480
  S    10.244992  7.996497  4.344851
  S    10.242403 11.640077  4.524251
