16  
    
  C     5.979904  4.826077  1.778830
  C     5.846891  9.179777  1.959022
  C     4.815303  4.495737  1.018337
  C     4.690904  8.630937  1.356399
  N     7.071419  4.935485  1.033403
  N     6.893137  9.325991  1.158372
  N     5.037653  4.421219 -0.291107
  N     4.776091  8.468243  0.022940
  N     3.965577  4.903028  3.393092
  N     4.122412  8.943366  3.826798
  S     3.343979  4.247190  1.986503
  S     3.390173  8.388755  2.522506
  S     6.614664  4.826666 -0.557974
  S     6.316382  8.943665 -0.328144
  S     5.575563  5.060346  3.537323
  S     5.646892  9.579431  3.628741
