16  
    
  C    12.216502  9.256698  3.567700
  C    12.474463 12.759880  3.471544
  C    11.209888  8.457291  2.808075
  C    11.161965 12.351527  2.929972
  N    13.192071  9.702390  2.815630
  N    13.448715 12.960553  2.577962
  N    11.451205  8.432507  1.505122
  N    11.274423 12.014365  1.637292
  N    10.658350  8.391839  5.365714
  N    10.871740 12.602555  5.506334
  S     9.936584  7.911526  3.898196
  S     9.940708 12.195143  4.172529
  S    12.976820  9.196082  1.257317
  S    12.805574 12.559879  1.142695
  S    12.091257  9.191686  5.305496
  S    12.519318 12.968543  5.181257
