16  
    
  C    12.705675  9.127426  3.352419
  C    12.664224 12.951657  3.451375
  C    11.447272  8.767597  2.762517
  C    11.560295 12.289253  2.783295
  N    13.742681  9.246352  2.540854
  N    13.802577 13.069739  2.764996
  N    11.560809  8.605858  1.437112
  N    11.813466 12.135653  1.481978
  N    11.151569  8.893377  5.308181
  N    10.818357 12.513249  5.262569
  S    10.187337  8.508998  4.033875
  S    10.150952 12.032021  3.811410
  S    13.192240  8.751267  0.999551
  S    13.393840 12.708051  1.235667
  S    12.604545  9.492529  5.033038
  S    12.353167 13.222945  5.191949
