16  
    
  C    11.001996  7.866917  3.133250
  C    11.512067 11.983890  3.020559
  C     9.742057  7.494269  2.411481
  C    10.425411 11.256070  2.453588
  N    12.116242  7.986347  2.406006
  N    12.543661 12.078990  2.182385
  N     9.977577  7.368895  1.101981
  N    10.554690 10.868551  1.184055
  N     9.046542  7.866484  4.821931
  N     9.749398 11.519981  4.986548
  S     8.319021  7.355710  3.397184
  S     9.118044 10.884239  3.535730
  S    11.604557  7.585830  0.815204
  S    12.097721 11.407711  0.741933
  S    10.684036  8.091007  4.830787
  S    11.308004 12.237286  4.779500
