16  
    
  C     6.740601  5.794142  2.117101
  C     6.732169  9.724125  2.194817
  C     5.452784  5.623097  1.540550
  C     5.469999  9.254055  1.715338
  N     7.713839  5.895941  1.211359
  N     7.651580  9.832175  1.247745
  N     5.424202  5.371506  0.226502
  N     5.417770  9.031896  0.406984
  N     5.015255  5.589761  4.060706
  N     5.178937  9.279317  4.210691
  S     4.198230  5.312465  2.673718
  S     4.192801  9.100685  2.836031
  S     6.968572  5.612783 -0.254813
  S     6.938138  9.406112 -0.154973
  S     6.656412  5.969971  3.816359
  S     6.718004  9.854526  4.005701
