16  
    
  C     6.575050  5.797477  1.905485
  C     6.625486  9.588421  1.908506
  C     5.322238  5.426399  1.358160
  C     5.376403  9.230853  1.318064
  N     7.564325  5.821302  1.021793
  N     7.625628  9.704739  1.038332
  N     5.285949  5.319673  0.033056
  N     5.384805  8.915120  0.023451
  N     4.965459  5.816361  3.906176
  N     4.995213  9.236340  3.839676
  S     4.120812  5.454193  2.552802
  S     4.152401  8.951351  2.522018
  S     6.891443  5.497937 -0.450401
  S     6.931818  9.237368 -0.470987
  S     6.593352  5.985482  3.638769
  S     6.549259  9.725301  3.653463
