16  
    
  C     5.146463  5.369775  1.818222
  C     5.123404  8.814797  1.335786
  C     3.860222  5.048510  1.307057
  C     3.847155  8.286103  0.832205
  N     6.148434  5.341869  0.931840
  N     6.101473  8.902545  0.439682
  N     3.919704  4.528996  0.071297
  N     3.828923  8.060538 -0.472621
  N     3.518143  5.590750  3.770363
  N     3.476492  8.911926  3.305926
  S     2.557890  5.279652  2.483857
  S     2.585240  8.333954  2.013156
  S     5.465808  4.825635 -0.463396
  S     5.371981  8.443426 -0.996223
  S     5.154811  5.885400  3.470837
  S     5.082327  9.116463  3.027815
