16  
    
  C     9.575621  7.344671  2.903298
  C     9.707230 10.965310  2.792791
  C     8.469902  6.827574  2.098249
  C     8.443741 10.455840  2.160661
  N    10.683684  7.628873  2.255686
  N    10.681230 11.168326  1.945382
  N     8.751610  6.789506  0.802058
  N     8.514270 10.402536  0.843058
  N     7.796182  6.719496  4.662044
  N     7.912061 10.724367  4.644921
  S     7.147530  6.312477  3.144333
  S     7.125616 10.236368  3.249667
  S    10.321731  7.404601  0.639403
  S    10.068768 10.903072  0.434621
  S     9.288442  7.453535  4.621722
  S     9.526035 11.074905  4.511520
