16  
    
  C     9.175313  6.769437  2.349224
  C     9.151968 10.825252  3.004972
  C     7.970689  6.252512  1.784486
  C     7.903348 10.426374  2.415965
  N    10.254581  6.781608  1.577263
  N    10.157550 10.884136  2.126116
  N     8.197887  5.736069  0.579547
  N     7.979523  9.978766  1.160801
  N     7.420985  7.014396  4.166270
  N     7.393114 10.989005  4.829060
  S     6.596573  6.321830  2.893684
  S     6.563867 10.570947  3.459552
  S     9.806114  6.087184  0.197343
  S     9.597321 10.371464  0.696100
  S     9.094611  7.235234  3.991640
  S     9.019382 11.169328  4.704840
