16  
    
  C    10.728428  8.351401  2.992750
  C    10.775174 11.786264  3.087466
  C     9.533188  7.855482  2.374127
  C     9.561674 11.393743  2.314368
  N    11.723339  8.467149  2.141976
  N    11.864077 12.027122  2.355016
  N     9.610025  7.545890  1.104874
  N     9.829419 11.126795  1.028647
  N     9.009005  7.989630  4.811143
  N     8.872127 11.751781  4.791568
  S     8.188734  7.706479  3.437763
  S     8.181740 11.310493  3.315284
  S    11.176073  8.048181  0.624415
  S    11.471937 11.521445  0.830644
  S    10.571445  8.548583  4.739332
  S    10.481934 12.126767  4.784385
