16  
    
  C     9.263031  6.617782  2.397585
  C     9.336612 10.546311  2.848141
  C     8.108611  6.193700  1.648624
  C     8.091149 10.381002  2.140872
  N    10.386811  6.614611  1.705827
  N    10.401165 10.317249  2.116410
  N     8.312414  6.082120  0.321900
  N     8.240940 10.073924  0.845584
  N     7.368166  6.875138  4.092406
  N     7.477481 10.903010  4.592914
  S     6.684544  6.195921  2.754658
  S     6.691313 10.734984  3.160901
  S     9.947874  6.311228  0.121092
  S     9.821415  9.911994  0.571369
  S     9.026907  7.044403  4.058627
  S     9.126448 11.014144  4.520146
