16  
    
  C     5.514140  5.314437  1.789238
  C     5.075310  9.059459  1.657083
  C     4.216081  5.124125  1.227958
  C     3.901771  8.566894  1.028776
  N     6.457304  5.478269  0.855472
  N     6.157541  9.235279  0.880440
  N     4.179462  5.029076 -0.093245
  N     4.059971  8.336417 -0.268358
  N     3.777183  5.311009  3.688862
  N     3.356627  8.737105  3.545274
  S     2.890613  5.204208  2.335328
  S     2.577259  8.287507  2.142135
  S     5.735884  5.202551 -0.603851
  S     5.587168  8.737591 -0.597633
  S     5.453971  5.394347  3.597321
  S     4.980051  9.013480  3.368123
