16  
    
  C    12.191866  9.185498  3.564985
  C    12.477776 12.858238  3.491543
  C    11.218363  8.448845  2.883826
  C    11.272082 12.335159  2.931122
  N    13.211647  9.672253  2.850440
  N    13.438623 13.002349  2.608384
  N    11.510339  8.421978  1.570141
  N    11.272679 12.125348  1.615586
  N    10.628279  8.383333  5.468307
  N    10.847011 12.663714  5.501379
  S     9.925011  7.912349  3.934406
  S     9.934147 12.206529  4.173547
  S    12.929075  9.175363  1.309650
  S    12.855597 12.552438  1.111224
  S    12.116958  9.208423  5.286002
  S    12.523614 12.920470  5.218046
