16  
    
  C    12.047746  8.552896  3.286062
  C    12.092169 12.166021  3.228365
  C    10.740160  8.333884  2.718942
  C    10.863855 11.693137  2.614896
  N    12.995321  8.696725  2.318173
  N    13.095087 12.224188  2.373524
  N    10.709229  8.228596  1.385618
  N    10.892956 11.519066  1.312991
  N    10.405946  8.474238  5.342280
  N    10.251264 11.940932  5.121744
  S     9.488744  8.093028  3.911378
  S     9.545458 11.563790  3.643212
  S    12.292499  8.369002  0.884912
  S    12.427359 11.930879  0.884902
  S    12.011578  8.685224  5.010629
  S    11.912507 12.389963  4.940924
