16  
    
  C     6.578537  5.870858  2.126166
  C     6.398457  9.191758  1.936490
  C     5.470550  5.341451  1.430820
  C     5.243945  8.737198  1.262768
  N     7.613123  6.133128  1.355605
  N     7.406364  9.536396  1.139991
  N     5.652410  5.143026  0.139031
  N     5.375478  8.669183 -0.045544
  N     4.870212  5.394844  3.943811
  N     4.489385  8.899702  3.685609
  S     4.091942  5.126534  2.476093
  S     3.827445  8.585766  2.206713
  S     7.186845  5.627596 -0.181294
  S     6.920808  9.177677 -0.393586
  S     6.331299  6.062317  3.822272
  S     6.061028  9.430569  3.647697
