16  
    
  C     4.886333  4.926775  1.816448
  C     4.691308  8.854197  1.741105
  C     3.631005  4.550998  1.268915
  C     3.371757  8.540443  1.179904
  N     5.864113  4.923469  0.892318
  N     5.554845  9.273691  0.818670
  N     3.546391  4.491511 -0.051007
  N     3.359516  8.497623 -0.151668
  N     3.195221  4.511045  3.765771
  N     3.164475  8.443580  3.766738
  S     2.358334  4.445709  2.339547
  S     2.193367  8.156817  2.378464
  S     5.109009  4.724618 -0.556861
  S     4.895806  8.970738 -0.623763
  S     4.805029  4.909426  3.592360
  S     4.793625  8.847559  3.457779
