16  
    
  C    11.339540  8.443189  3.364225
  C    11.421089 12.252288  3.310435
  C    10.197455  7.902733  2.721940
  C    10.148209 11.687175  2.849033
  N    12.389251  8.570512  2.552899
  N    12.399667 12.046203  2.450025
  N    10.355767  7.501124  1.445066
  N    10.110235 11.259605  1.602597
  N     9.489448  8.287243  5.125023
  N     9.909701 12.090859  5.329523
  S     8.804675  7.852088  3.721311
  S     8.931127 11.844067  4.042283
  S    11.988159  7.843514  1.103038
  S    11.630122 11.528106  0.979206
  S    11.070620  8.721970  5.076674
  S    11.380115 12.792814  5.008760
