16  
    
  C     9.519803  7.245255  3.019630
  C     9.579571 10.934797  2.684341
  C     8.456821  6.619964  2.224807
  C     8.343652 10.426829  2.024017
  N    10.529095  7.615901  2.248769
  N    10.574570 11.119050  1.811843
  N     8.635057  6.586378  0.894602
  N     8.439747 10.359724  0.700501
  N     7.686181  6.505725  4.700128
  N     7.920858 10.481355  4.584012
  S     7.122098  6.066279  3.225523
  S     7.064615 10.167978  3.215272
  S    10.100213  7.291699  0.652695
  S     9.957987 10.792615  0.258751
  S     9.246187  7.113066  4.773000
  S     9.493258 10.931636  4.390747
