16  
    
  C     9.202960  6.755324  2.381628
  C     9.139005 10.839333  2.991838
  C     7.969402  6.284798  1.743331
  C     7.910132 10.353209  2.393747
  N    10.243189  6.829271  1.556549
  N    10.141556 10.987706  2.136289
  N     8.184785  5.794444  0.503942
  N     8.036361 10.037460  1.108980
  N     7.401439  7.058409  4.169666
  N     7.356639 10.947606  4.896679
  S     6.632770  6.309426  2.923623
  S     6.561189 10.534378  3.492012
  S     9.750835  6.109880  0.144260
  S     9.550934 10.455863  0.656335
  S     9.060530  7.253387  4.046520
  S     9.004033 11.243864  4.724259
