16  
    
  C     9.280226  6.808488  2.358517
  C     9.461596 10.567688  2.762468
  C     8.124569  6.311624  1.685030
  C     8.189970 10.305992  2.168670
  N    10.386933  6.878714  1.615631
  N    10.525782 10.409031  2.014497
  N     8.294388  6.093338  0.393200
  N     8.294720 10.007669  0.872870
  N     7.401114  6.535676  4.112985
  N     7.677543 10.895670  4.593434
  S     6.741732  6.189677  2.655841
  S     6.828433 10.572663  3.219096
  S     9.846937  6.435617  0.099135
  S     9.881672 10.031414  0.535575
  S     9.047533  6.791900  4.120152
  S     9.346375 10.897214  4.478792
