16  
    
  C    10.697719  8.323366  3.092535
  C    10.778618 11.800265  3.122849
  C     9.499641  7.751055  2.503131
  C     9.619981 11.307112  2.437629
  N    11.688963  8.557040  2.222467
  N    11.907516 11.952554  2.401918
  N     9.630090  7.567682  1.173739
  N     9.881205 11.098955  1.149994
  N     9.025829  7.971594  5.004345
  N     8.808431 11.715690  4.903727
  S     8.199831  7.680488  3.643130
  S     8.159186 11.327722  3.406583
  S    11.195667  8.047284  0.775841
  S    11.387832 11.578898  0.834940
  S    10.506894  8.736126  4.745404
  S    10.421428 12.069215  4.811884
