16  
    
  C     5.790077  5.003791  1.842846
  C     5.729763  9.381661  1.975552
  C     4.638153  4.583129  1.114749
  C     4.619624  8.635208  1.481323
  N     6.893791  5.199301  1.143888
  N     6.719985  9.574068  1.090840
  N     4.938971  4.311820 -0.152355
  N     4.679875  8.360288  0.193637
  N     3.927833  4.725383  3.582630
  N     4.153689  8.810746  3.940712
  S     3.248866  4.293983  2.153275
  S     3.330808  8.275513  2.595861
  S     6.523250  4.728139 -0.380931
  S     6.168401  8.970260 -0.355924
  S     5.527390  5.241648  3.539647
  S     5.581383  9.529985  3.724860
