16  
    
  C     8.870149  7.206971  2.425894
  C     9.160819 10.824868  2.249966
  C     7.630792  6.918841  1.700226
  C     7.858477 10.620875  1.617527
  N     9.914348  7.549634  1.674635
  N    10.202426 10.836754  1.412035
  N     7.824156  6.927987  0.375605
  N     7.949733 10.458953  0.312000
  N     7.088394  6.606754  4.143007
  N     7.454672 10.704214  4.143123
  S     6.358558  6.311105  2.686566
  S     6.574253 10.431086  2.739910
  S     9.417785  7.405274  0.100857
  S     9.574273 10.619543 -0.132600
  S     8.664585  7.151910  4.117075
  S     9.103103 10.848067  3.967000
