16  
    
  C     5.998228  5.535853  2.178305
  C     5.936753  9.218082  1.539482
  C     4.705271  5.543424  1.540842
  C     4.738803  8.733456  0.933117
  N     6.992025  5.546764  1.279559
  N     7.002305  9.237736  0.749637
  N     4.738689  5.339556  0.214671
  N     4.910404  8.497899 -0.361842
  N     4.246735  5.810307  4.081173
  N     4.242285  9.031391  3.477297
  S     3.358630  5.736865  2.673179
  S     3.400052  8.779194  2.009664
  S     6.327517  5.300343 -0.223596
  S     6.551320  8.832656 -0.744480
  S     6.003721  5.867920  3.914183
  S     5.813300  9.513978  3.256027
