16  
    
  C     9.973355  7.732668  2.982984
  C    10.556322 11.681119  3.005481
  C     8.777236  7.310058  2.271524
  C     9.315817 11.074660  2.573796
  N    11.093084  7.936369  2.258512
  N    11.417277 11.948462  2.014728
  N     9.037938  7.142939  0.961488
  N     9.390060 10.713875  1.293937
  N     8.284567  7.004139  4.734653
  N     9.053432 11.389531  5.118382
  S     7.475325  6.842519  3.288043
  S     8.171494 10.861132  3.808362
  S    10.623755  7.650541  0.700731
  S    10.805955 11.181583  0.654214
  S     9.805941  7.544650  4.696849
  S    10.603905 12.002084  4.727287
