16  
    
  C     8.719597  7.295024  2.524864
  C     9.142870 10.724777  2.125694
  C     7.556996  6.741372  1.844520
  C     7.843551 10.490784  1.477279
  N     9.672920  7.718997  1.682709
  N    10.148603 10.824057  1.276000
  N     7.720710  6.771604  0.528405
  N     7.917418 10.547928  0.151168
  N     7.015229  6.692405  4.392832
  N     7.329698 10.549438  4.002153
  S     6.256411  6.225172  2.945502
  S     6.492040 10.403916  2.556171
  S     9.158315  7.474776  0.155287
  S     9.581465 10.814309 -0.233748
  S     8.565122  7.189461  4.240163
  S     8.968764 10.912819  3.832189
