16  
    
  C     9.325225  6.748184  2.402023
  C     9.208462 10.700329  2.920843
  C     8.113669  6.281833  1.781188
  C     7.953665 10.478299  2.236569
  N    10.401325  6.639349  1.620985
  N    10.282936 10.506195  2.148600
  N     8.232458  5.922389  0.509182
  N     8.081441 10.056123  1.004516
  N     7.360471  6.902038  4.153496
  N     7.410187 10.779127  4.728121
  S     6.698326  6.274543  2.744485
  S     6.605540 10.732114  3.309619
  S     9.861031  6.017229  0.122862
  S     9.739571  9.987705  0.655954
  S     8.977892  7.217813  4.129819
  S     9.038153 11.105735  4.630625
