16  
    
  C    12.388494  9.002112  3.762362
  C    12.599800 12.834804  3.545431
  C    11.201168  8.372157  3.232083
  C    11.338374 12.506321  2.882797
  N    13.361058  9.126788  2.866578
  N    13.559526 13.011504  2.658853
  N    11.297065  8.144325  1.927828
  N    11.417822 12.193044  1.591145
  N    10.596372  8.845368  5.611439
  N    10.823443 12.516545  5.397257
  S     9.859986  8.319485  4.304665
  S     9.978414 12.189809  3.917574
  S    12.776932  8.513027  1.427038
  S    12.963764 12.578426  1.125209
  S    12.186846  9.278970  5.517138
  S    12.481671 12.818822  5.290950
