16  
    
  C    11.378488  8.384522  3.360443
  C    11.429487 12.095605  3.301970
  C    10.186507  7.889814  2.706384
  C    10.120314 11.717073  2.846245
  N    12.430702  8.438976  2.559399
  N    12.349243 12.012878  2.343306
  N    10.418782  7.530231  1.465455
  N    10.029109 11.313811  1.572300
  N     9.466256  8.307065  5.168339
  N     9.934509 12.057985  5.330400
  S     8.752149  7.826572  3.684904
  S     8.935727 11.851362  4.066270
  S    11.949302  7.841084  1.087567
  S    11.578794 11.470533  1.042981
  S    11.087124  8.658926  5.063341
  S    11.399075 12.706921  5.000237
