16  
    
  C     3.803070  4.643717  1.585243
  C     3.815106  8.484513  1.666534
  C     2.513982  4.556636  0.948405
  C     2.584595  7.861205  1.106927
  N     4.785761  4.704566  0.665306
  N     4.892889  8.440843  0.859402
  N     2.539064  4.366097 -0.378600
  N     2.749235  7.538503 -0.183057
  N     1.896936  4.620801  3.497897
  N     2.009123  8.411095  3.598297
  S     1.161968  4.372577  1.984282
  S     1.220421  7.915802  2.176049
  S     4.044726  4.602159 -0.871584
  S     4.318333  7.823380 -0.612762
  S     3.514509  4.905859  3.371656
  S     3.611100  8.750663  3.372679
