16  
    
  C     5.809992  5.593945  2.143157
  C     5.897498  9.083357  1.805479
  C     4.551732  5.367067  1.518500
  C     4.696998  8.887054  1.079095
  N     6.887139  5.464305  1.350715
  N     6.984633  9.045562  1.035194
  N     4.699664  5.306865  0.197695
  N     4.859732  8.649810 -0.210592
  N     4.021620  5.836011  3.948337
  N     4.036221  9.264472  3.499628
  S     3.159127  5.594922  2.593131
  S     3.268119  8.796371  2.102059
  S     6.311412  5.288406 -0.189058
  S     6.503437  8.803896 -0.498404
  S     5.711884  5.842215  3.860447
  S     5.615825  9.391811  3.468468
