16  
    
  C     6.280966  5.744361  2.026335
  C     6.054484  9.119263  1.646303
  C     4.988868  5.408879  1.435166
  C     4.796076  8.738938  1.010039
  N     7.274091  5.724956  1.147320
  N     7.036674  9.302415  0.794854
  N     4.964020  5.189405  0.112355
  N     4.877097  8.557076 -0.317666
  N     4.547352  5.750405  3.965616
  N     4.341035  9.137336  3.553000
  S     3.741712  5.493005  2.594951
  S     3.522461  8.539611  2.182416
  S     6.577858  5.319800 -0.312834
  S     6.454323  8.914600 -0.724124
  S     6.173334  6.035945  3.774591
  S     5.947473  9.414339  3.365899
