16  
    
  C    10.991805  7.816966  3.079710
  C    10.984994 11.692813  2.753274
  C     9.715028  7.315476  2.541889
  C     9.756571 11.195804  2.144912
  N    11.879625  8.125334  2.153921
  N    11.956924 11.844835  1.888578
  N     9.651033  7.256918  1.215609
  N     9.869314 10.893872  0.877288
  N     9.378686  7.522163  5.171199
  N     9.409737 11.217276  4.655533
  S     8.494999  7.106368  3.781755
  S     8.515033 11.041499  3.252468
  S    11.164384  7.727570  0.686832
  S    11.391300 11.409575  0.366035
  S    11.026997  8.019511  4.825354
  S    10.904721 11.975313  4.489227
