16  
    
  C     6.745463  5.893765  2.371280
  C     6.975850  9.727848  2.341098
  C     5.551168  5.299721  1.835607
  C     5.734555  9.299599  1.763609
  N     7.526149  6.341074  1.395647
  N     7.919632  9.939273  1.436774
  N     5.479326  5.166026  0.516977
  N     5.702721  9.216445  0.435856
  N     5.194198  5.514109  4.387512
  N     5.135119  9.733080  4.162267
  S     4.372985  4.897108  3.040372
  S     4.421612  9.176280  2.852489
  S     6.829115  5.931491 -0.065036
  S     7.244367  9.730986 -0.059592
  S     6.780375  6.055514  4.118526
  S     6.776737  9.910919  4.094135
