16  
    
  C    12.485180  9.087409  3.426256
  C    12.335777 12.787388  3.497995
  C    11.316584  8.619568  2.662296
  C    11.123109 12.142326  2.975437
  N    13.513826  9.424723  2.643348
  N    13.204287 13.088162  2.548583
  N    11.572911  8.484020  1.353674
  N    11.122667 12.004771  1.659588
  N    10.691350  8.462343  5.085136
  N    10.674627 12.558111  5.471483
  S     9.937008  8.128839  3.652062
  S     9.908296 11.814495  4.222722
  S    13.044210  9.065183  1.069459
  S    12.619464 12.511262  1.074317
  S    12.153327  9.130705  5.134829
  S    12.280842 13.075017  5.202231
