16  
    
  C     6.700898  5.696087  2.031398
  C     6.650630  9.532803  2.100047
  C     5.407638  5.496182  1.396257
  C     5.381991  9.079565  1.565944
  N     7.647334  5.843853  1.118381
  N     7.619154  9.668918  1.187121
  N     5.464229  5.391196  0.081187
  N     5.381559  8.972174  0.241291
  N     4.958375  5.777556  3.910199
  N     5.090660  9.320864  4.211327
  S     4.125696  5.385737  2.561006
  S     4.186356  9.075975  2.796694
  S     7.043031  5.594453 -0.402649
  S     6.947834  9.383982 -0.272037
  S     6.646511  5.951875  3.729494
  S     6.642732  9.820389  3.769092
