16  
    
  C    10.762615  7.762267  3.107481
  C    10.618555 11.980035  3.123492
  C     9.493224  7.378230  2.512987
  C     9.418473 11.232510  2.726894
  N    11.692184  8.079453  2.234903
  N    11.518153 12.206798  2.163844
  N     9.471182  7.440660  1.197400
  N     9.330885 10.984511  1.422575
  N     9.100364  7.580528  5.106507
  N     9.186510 11.557458  5.259622
  S     8.293907  7.085751  3.723945
  S     8.307373 10.925367  4.004489
  S    11.031878  7.791477  0.728150
  S    10.783780 11.632531  0.786136
  S    10.740715  7.835415  4.781826
  S    10.655933 12.218116  4.817838
