16  
    
  C    11.819331  8.596938  3.449810
  C    11.612784 11.871116  3.407329
  C    10.615949  8.223178  2.773635
  C    10.375376 11.656627  2.642837
  N    12.922204  8.689564  2.669970
  N    12.676428 12.072659  2.673018
  N    10.769171  8.048434  1.432217
  N    10.566608 11.657683  1.330480
  N     9.916539  8.475321  5.213116
  N     9.832357 11.670812  5.155678
  S     9.175042  8.286309  3.787747
  S     9.071851 11.395467  3.732192
  S    12.367472  8.429872  1.132488
  S    12.163731 11.802317  1.080154
  S    11.537557  8.798657  5.155522
  S    11.481379 11.957418  5.155578
