16  
    
  C     6.751564  5.856718  2.027416
  C     6.742558  9.563063  2.189082
  C     5.439246  5.460946  1.503825
  C     5.438607  9.184944  1.639208
  N     7.748452  5.853111  1.144539
  N     7.659037  9.823449  1.253081
  N     5.448214  5.447818  0.184859
  N     5.409089  9.015476  0.316785
  N     5.047271  5.679035  3.985234
  N     5.136164  9.286646  4.121584
  S     4.082388  5.343815  2.593302
  S     4.165477  9.086528  2.837001
  S     7.014126  5.584197 -0.345161
  S     6.903695  9.363544 -0.205570
  S     6.659718  5.960807  3.805519
  S     6.700345  9.841729  3.901943
