16  
    
  C     6.519025  5.801443  2.068254
  C     6.152667  9.249782  1.863294
  C     5.331888  5.281839  1.404045
  C     4.930932  8.801099  1.158829
  N     7.549190  5.974419  1.258068
  N     7.212330  9.407768  1.068468
  N     5.436993  5.094688  0.100429
  N     5.063495  8.669346 -0.165124
  N     4.638482  5.737534  3.899099
  N     4.339126  8.952008  3.668462
  S     4.034099  5.158640  2.460846
  S     3.601246  8.535013  2.224743
  S     7.007563  5.544798 -0.258696
  S     6.635549  8.943529 -0.489529
  S     6.245149  6.069926  3.764749
  S     5.933144  9.335012  3.591950
