16  
    
  C    10.825986  8.251557  3.275597
  C    10.754407 11.846264  3.267714
  C     9.680331  7.628260  2.679611
  C     9.516037 11.255058  2.689123
  N    11.864440  8.485285  2.467128
  N    11.654496 12.220509  2.357305
  N     9.854766  7.342281  1.402453
  N     9.523272 11.106780  1.372580
  N     9.229291  7.836212  5.167242
  N     9.068600 11.449373  5.209921
  S     8.341772  7.469933  3.791478
  S     8.245380 11.061670  3.811766
  S    11.358722  7.978971  0.926056
  S    11.040579 11.768101  0.879803
  S    10.671526  8.580021  4.971388
  S    10.641213 12.166706  5.011578
