16  
    
  C     4.557858  5.093174  1.614152
  C     4.349259  8.518573  1.490939
  C     3.315265  4.611338  1.032821
  C     3.160271  8.012802  0.914003
  N     5.564521  5.233077  0.747148
  N     5.367103  8.674834  0.666674
  N     3.342821  4.599355 -0.288534
  N     3.255068  7.643060 -0.356858
  N     2.825311  4.825265  3.519776
  N     2.598661  8.500730  3.402009
  S     1.994428  4.556508  2.103552
  S     1.812020  7.946678  1.994524
  S     4.887346  4.851180 -0.704893
  S     4.829949  8.075619 -0.759432
  S     4.323274  5.506466  3.318417
  S     4.223094  8.880280  3.158477
