16  
    
  C     5.743641  5.644564  1.805601
  C     5.903053  8.975375  2.130729
  C     4.505837  5.256030  1.159798
  C     4.686718  8.698209  1.420212
  N     6.820191  5.504020  1.039987
  N     6.956805  9.056733  1.359466
  N     4.621463  4.931216 -0.134991
  N     4.782085  8.528511  0.098685
  N     4.028637  5.566081  3.663700
  N     4.132538  8.788825  3.908588
  S     3.196537  5.133512  2.279575
  S     3.340781  8.531847  2.522555
  S     6.259075  5.011347 -0.445872
  S     6.457948  8.701713 -0.198166
  S     5.669864  5.704626  3.543620
  S     5.761998  9.049538  3.843084
