16  
    
  C     9.910960  7.655223  2.666923
  C     9.896951 11.315659  2.992730
  C     8.624456  7.319753  2.030565
  C     8.759709 10.670021  2.293197
  N    10.926887  7.706577  1.803881
  N    10.925036 11.600601  2.186089
  N     8.658708  7.226902  0.700240
  N     8.965300 10.481151  1.008172
  N     8.212549  7.420458  4.531259
  N     8.054241 10.833914  4.732832
  S     7.335740  7.173397  3.138947
  S     7.379263 10.412242  3.282496
  S    10.239719  7.529211  0.247328
  S    10.479854 11.113253  0.664620
  S     9.802602  7.751064  4.414243
  S     9.603378 11.447079  4.672183
