16  
    
  C     7.566182  6.004985  2.190719
  C     7.942242  9.867689  2.282185
  C     6.337720  5.514278  1.544390
  C     6.682434  9.398424  1.683061
  N     8.473738  6.461770  1.313010
  N     8.900295 10.079624  1.375964
  N     6.421420  5.365740  0.223297
  N     6.676365  9.314562  0.332462
  N     5.842095  5.784561  4.067772
  N     6.350964  9.561078  4.271596
  S     5.048847  5.190498  2.719111
  S     5.482442  9.096560  2.941247
  S     7.896605  6.022134 -0.231967
  S     8.182897  9.739470 -0.149852
  S     7.416109  6.200454  3.954122
  S     7.859515 10.151735  4.003462
