16  
    
  C     9.838575  7.755779  2.767522
  C     9.891649 11.127806  2.900837
  C     8.641507  7.312677  2.066876
  C     8.613306 10.883007  2.220891
  N    10.936278  7.932047  2.034891
  N    10.944714 11.255571  2.097820
  N     8.855412  7.121653  0.783196
  N     8.752326 10.767021  0.903370
  N     8.015157  7.348609  4.572670
  N     8.108680 10.820731  4.731541
  S     7.291409  7.126012  3.097479
  S     7.275993 10.789467  3.267307
  S    10.430902  7.570583  0.447043
  S    10.368248 11.043026  0.583325
  S     9.639609  7.757310  4.527286
  S     9.680690 11.376237  4.622987
