16  
    
  C    12.001706  8.609627  3.408458
  C    11.830628 12.095179  3.187043
  C    10.755817  8.049715  2.907884
  C    10.569192 11.692137  2.655020
  N    12.913599  8.903802  2.479659
  N    12.834690 12.120630  2.287695
  N    10.749486  7.800479  1.614467
  N    10.547409 11.631118  1.315274
  N    10.309114  8.482804  5.428948
  N     9.990546 11.905742  5.172995
  S     9.504509  7.916472  4.096423
  S     9.162801 11.512627  3.693079
  S    12.239758  8.257851  1.054620
  S    12.022738 12.038538  0.792952
  S    11.872792  8.988924  5.110166
  S    11.635879 12.356598  4.892493
