16  
    
  C    10.248775  7.701632  2.624241
  C    10.572137 11.376040  2.946872
  C     9.071003  7.143035  2.038000
  C     9.411868 11.267423  2.133517
  N    11.277978  7.840071  1.770732
  N    11.666070 11.394232  2.210709
  N     9.158352  6.812242  0.744279
  N     9.597145 11.109528  0.844682
  N     8.405372  7.705769  4.419388
  N     8.521132 11.450781  4.562790
  S     7.689429  7.022681  3.152758
  S     7.931277 11.394554  3.056701
  S    10.628992  7.341444  0.323832
  S    11.225517 11.225478  0.646922
  S     9.994644  8.078746  4.284026
  S    10.178185 11.595420  4.625562
