16  
    
  C     5.783221  5.099918  1.969226
  C     5.644466  9.201559  2.012496
  C     4.599498  4.549790  1.314639
  C     4.544856  8.427986  1.469695
  N     6.731805  5.467778  1.114826
  N     6.580132  9.529519  1.129654
  N     4.734184  4.271503  0.034475
  N     4.590602  8.303328  0.153087
  N     3.959323  4.767221  3.767860
  N     4.130988  8.751213  3.962937
  S     3.268059  4.279286  2.347745
  S     3.253438  8.162318  2.641582
  S     6.243023  4.800798 -0.360799
  S     6.067276  9.032397 -0.371302
  S     5.461983  5.471359  3.598713
  S     5.620727  9.355546  3.726969
