16  
    
  C     4.264936  5.056428  1.103166
  C     4.451286  8.307823  1.408495
  C     3.003874  4.763569  0.514605
  C     3.242999  7.877660  0.699562
  N     5.343301  5.031127  0.367426
  N     5.440056  8.664397  0.586816
  N     3.109434  4.610142 -0.816122
  N     3.426982  7.724070 -0.601488
  N     2.721181  4.680694  3.054890
  N     2.540088  8.254695  3.111936
  S     1.755833  4.690290  1.741605
  S     1.863236  7.701577  1.713481
  S     4.795801  4.791628 -1.162326
  S     4.935359  8.282656 -0.938042
  S     4.260490  5.224452  2.788408
  S     4.159542  8.395526  3.129908
