16  
    
  C    10.811619  8.429504  3.290862
  C    10.733088 11.899840  3.194207
  C     9.637749  7.764777  2.688574
  C     9.491358 11.525671  2.555699
  N    11.748624  8.674347  2.403766
  N    11.806937 12.024271  2.427387
  N     9.699041  7.514386  1.410481
  N     9.606539 11.247932  1.267507
  N     9.042060  8.193053  5.071596
  N     8.903346 11.647213  5.108355
  S     8.335561  7.493846  3.754989
  S     8.219039 11.047631  3.704358
  S    11.248794  7.949663  0.939920
  S    11.268089 11.620374  0.901819
  S    10.540026  8.723031  4.960183
  S    10.530800 12.063220  4.913904
