16  
    
  C     9.201070  6.838038  2.359418
  C     9.162817 10.860996  2.969487
  C     8.028619  6.202399  1.807209
  C     7.938415 10.417616  2.410552
  N    10.316396  6.744977  1.634481
  N    10.213368 10.787011  2.187605
  N     8.204928  5.730646  0.581782
  N     8.029874 10.026316  1.133786
  N     7.436844  6.937197  4.180293
  N     7.383158 10.986908  4.796350
  S     6.628082  6.344797  2.832481
  S     6.563230 10.612482  3.418360
  S     9.804653  6.040387  0.208479
  S     9.600154 10.225765  0.711892
  S     9.058658  7.222104  3.988627
  S     9.042157 11.107587  4.671116
