16  
    
  C    10.501047  7.391349  2.701045
  C    10.386431 11.311061  2.683542
  C     9.147187  7.377191  2.094290
  C     9.099745 11.100962  2.027563
  N    11.497725  7.342786  1.789717
  N    11.428906 11.326826  1.820834
  N     9.137860  7.300932  0.758522
  N     9.279158 10.744437  0.737760
  N     8.841354  7.726151  4.578931
  N     8.596283 11.277754  4.505125
  S     7.879525  7.498805  3.242584
  S     7.750966 11.199228  3.071089
  S    10.703872  7.192756  0.307531
  S    10.841083 10.931687  0.329984
  S    10.489970  7.580479  4.467200
  S    10.237192 11.484625  4.406572
