16  
    
  C     5.550369  5.507013  1.936605
  C     5.574824  8.945616  1.866372
  C     4.411878  4.736053  1.440007
  C     4.380344  8.448965  1.176623
  N     6.475925  5.801645  1.035904
  N     6.541287  9.277533  1.025373
  N     4.409032  4.588125  0.116434
  N     4.557763  8.228085 -0.120516
  N     4.118672  4.909447  3.980763
  N     3.729972  8.533419  3.643253
  S     3.178170  4.582602  2.686721
  S     3.003189  8.149394  2.133468
  S     5.887668  5.164810 -0.404323
  S     6.125228  8.778748 -0.503820
  S     5.565432  5.605141  3.623312
  S     5.324110  9.119119  3.562255
