16  
    
  C     8.948684  6.986007  2.243677
  C     8.999103 10.552469  2.407916
  C     7.738804  6.601171  1.577888
  C     7.784484 10.101548  1.786248
  N     9.976901  7.235639  1.447532
  N    10.019213 10.725389  1.622594
  N     7.898910  6.318341  0.273629
  N     7.906792  9.804960  0.495162
  N     7.206023  6.712590  4.132680
  N     7.285101 10.404420  4.260988
  S     6.444624  6.308021  2.747491
  S     6.426608 10.099668  2.871555
  S     9.458233  6.728608 -0.100893
  S     9.456411 10.243890  0.047131
  S     8.802917  7.223348  3.940206
  S     8.902213 10.793133  4.118769
