16  
    
  C    11.996530  8.826639  3.409376
  C    11.844391 12.199941  3.257476
  C    10.751686  8.505887  2.712444
  C    10.530357 11.851789  2.732210
  N    13.091877  8.934118  2.680006
  N    12.790082 12.433102  2.352228
  N    10.996883  8.489439  1.413934
  N    10.520300 11.733689  1.402282
  N    10.275776  8.521547  5.213110
  N    10.272634 12.105246  5.337063
  S     9.400356  8.276758  3.802557
  S     9.355077 11.881475  3.984638
  S    12.591142  8.656023  1.123111
  S    12.079780 12.238335  0.891519
  S    11.863055  8.781440  5.109877
  S    11.904539 12.176566  4.963684
