16  
    
  C     5.962914  4.796966  1.857386
  C     5.780970  9.242693  1.987798
  C     4.762949  4.538385  1.051548
  C     4.621291  8.585659  1.377465
  N     7.045662  5.026767  1.088557
  N     6.791009  9.396397  1.166177
  N     4.998337  4.417076 -0.248148
  N     4.703855  8.465387  0.062346
  N     3.859829  4.917032  3.435918
  N     4.147793  8.975931  3.899478
  S     3.343167  4.225416  1.983012
  S     3.407875  8.336009  2.503755
  S     6.589633  4.774450 -0.512475
  S     6.301430  8.957205 -0.337158
  S     5.570260  5.099248  3.545557
  S     5.635872  9.592389  3.662695
