16  
    
  C    12.727133  9.192481  3.647506
  C    12.823656 12.544035  3.527353
  C    11.464723  8.607787  3.158696
  C    11.560087 12.214901  2.870742
  N    13.630997  9.429333  2.700724
  N    13.774716 12.835165  2.662874
  N    11.512536  8.318040  1.856462
  N    11.652373 12.138777  1.525595
  N    11.242026  8.692473  5.693663
  N    11.100247 12.301330  5.373051
  S    10.244006  8.243464  4.348544
  S    10.265417 11.869355  4.021547
  S    12.988250  8.875282  1.273322
  S    13.219270 12.483672  1.125862
  S    12.805188  9.227492  5.351262
  S    12.727170 12.739552  5.253442
