16  
    
  C     6.708985  5.848874  2.288632
  C     6.785590  9.707495  2.328008
  C     5.476535  5.364831  1.761013
  C     5.565077  9.261176  1.734973
  N     7.597024  6.180612  1.368701
  N     7.798367  9.961699  1.501844
  N     5.434026  5.229247  0.457901
  N     5.616590  9.207745  0.410114
  N     5.201760  5.533543  4.338495
  N     5.103855  9.666993  4.281353
  S     4.273362  5.070856  2.987814
  S     4.286504  9.091466  2.901328
  S     6.890819  5.826518 -0.081932
  S     7.154840  9.652878 -0.039976
  S     6.708146  5.999823  3.978382
  S     6.813677  9.947082  4.042929
