16  
    
  C    12.782312  8.966463  3.837897
  C    12.543885 12.711518  3.975208
  C    11.518632  8.478840  3.221650
  C    11.412082 12.129823  3.230179
  N    13.702965  9.225545  2.928352
  N    13.567668 13.042399  3.221530
  N    11.618739  8.180122  1.945255
  N    11.654983 12.003035  1.929790
  N    11.018833  8.513429  5.656830
  N    10.681464 12.281787  5.664660
  S    10.182345  8.145654  4.298894
  S     9.985159 11.898195  4.154822
  S    13.112388  8.727300  1.397834
  S    13.210227 12.595215  1.702693
  S    12.559660  9.024433  5.552052
  S    12.219957 12.953564  5.689503
