16  
    
  C    12.091929  8.596090  3.310173
  C    12.174573 12.106740  3.278051
  C    10.772245  8.247337  2.763277
  C    10.965307 11.652000  2.624485
  N    13.060953  8.708444  2.395463
  N    13.155355 12.360146  2.383838
  N    10.765019  8.207335  1.451885
  N    11.068149 11.293646  1.347816
  N    10.329847  8.439270  5.234220
  N    10.301558 11.988736  5.027846
  S     9.509673  8.076338  3.896762
  S     9.557917 11.562083  3.637079
  S    12.309895  8.335769  0.920289
  S    12.516965 11.945835  0.868742
  S    11.993450  8.710284  5.065723
  S    11.842251 12.371300  5.003155
