16  
    
  C     7.908392  6.268733  2.133841
  C     8.084235 10.624177  2.172026
  C     6.691143  5.916511  1.505647
  C     6.980128  9.978817  1.575799
  N     8.859511  6.627061  1.285148
  N     9.092433 10.825043  1.331614
  N     6.744739  5.718845  0.194628
  N     7.115016  9.566074  0.347666
  N     6.187035  5.692604  4.044166
  N     6.315111 10.117276  4.060747
  S     5.407751  5.550799  2.610807
  S     5.625802  9.702567  2.589823
  S     8.227914  6.290583 -0.250661
  S     8.598129 10.193438 -0.135221
  S     7.696476  6.332594  3.917340
  S     7.853560 10.761197  3.931324
