16  
    
  C     7.828596  6.517857  2.415165
  C     7.937411 10.439015  2.020677
  C     6.636352  6.104654  1.617348
  C     6.651710  9.889506  1.529967
  N     8.923436  6.674107  1.675239
  N     8.865192 10.594572  1.115368
  N     6.918497  5.844145  0.362853
  N     6.740150  9.529008  0.249122
  N     5.849815  6.301401  4.106598
  N     6.366458 10.352030  4.093282
  S     5.181837  5.910098  2.625622
  S     5.453098  9.864210  2.777702
  S     8.571414  6.250184  0.100090
  S     8.216362  9.963877 -0.323167
  S     7.506722  6.747612  4.117627
  S     7.996194 10.639041  3.761960
