16  
    
  C    10.536335  7.319727  2.736410
  C    10.348551 11.321026  2.675566
  C     9.219579  7.331859  2.130418
  C     9.124569 10.971677  2.019613
  N    11.480841  7.301532  1.830437
  N    11.378485 11.301673  1.888207
  N     9.117451  7.299757  0.799610
  N     9.201105 10.706029  0.735624
  N     8.856850  7.631966  4.627507
  N     8.597321 11.246744  4.522449
  S     7.929880  7.575607  3.246100
  S     7.741333 11.112059  3.114278
  S    10.726083  7.198330  0.306962
  S    10.793392 10.915182  0.312454
  S    10.463260  7.514051  4.493941
  S    10.223195 11.463695  4.396696
