16  
    
  C     7.988624  6.492215  2.623865
  C     8.539822 10.329519  2.433887
  C     6.825110  6.124502  1.854688
  C     7.274943  9.902486  1.902739
  N     9.065154  6.790343  1.915773
  N     9.553426 10.430938  1.582258
  N     7.047324  5.925229  0.554454
  N     7.318655  9.662349  0.581505
  N     6.119285  6.252783  4.392010
  N     6.922205 10.383489  4.456864
  S     5.405943  5.947408  2.919025
  S     6.051846  9.716496  3.177881
  S     8.673929  6.381563  0.320420
  S     8.938484  9.852629  0.159404
  S     7.727916  6.827237  4.286044
  S     8.553336 10.578927  4.163953
