16  
    
  C    11.964774  8.583497  3.273836
  C    11.953901 12.060869  3.167666
  C    10.672038  8.301997  2.681407
  C    10.602434 11.897434  2.555037
  N    12.949340  8.588444  2.389519
  N    12.991691 12.192116  2.336473
  N    10.701972  8.218656  1.345967
  N    10.715957 11.849673  1.228285
  N    10.431118  8.457183  5.224144
  N    10.390674 11.953084  5.127386
  S     9.463316  8.152439  3.948078
  S     9.391077 11.549470  3.855505
  S    12.266844  8.511189  0.902091
  S    12.403531 11.899574  0.836166
  S    12.033264  8.682247  4.955016
  S    11.935514 12.370903  4.893676
