16  
    
  C     9.541599  7.531487  2.579144
  C    10.193872 11.396645  2.520577
  C     8.473738  6.755155  2.040420
  C     8.993099 10.964694  1.952726
  N    10.503560  7.843315  1.737324
  N    11.200724 11.500019  1.651786
  N     8.682689  6.332300  0.785151
  N     9.027763 10.705016  0.641556
  N     7.819981  7.494359  4.481746
  N     8.560621 11.120539  4.514412
  S     7.189871  6.545558  3.256336
  S     7.713085 10.722070  3.165269
  S    10.167043  7.006249  0.335831
  S    10.603640 11.045950  0.206710
  S     9.437193  7.915758  4.261096
  S    10.130831 11.591978  4.270156
