16  
    
  C     6.480752  5.744665  2.055616
  C     6.135996  9.270100  1.850137
  C     5.289186  5.332893  1.395279
  C     4.942058  8.800127  1.163094
  N     7.503804  5.968235  1.254123
  N     7.173829  9.369654  1.044182
  N     5.417537  5.101044  0.097816
  N     5.035960  8.663961 -0.170072
  N     4.663105  5.736184  3.930847
  N     4.309978  8.916826  3.676313
  S     4.017456  5.170061  2.460186
  S     3.591881  8.540920  2.200360
  S     6.985317  5.520638 -0.263260
  S     6.607200  8.935707 -0.503163
  S     6.238545  6.088518  3.752698
  S     5.951112  9.349535  3.585091
