16  
    
  C     6.848561  5.682505  1.826159
  C     7.193038  9.986749  2.422866
  C     5.734912  5.136965  1.039146
  C     5.903807  9.528530  1.813131
  N     8.016007  5.755479  1.207162
  N     8.226292 10.155574  1.625298
  N     6.102306  4.744349 -0.173874
  N     6.114326  9.263576  0.531972
  N     4.773617  6.071915  3.255281
  N     5.566530  9.795369  4.381430
  S     4.195722  5.104784  1.974629
  S     4.658186  9.319200  3.054050
  S     7.720385  5.155814 -0.347795
  S     7.613579  9.735485  0.092674
  S     6.384776  6.183125  3.479325
  S     7.150159 10.196075  4.151883
