16  
    
  C    12.405065  9.106780  3.445111
  C    12.479357 12.717715  3.491759
  C    11.261746  8.534531  2.674223
  C    11.175607 12.286639  2.966074
  N    13.422858  9.552887  2.700980
  N    13.367629 12.874060  2.501996
  N    11.441325  8.562201  1.361920
  N    11.162403 12.042107  1.661599
  N    10.611927  8.401971  5.080487
  N    10.829951 12.631812  5.511017
  S     9.964724  7.971820  3.673515
  S     9.959900 11.928652  4.211390
  S    12.983555  9.253599  1.136673
  S    12.615818 12.447304  1.043610
  S    12.039329  9.239166  5.192479
  S    12.375869 13.094947  5.197465
