16  
    
  C     7.651605  6.250923  2.204641
  C     7.790867 10.116022  2.434873
  C     6.391059  5.899781  1.652751
  C     6.656504  9.494549  1.801042
  N     8.647666  6.441659  1.335939
  N     8.780644 10.508839  1.628744
  N     6.411091  5.781039  0.336987
  N     6.797633  9.310302  0.497459
  N     5.945861  6.175925  4.198999
  N     6.088993  9.501802  4.332050
  S     5.169785  5.578308  2.853483
  S     5.315698  9.207619  2.894281
  S     7.908764  6.118720 -0.165682
  S     8.291034  9.902177  0.101100
  S     7.538638  6.406844  3.965373
  S     7.598278 10.217226  4.181907
