16  
    
  C     3.591047  4.571689  1.587112
  C     3.747829  8.344181  1.580899
  C     2.503472  3.863414  1.029967
  C     2.508843  8.089194  0.877629
  N     4.518260  4.879289  0.687212
  N     4.775689  8.613943  0.763727
  N     2.492594  3.805883 -0.302268
  N     2.597903  8.026057 -0.450417
  N     1.921981  3.965109  3.487002
  N     1.988493  8.027023  3.379901
  S     1.265179  3.448438  2.113694
  S     1.244968  7.728703  1.969314
  S     3.893818  4.405895 -0.820617
  S     4.160963  8.413985 -0.784949
  S     3.434651  4.708081  3.367363
  S     3.594506  8.470181  3.323951
