16  
    
  C     9.068349  7.167324  2.551500
  C     8.828226 11.131981  2.337619
  C     7.809942  6.637238  2.025227
  C     7.677440 10.464505  1.703216
  N    10.034577  7.321507  1.644863
  N     9.786569 11.416900  1.457666
  N     7.959766  6.198523  0.761494
  N     7.866726 10.128661  0.449468
  N     7.481522  7.014601  4.603593
  N     7.215358 10.593479  4.249923
  S     6.707099  6.302218  3.364158
  S     6.416053 10.139198  2.857784
  S     9.482154  6.643298  0.238701
  S     9.326720 10.836626  0.028351
  S     9.106387  7.407725  4.285478
  S     8.695694 11.266664  4.051781
