16  
    
  C     6.683046  5.728428  1.919449
  C     6.666063  9.506311  1.983497
  C     5.397953  5.431912  1.403831
  C     5.403368  9.125247  1.455216
  N     7.672079  5.760447  1.022990
  N     7.608054  9.638434  1.061155
  N     5.418275  5.344145  0.095467
  N     5.349207  9.005383  0.142888
  N     4.939769  5.887555  3.802027
  N     5.047273  9.323583  4.002175
  S     4.028062  5.430865  2.514337
  S     4.091440  8.991210  2.590360
  S     6.959842  5.578548 -0.479723
  S     6.918123  9.298407 -0.404084
  S     6.644840  5.953801  3.651946
  S     6.635008  9.812966  3.686791
