16  
    
  C    11.908688  8.488470  3.233328
  C    11.377586 12.044989  3.503497
  C    10.634062  8.214228  2.573997
  C    10.253839 11.553976  2.771196
  N    12.932710  8.729240  2.372956
  N    12.392582 12.419214  2.740579
  N    10.712631  8.155401  1.222873
  N    10.433502 11.505172  1.458446
  N    10.174871  8.036958  5.144539
  N     9.642364 11.674602  5.366353
  S     9.339254  8.069577  3.750177
  S     9.016361 11.103301  3.919374
  S    12.247640  8.611399  0.877158
  S    11.978659 11.980617  1.165892
  S    11.836769  8.418544  4.940977
  S    11.266182 12.252449  5.237987
