16  
    
  C    11.371244  8.796623  3.218225
  C    11.376827 12.356189  3.251169
  C    10.276247  8.019695  2.681688
  C    10.232859 11.809059  2.556840
  N    12.353686  9.091500  2.343591
  N    12.501718 12.444780  2.574906
  N    10.450347  7.647061  1.383843
  N    10.501743 11.747652  1.258463
  N     9.825545  8.387658  5.218513
  N     9.610678 11.769313  5.004560
  S     9.029736  7.761588  3.888116
  S     8.880657 11.354898  3.589330
  S    11.931586  8.257061  0.957877
  S    12.067275 12.216376  0.982900
  S    11.266269  9.091264  4.973720
  S    11.088244 12.493387  4.940000
