16  
    
  C     3.665239  4.430067  1.544473
  C     3.466400  8.468843  1.156006
  C     2.482169  3.861581  0.937347
  C     2.234569  7.944935  0.612598
  N     4.645885  4.646465  0.671119
  N     4.427426  8.731441  0.275832
  N     2.620071  3.660673 -0.367233
  N     2.267555  7.795765 -0.710648
  N     1.757385  4.214457  3.334588
  N     1.937305  8.102324  3.237064
  S     1.184452  3.481475  1.979069
  S     1.046397  7.869480  1.864126
  S     4.025549  4.323841 -0.822260
  S     3.777836  8.322191 -1.203173
  S     3.384693  4.675666  3.232010
  S     3.554083  8.491986  2.914426
