16  
    
  C    10.303324  7.628586  2.608756
  C    10.529670 11.381222  2.809651
  C     9.058960  7.260212  2.033174
  C     9.303720 11.312706  2.033234
  N    11.284129  7.670888  1.729810
  N    11.647028 11.253727  2.130952
  N     9.077801  7.094187  0.721339
  N     9.468297 11.155314  0.732921
  N     8.584683  7.731538  4.529426
  N     8.566774 11.314732  4.518183
  S     7.746442  7.152633  3.142357
  S     7.835608 11.447730  3.027441
  S    10.683576  7.236098  0.260438
  S    11.151984 11.140055  0.523962
  S    10.234775  8.008868  4.344633
  S    10.238897 11.638538  4.532909
