16  
    
  C     9.330905  6.759738  2.399634
  C     9.233433 10.704321  2.911004
  C     8.098589  6.263110  1.772983
  C     7.941991 10.458870  2.226865
  N    10.425763  6.617506  1.641438
  N    10.294391 10.460116  2.166984
  N     8.252429  5.952301  0.493739
  N     8.115759 10.050715  0.979909
  N     7.358304  6.909847  4.136445
  N     7.415546 10.753931  4.712345
  S     6.689193  6.257459  2.746839
  S     6.611633 10.746534  3.290204
  S     9.862251  6.037736  0.128808
  S     9.735430  9.980693  0.650904
  S     8.985419  7.206950  4.118255
  S     9.043220 11.107245  4.614050
