16  
    
  C     9.255485  6.764063  2.401347
  C     9.501122 10.556893  2.830353
  C     8.067148  6.353418  1.665759
  C     8.209139 10.257875  2.189429
  N    10.302792  6.934196  1.606858
  N    10.529097 10.465145  1.955772
  N     8.254725  6.121026  0.359206
  N     8.256513 10.007807  0.877770
  N     7.459491  6.509548  4.178999
  N     7.730667 10.801571  4.670514
  S     6.705927  6.145977  2.711823
  S     6.862798 10.507226  3.247483
  S     9.906200  6.471902  0.094585
  S     9.925995 10.079240  0.499917
  S     9.074378  6.750958  4.112164
  S     9.407195 10.905480  4.483510
