16  
    
  C     6.703174  6.075980  2.371519
  C     7.053862  9.732362  2.313077
  C     5.614211  5.247930  1.855514
  C     5.771185  9.397601  1.661796
  N     7.575856  6.492187  1.436387
  N     8.013957 10.012098  1.445622
  N     5.522248  5.218305  0.504878
  N     5.848277  9.314353  0.341701
  N     5.229464  5.415676  4.411517
  N     5.286406  9.587366  4.214802
  S     4.473532  4.761807  3.142672
  S     4.417904  9.293914  2.768969
  S     6.880016  6.011837 -0.002760
  S     7.422774  9.642774 -0.066527
  S     6.740278  6.102743  4.084610
  S     6.930856  9.871983  4.050009
