16  
    
  C     6.006950  5.035564  1.623165
  C     5.981829  9.176852  1.943306
  C     4.760091  4.779856  0.993617
  C     4.771608  8.698053  1.353229
  N     6.999781  5.261618  0.741555
  N     7.054665  9.177762  1.131113
  N     4.875694  4.492402 -0.293859
  N     4.905259  8.467400  0.062005
  N     4.214863  4.778806  3.575965
  N     4.196833  8.842897  3.851057
  S     3.435896  4.510380  2.076269
  S     3.359056  8.601122  2.472449
  S     6.398032  4.851494 -0.744280
  S     6.481658  8.745848 -0.347808
  S     5.802845  5.086595  3.340824
  S     5.870805  9.190571  3.695083
