16  
    
  C    10.269263  7.124573  2.706416
  C    10.288683 10.979700  2.764792
  C     9.018219  7.025203  2.077747
  C     9.043601 10.803792  2.124536
  N    11.335152  7.276028  1.926407
  N    11.367049 11.116394  1.985913
  N     9.138143  7.050718  0.738542
  N     9.098419 10.706900  0.788487
  N     8.562800  7.403970  4.541860
  N     8.539247 10.753262  4.628309
  S     7.697423  7.076624  3.225568
  S     7.710640 10.913378  3.213402
  S    10.779619  7.202755  0.394310
  S    10.718800 10.968789  0.445142
  S    10.201069  7.398291  4.400259
  S    10.181637 10.998961  4.519238
