16  
    
  C     8.805883  6.949981  2.195555
  C     8.997112 10.508685  2.411548
  C     7.667242  6.375029  1.581115
  C     7.776844 10.052261  1.843222
  N     9.886743  7.145057  1.452238
  N    10.012313 10.641323  1.559405
  N     7.833673  6.374361  0.253013
  N     7.874419  9.861503  0.539790
  N     7.156649  6.735355  4.086036
  N     7.300265 10.292924  4.367013
  S     6.281230  6.251474  2.706075
  S     6.435318 10.067326  2.944828
  S     9.442023  6.827587 -0.060327
  S     9.472445 10.170711  0.151543
  S     8.721849  7.232212  3.888342
  S     8.898562 10.709478  4.150493
