16  
    
  C     3.580670  4.392053  1.548913
  C     3.584511  8.477666  1.282922
  C     2.500676  3.692615  0.919362
  C     2.325948  8.020908  0.684335
  N     4.487074  4.808175  0.683702
  N     4.511938  8.753165  0.380741
  N     2.587182  3.626067 -0.415551
  N     2.360313  7.838279 -0.637484
  N     1.949351  3.885411  3.455133
  N     1.901045  8.169072  3.241690
  S     1.183316  3.481309  2.052747
  S     1.057221  7.776028  1.832846
  S     4.062022  4.283544 -0.811542
  S     3.850449  8.379660 -1.107103
  S     3.452783  4.646519  3.265195
  S     3.531628  8.579340  3.009510
