16  
    
  C     4.368191  5.046191  1.168027
  C     4.345854  8.465553  1.501784
  C     3.106850  4.647005  0.598186
  C     3.147838  8.046930  0.717967
  N     5.379461  5.137550  0.301837
  N     5.420523  8.748099  0.791610
  N     3.168174  4.541387 -0.738754
  N     3.410710  7.894004 -0.571452
  N     2.711366  4.802016  3.111117
  N     2.427516  8.195237  3.163011
  S     1.800818  4.717842  1.735302
  S     1.792634  7.648559  1.673921
  S     4.722810  4.817320 -1.239406
  S     4.958787  8.403703 -0.829180
  S     4.333237  5.184928  2.916799
  S     4.083720  8.384610  3.192967
