16  
    
  C    10.658111  8.427268  3.147689
  C    10.784432 11.781518  3.217416
  C     9.508773  7.829161  2.534405
  C     9.568546 11.403211  2.478891
  N    11.716113  8.549586  2.365183
  N    11.813889 12.014490  2.401106
  N     9.656607  7.478245  1.234424
  N     9.706364 11.175256  1.162404
  N     9.042324  8.137168  5.063324
  N     8.843435 11.751229  4.886419
  S     8.223477  7.586960  3.701401
  S     8.200087 11.225225  3.465524
  S    11.206337  8.040602  0.828034
  S    11.374439 11.557641  0.876886
  S    10.525073  8.767690  4.835500
  S    10.470231 12.052918  4.896707
