16  
    
  C     6.905518  6.012726  1.601965
  C     7.304802  9.902071  2.471448
  C     5.838199  5.092083  1.168734
  C     6.002195  9.546131  1.923233
  N     7.926619  6.163647  0.735590
  N     8.336992  9.859413  1.608389
  N     5.966771  4.692034 -0.086408
  N     6.081101  9.171587  0.646515
  N     5.172908  5.819435  3.570630
  N     5.544968  9.872214  4.461251
  S     4.517198  4.944107  2.280718
  S     4.684482  9.535552  3.024493
  S     7.383232  5.360824 -0.652191
  S     7.596685  9.401662  0.122316
  S     6.722546  6.416341  3.349668
  S     7.175270 10.281677  4.221416
