16  
    
  C     9.882293  7.759502  2.843465
  C     9.863978 11.157250  2.875322
  C     8.741283  7.269495  2.154442
  C     8.661251 10.828960  2.190730
  N    10.901536  7.980193  2.000711
  N    10.918439 11.214420  2.058883
  N     8.871815  7.129185  0.833725
  N     8.731637 10.771253  0.847157
  N     7.941783  7.443955  4.535541
  N     8.128741 10.775142  4.685795
  S     7.289952  7.053910  3.093048
  S     7.265074 10.849111  3.296693
  S    10.423303  7.536122  0.472822
  S    10.337508 11.018963  0.540971
  S     9.548007  7.758762  4.556742
  S     9.700201 11.352542  4.629498
