16  
    
  C    12.069399  8.512494  3.480395
  C    12.058878 12.279695  3.255887
  C    10.845146  8.095215  2.772851
  C    10.928002 11.697039  2.587494
  N    13.151818  8.721230  2.700548
  N    13.163115 12.459788  2.569739
  N    10.979021  8.096756  1.439070
  N    11.261527 11.340273  1.362398
  N    10.278106  8.354862  5.301927
  N    10.314806 11.974474  5.021152
  S     9.431627  8.064324  3.900681
  S     9.655976 11.345416  3.704708
  S    12.604407  8.414792  1.136013
  S    12.772019 11.825933  1.063855
  S    11.832966  8.782598  5.162969
  S    11.888584 12.416943  4.963954
