16  
    
  C     5.746170  5.158603  1.879276
  C     5.682378  9.286746  2.016219
  C     4.595558  4.559945  1.159597
  C     4.551270  8.584229  1.430980
  N     6.833140  5.265930  1.145913
  N     6.612490  9.633929  1.134528
  N     4.865610  4.228075 -0.109277
  N     4.679077  8.294326  0.135349
  N     3.949375  4.665138  3.743264
  N     4.109959  8.712490  4.004448
  S     3.205605  4.318150  2.222077
  S     3.352556  8.275100  2.606357
  S     6.451529  4.748281 -0.413350
  S     6.081598  8.978375 -0.314363
  S     5.511927  5.344461  3.618578
  S     5.617447  9.493241  3.719098
