16  
    
  C     9.271155  6.846163  2.397324
  C     9.112297 11.019254  2.955348
  C     8.022186  6.491891  1.776190
  C     7.885268 10.532828  2.362607
  N    10.283561  6.818483  1.505739
  N    10.094948 11.177960  2.075964
  N     8.088927  6.085772  0.507944
  N     7.980819 10.195210  1.053858
  N     7.378316  6.889504  4.196118
  N     7.384041 10.816770  4.816811
  S     6.636731  6.319676  2.825734
  S     6.563111 10.362576  3.445412
  S     9.605632  6.328094  0.070566
  S     9.497930 10.656096  0.635878
  S     9.014519  7.299812  4.055206
  S     8.916354 11.372190  4.631826
