16  
    
  C    10.942766  7.898142  3.108534
  C    11.536113 11.830804  3.096385
  C     9.775619  7.499037  2.416676
  C    10.403681 11.251640  2.390395
  N    11.972360  8.007450  2.309107
  N    12.583129 12.036925  2.319150
  N     9.913929  7.352429  1.110489
  N    10.651034 10.865025  1.140911
  N     9.069183  7.939848  4.901449
  N     9.752346 11.564534  4.854813
  S     8.412344  7.305950  3.510315
  S     9.123089 10.941753  3.491520
  S    11.519497  7.582558  0.829124
  S    12.117514 11.478038  0.801705
  S    10.762932  8.200108  4.807016
  S    11.282216 12.177401  4.806762
