16  
    
  C     7.608283  6.589371  2.282608
  C     7.742829 10.018178  2.366355
  C     6.317189  6.097101  1.840653
  C     6.546972  9.691142  1.653110
  N     8.547687  6.580837  1.339318
  N     8.865210 10.105616  1.635502
  N     6.308025  5.790792  0.547877
  N     6.707264  9.522625  0.365135
  N     6.039781  6.344828  4.367875
  N     5.777283 10.003374  4.102829
  S     5.076354  6.077817  3.080448
  S     5.137378  9.537239  2.638438
  S     7.769924  6.067019 -0.056213
  S     8.311022  9.869466  0.050904
  S     7.732515  6.759677  4.045582
  S     7.468845 10.275612  4.102424
