16  
    
  C    11.787655  8.567939  3.496175
  C    11.687137 11.851096  3.406756
  C    10.605077  8.215008  2.780653
  C    10.459188 11.676985  2.662955
  N    12.852958  8.741316  2.715388
  N    12.720330 11.967861  2.569697
  N    10.782921  8.002300  1.477035
  N    10.533061 11.654357  1.341051
  N     9.903638  8.555619  5.262576
  N     9.721771 11.784101  5.194916
  S     9.191948  8.287486  3.756664
  S     9.073898 11.441173  3.621318
  S    12.334075  8.471478  1.127367
  S    12.185675 11.853019  1.029441
  S    11.552932  8.849685  5.243079
  S    11.439204 11.971962  5.151349
