16  
    
  C     5.918633  5.047934  1.673593
  C     6.009447  8.908995  2.079706
  C     4.653972  4.705413  1.046690
  C     4.767299  8.622237  1.410494
  N     6.881128  5.219666  0.796937
  N     7.007828  9.051956  1.231243
  N     4.752039  4.617886 -0.286786
  N     4.844803  8.489542  0.087891
  N     4.240572  5.069752  3.548607
  N     4.173992  8.824802  3.932581
  S     3.334056  4.634779  2.148037
  S     3.466351  8.609768  2.467894
  S     6.281136  4.991805 -0.717742
  S     6.478689  8.788501 -0.275877
  S     5.876904  5.377120  3.367385
  S     5.859857  9.118039  3.789190
