16  
    
  C     4.529172  5.093535  1.690107
  C     4.208998  8.736170  1.512664
  C     3.294860  4.745513  1.048449
  C     3.067916  8.117345  0.887496
  N     5.562337  5.263661  0.853564
  N     5.253745  8.844195  0.695106
  N     3.406255  4.473238 -0.241996
  N     3.178811  7.988917 -0.438694
  N     2.649838  5.149495  3.523081
  N     2.495751  8.350218  3.411338
  S     1.957267  4.655495  2.094574
  S     1.771433  7.835780  2.001719
  S     5.031979  4.744561 -0.659023
  S     4.740827  8.359437 -0.782903
  S     4.311761  5.350228  3.428138
  S     4.087217  8.821945  3.247717
