16  
    
  C     9.965195  7.598800  2.692611
  C     9.884850 11.252501  2.968639
  C     8.716040  7.333316  2.039058
  C     8.733565 10.842639  2.237887
  N    10.984423  7.771603  1.859997
  N    10.921661 11.513297  2.203943
  N     8.712735  7.316430  0.717677
  N     8.894020 10.659769  0.923306
  N     8.171832  7.341450  4.581599
  N     7.982881 11.118263  4.720200
  S     7.329195  7.213353  3.139751
  S     7.360152 10.525070  3.292351
  S    10.298304  7.553402  0.294856
  S    10.493687 11.105678  0.617343
  S     9.748276  7.774923  4.406764
  S     9.637444 11.387614  4.705940
