16  
    
  C    12.879174  9.222315  3.436901
  C    12.814841 13.003785  3.464797
  C    11.739101  8.574328  2.809060
  C    11.587782 12.502864  2.918118
  N    13.909283  9.477560  2.614097
  N    13.878912 12.902349  2.717420
  N    11.935549  8.329917  1.514587
  N    11.733334 12.181563  1.653829
  N    11.089768  9.137879  5.222148
  N    11.126936 13.122514  5.379569
  S    10.302610  8.454301  3.909639
  S    10.275475 12.495938  4.063470
  S    13.446787  8.870311  1.161726
  S    13.329372 12.412782  1.164947
  S    12.614532  9.639068  5.125291
  S    12.839981 13.331194  5.182481
