16  
    
  C     3.630649  4.431901  1.577088
  C     3.788325  8.429711  1.634702
  C     2.419341  3.933065  0.982527
  C     2.615740  7.971226  0.988705
  N     4.599282  4.850157  0.754496
  N     4.810237  8.633551  0.781380
  N     2.496143  3.800040 -0.351260
  N     2.677299  7.945063 -0.338838
  N     1.928051  4.158517  3.557898
  N     2.057939  7.918904  3.535327
  S     1.158297  3.487876  2.186365
  S     1.220272  7.824542  2.079884
  S     3.951727  4.633783 -0.760104
  S     4.257730  8.353828 -0.756790
  S     3.458275  4.787424  3.260376
  S     3.653075  8.374542  3.364362
