16  
    
  C    10.961085  8.024324  3.070376
  C    11.622802 11.692791  3.120887
  C     9.748680  7.538426  2.488460
  C    10.470117 11.090506  2.472929
  N    11.998620  8.026193  2.272744
  N    12.679717 11.983583  2.348545
  N     9.836848  7.221197  1.205487
  N    10.655429 11.067788  1.159362
  N     9.196838  7.991655  4.931382
  N     9.629584 11.556618  4.902523
  S     8.480055  7.240640  3.716862
  S     8.973344 11.021862  3.419800
  S    11.391079  7.608716  0.762560
  S    12.237158 11.530615  0.857344
  S    10.832227  8.332816  4.778953
  S    11.256592 12.087414  4.769192
