16  
    
  C     7.805845  6.406622  2.360615
  C     7.875259 10.494086  2.036079
  C     6.670442  6.067374  1.580568
  C     6.687990  9.909002  1.506140
  N     8.925433  6.664448  1.679210
  N     8.872618 10.653523  1.156684
  N     6.979026  5.811025  0.277611
  N     6.774105  9.478980  0.231330
  N     5.868117  6.324428  4.086579
  N     6.440843 10.319091  4.104288
  S     5.229543  5.874760  2.647452
  S     5.471153  9.852622  2.834862
  S     8.533896  6.300432  0.104548
  S     8.236212 10.012110 -0.285033
  S     7.505054  6.686686  4.082337
  S     8.029440 10.672212  3.736312
