16  
    
  C     9.812041  7.685936  2.792960
  C    10.594877 11.492214  3.114835
  C     8.781921  7.054159  2.029679
  C     9.393661 11.161335  2.456795
  N    10.906818  8.041869  2.159477
  N    11.717909 11.578802  2.375774
  N     9.086089  6.956798  0.745130
  N     9.564623 10.977708  1.144935
  N     7.865279  7.265921  4.417279
  N     8.722380 11.394163  4.918398
  S     7.385939  6.622296  2.975796
  S     8.032647 10.932046  3.480068
  S    10.717090  7.521611  0.582000
  S    11.129025 11.239902  0.808018
  S     9.400156  7.952685  4.468903
  S    10.353581 11.823594  4.824247
