16  
    
  C     9.429745  7.034145  2.980498
  C     9.654918 10.763670  2.597842
  C     8.274159  6.542545  2.279143
  C     8.438352 10.333699  1.971231
  N    10.370219  7.365543  2.132951
  N    10.573127 11.144683  1.741773
  N     8.327552  6.484000  0.957661
  N     8.461034 10.259153  0.646062
  N     7.628045  6.477630  4.757336
  N     7.950571 10.344096  4.544925
  S     6.991734  5.989453  3.298135
  S     7.146294  9.892086  3.125548
  S     9.842732  7.111710  0.568953
  S    10.009395 10.887242  0.219789
  S     9.217420  6.914360  4.740079
  S     9.510220 10.877840  4.338210
