16  
    
  C     4.588031  5.176074  1.758295
  C     4.221225  8.623675  1.546913
  C     3.387730  4.741551  1.101685
  C     3.028773  8.202869  0.879327
  N     5.584650  5.278692  0.889551
  N     5.260581  8.909243  0.792349
  N     3.422629  4.486298 -0.191727
  N     3.168633  8.039708 -0.415509
  N     2.652165  5.121963  3.498379
  N     2.473730  8.325156  3.302767
  S     1.946652  4.694373  2.063490
  S     1.713760  7.775948  1.938297
  S     4.950034  4.709902 -0.578291
  S     4.734426  8.537069 -0.765791
  S     4.300789  5.307884  3.459766
  S     4.060664  8.800088  3.266203
