16  
    
  C     7.746635  6.557144  2.465810
  C     7.797552 10.048557  2.100512
  C     6.494473  6.180997  1.783750
  C     6.529238  9.869474  1.389869
  N     8.820804  6.685706  1.660443
  N     8.895192 10.016585  1.313349
  N     6.693532  5.828886  0.483573
  N     6.685053  9.786497  0.051420
  N     5.848354  6.761372  4.207605
  N     6.057739 10.174290  3.961871
  S     5.107555  6.146857  2.891275
  S     5.196756  9.947785  2.597650
  S     8.323453  6.157307  0.168195
  S     8.286577  9.803450 -0.256098
  S     7.494523  7.071746  4.081807
  S     7.684672 10.461097  3.723424
