16  
    
  C     6.711774  5.838899  2.286388
  C     6.778376  9.709671  2.328178
  C     5.473511  5.376976  1.759436
  C     5.567034  9.258731  1.735849
  N     7.595306  6.177360  1.366058
  N     7.790630  9.963162  1.499858
  N     5.436730  5.233419  0.456320
  N     5.607659  9.209428  0.412766
  N     5.198756  5.533234  4.337178
  N     5.101689  9.658536  4.280842
  S     4.263368  5.074200  2.986522
  S     4.280937  9.090358  2.905838
  S     6.896702  5.821893 -0.088751
  S     7.155762  9.647896 -0.040910
  S     6.709218  6.000107  3.974438
  S     6.814835  9.946392  4.039097
