16  
    
  C     9.144231  6.957785  2.685645
  C     9.687371 10.841588  2.771665
  C     7.997805  6.410635  1.985132
  C     8.555030 10.089003  2.151176
  N    10.127844  7.243563  1.860272
  N    10.586981 11.220982  1.870089
  N     8.100133  6.289665  0.683652
  N     8.580410 10.061761  0.858064
  N     7.388871  6.450017  4.454173
  N     8.191052 10.105626  4.676463
  S     6.678230  6.039817  3.024521
  S     7.343872  9.650876  3.298843
  S     9.686717  6.800040  0.343258
  S    10.034920 10.768381  0.383801
  S     9.036541  6.828593  4.390314
  S     9.599704 10.978429  4.478637
