16  
    
  C    12.712216  8.853513  3.873902
  C    12.622980 12.765648  3.910185
  C    11.549500  8.354406  3.242024
  C    11.495657 12.347747  3.151390
  N    13.650479  9.245928  3.053989
  N    13.703920 12.959802  3.138581
  N    11.563609  8.305257  1.931574
  N    11.721470 11.988246  1.866298
  N    11.035018  8.605137  5.766551
  N    10.742728 12.372897  5.657299
  S    10.307647  8.095449  4.376637
  S    10.157291 11.847541  4.196535
  S    13.100381  8.898495  1.492865
  S    13.299819 12.523704  1.621592
  S    12.606599  9.089907  5.574108
  S    12.326202 12.678600  5.623312
