16  
    
  C     4.047504  4.666172  1.726360
  C     3.896109  8.406007  1.684327
  C     2.740770  4.336610  1.152060
  C     2.693711  8.033640  0.934753
  N     5.045837  4.606243  0.860448
  N     4.970506  8.443053  0.917709
  N     2.747430  4.050526 -0.138883
  N     2.915133  7.804030 -0.336146
  N     2.187790  4.823771  3.550958
  N     2.009648  8.283902  3.368878
  S     1.357360  4.500217  2.140510
  S     1.279381  7.810136  1.915155
  S     4.330001  4.252107 -0.613364
  S     4.525151  7.978901 -0.573911
  S     3.867580  4.954045  3.429103
  S     3.579406  8.809664  3.332153
