16  
    
  C    12.694047  8.920792  3.900586
  C    12.622245 12.758938  3.928765
  C    11.584937  8.333922  3.235390
  C    11.475130 12.333494  3.182939
  N    13.649882  9.223996  3.015112
  N    13.704730 13.019085  3.164292
  N    11.603633  8.282470  1.897070
  N    11.708546 12.002210  1.920606
  N    10.961349  8.601739  5.796197
  N    10.719642 12.360472  5.676683
  S    10.308955  8.109856  4.340992
  S    10.134532 11.854442  4.173781
  S    13.082602  8.861955  1.477072
  S    13.285184 12.513263  1.634280
  S    12.618700  9.068511  5.609590
  S    12.297036 12.716847  5.647165
