16  
    
  C    10.727077  8.362240  2.980760
  C    10.768435 11.817175  3.074276
  C     9.552070  7.875214  2.340858
  C     9.589542 11.401868  2.304094
  N    11.721088  8.447344  2.119764
  N    11.857969 12.030520  2.354123
  N     9.625751  7.545455  1.080442
  N     9.851627 11.168620  1.025712
  N     8.990598  8.012826  4.795719
  N     8.865077 11.768016  4.793926
  S     8.198234  7.703042  3.427916
  S     8.194776 11.295659  3.313947
  S    11.182101  8.047723  0.625224
  S    11.458397 11.504014  0.831047
  S    10.579964  8.515481  4.734207
  S    10.489689 12.127552  4.770890
