16  
    
  C     6.815391  6.043159  2.356966
  C     7.260378  9.580459  2.092394
  C     5.718282  5.382582  1.664306
  C     5.950426  9.329261  1.469469
  N     7.737297  6.583358  1.570973
  N     8.294808  9.752506  1.288184
  N     5.953425  5.335784  0.363939
  N     6.114970  9.245428  0.144147
  N     5.044808  5.418502  4.149665
  N     5.576247  9.827294  3.959072
  S     4.424607  4.811159  2.689134
  S     4.624566  9.365868  2.626837
  S     7.353838  6.173177  0.019278
  S     7.689525  9.517502 -0.286924
  S     6.568368  6.205034  4.077390
  S     7.172266  9.762432  3.786497
