16  
    
  C     5.608731  5.423591  1.956234
  C     5.572754  9.003264  1.884191
  C     4.446403  4.757672  1.425343
  C     4.432157  8.456972  1.226175
  N     6.525138  5.709182  1.043794
  N     6.620390  9.208823  1.099021
  N     4.508120  4.375602  0.161379
  N     4.530904  8.369778 -0.085100
  N     4.074511  4.942480  3.928415
  N     3.910961  8.451492  3.762188
  S     3.222761  4.348064  2.605582
  S     3.142728  8.105933  2.382247
  S     5.931646  5.058548 -0.423811
  S     6.114202  8.887401 -0.457267
  S     5.523586  5.716982  3.731480
  S     5.407066  9.114312  3.582244
