16  
    
  C     7.988691  6.680151  2.633346
  C     8.596571 10.363843  2.563444
  C     6.879109  6.134111  1.960860
  C     7.375843  9.952533  1.976143
  N     9.088874  6.759768  1.878301
  N     9.613429 10.335153  1.726517
  N     7.076155  5.946504  0.668203
  N     7.411747  9.645298  0.689035
  N     6.127951  6.227656  4.365400
  N     6.906645 10.269753  4.527991
  S     5.405693  5.899230  2.875638
  S     6.097927  9.760669  3.169562
  S     8.629594  6.332326  0.349236
  S     8.990283  9.926480  0.196134
  S     7.653486  6.818907  4.402414
  S     8.500995 10.693007  4.272215
