16  
    
  C     8.495507  6.706608  2.300875
  C     8.151380 10.362700  2.588748
  C     7.318343  6.130971  1.783241
  C     7.101355  9.735996  1.878128
  N     9.497855  6.747312  1.438373
  N     9.287610 10.452812  1.928126
  N     7.295098  5.874992  0.489857
  N     7.436577  9.410868  0.637794
  N     6.829888  6.438212  4.271807
  N     6.289187  9.750520  4.278076
  S     5.981398  5.974828  2.853201
  S     5.776837  9.173317  2.822130
  S     8.852702  6.308826 -0.047586
  S     9.050788  9.878324  0.421125
  S     8.392941  7.047007  4.044194
  S     7.744701 10.534369  4.328693
