16  
    
  C     5.545025  5.511942  1.933192
  C     5.576350  8.940266  1.868878
  C     4.419397  4.733673  1.440981
  C     4.381477  8.454148  1.175276
  N     6.477449  5.796358  1.034264
  N     6.540015  9.277729  1.027477
  N     4.416022  4.582148  0.119455
  N     4.557180  8.229858 -0.122735
  N     4.113703  4.903073  3.986379
  N     3.740341  8.525670  3.653184
  S     3.180708  4.577482  2.685126
  S     3.005796  8.149163  2.136165
  S     5.888987  5.161779 -0.404340
  S     6.126221  8.781654 -0.501839
  S     5.563220  5.610028  3.624580
  S     5.328874  9.120678  3.565971
