16  
    
  C     9.861555  7.572713  2.659877
  C     9.865175 11.249701  3.009447
  C     8.605222  7.257642  2.027640
  C     8.738713 10.643584  2.255406
  N    10.845867  7.838180  1.798589
  N    10.864958 11.582793  2.169850
  N     8.698515  7.161501  0.687830
  N     8.980669 10.451978  0.957200
  N     8.120483  7.383549  4.583179
  N     8.076780 10.662000  4.779849
  S     7.273875  7.113140  3.188091
  S     7.377511 10.354449  3.300155
  S    10.283012  7.474295  0.324451
  S    10.461443 11.059538  0.626104
  S     9.788382  7.707878  4.316105
  S     9.562579 11.446822  4.688852
