16  
    
  C    10.665648  7.639636  3.051446
  C    10.659353 11.815506  3.141676
  C     9.388556  7.294734  2.462943
  C     9.405477 11.236367  2.704996
  N    11.605682  7.975487  2.197779
  N    11.460464 12.064685  2.129184
  N     9.385389  7.357201  1.130977
  N     9.378238 10.958337  1.418883
  N     9.062784  7.486639  4.975872
  N     9.242751 11.474223  5.266834
  S     8.169951  7.047999  3.698933
  S     8.292419 10.911022  3.991235
  S    10.914729  7.806899  0.716106
  S    10.716503 11.582489  0.727858
  S    10.632393  7.759139  4.818202
  S    10.605759 12.288796  4.797160
