16  
    
  C     7.566628  6.550797  2.332170
  C     7.673025 10.046683  2.347088
  C     6.273649  6.209470  1.835268
  C     6.508239  9.714288  1.578849
  N     8.499771  6.655920  1.391728
  N     8.760102 10.121290  1.582622
  N     6.269847  5.754738  0.569460
  N     6.717813  9.524995  0.269572
  N     6.133966  6.470853  4.351496
  N     5.869947 10.048322  4.052792
  S     5.072546  6.127038  3.068072
  S     5.085446  9.667806  2.612096
  S     7.874764  6.042402  0.009185
  S     8.371343  9.843736  0.048511
  S     7.698900  6.830063  4.021804
  S     7.496353 10.225874  4.015646
