16  
    
  C    11.324800  8.526460  3.348916
  C    11.421657 12.318936  3.307940
  C    10.164319  7.921060  2.740844
  C    10.234008 11.672672  2.793750
  N    12.393282  8.610784  2.582525
  N    12.421244 12.479226  2.432416
  N    10.426086  7.510626  1.535900
  N    10.308862 11.324848  1.499880
  N     9.517658  8.422948  5.164811
  N     9.746396 12.410147  5.205809
  S     8.767397  7.780715  3.784762
  S     8.906102 11.746398  3.985565
  S    11.974018  7.987762  1.116421
  S    11.896500 11.672745  1.065407
  S    11.118610  8.945055  5.000548
  S    11.293657 12.759206  4.944609
