16  
    
  C     5.375326  5.441106  1.776807
  C     5.166645  8.845957  1.763975
  C     4.151333  5.220365  0.980929
  C     3.928069  8.506868  1.107511
  N     6.473690  5.563049  1.043732
  N     6.167792  9.082310  0.930065
  N     4.355605  5.115378 -0.320468
  N     3.995262  8.532268 -0.199099
  N     3.411675  5.316472  3.451762
  N     3.432664  8.437563  3.591324
  S     2.717790  5.183926  1.962980
  S     2.618868  8.305752  2.160272
  S     6.007923  5.261734 -0.557201
  S     5.530822  9.010267 -0.584328
  S     5.090034  5.748029  3.472822
  S     4.990047  8.900458  3.451363
