16  
    
  C     4.720472  5.040316  2.108524
  C     4.741100  8.712534  1.544106
  C     3.555956  4.650788  1.335059
  C     3.569915  8.294549  0.879828
  N     5.853508  5.146228  1.386353
  N     5.731559  9.097250  0.753804
  N     3.760460  4.618546  0.036209
  N     3.699958  8.256305 -0.441593
  N     2.702930  4.826241  3.754699
  N     2.965948  8.302726  3.449598
  S     2.061329  4.567524  2.231061
  S     2.272920  7.838712  1.997716
  S     5.372921  4.844865 -0.227263
  S     5.168620  8.859704 -0.815589
  S     4.319868  5.148174  3.809125
  S     4.565512  8.808393  3.260859
