16  
    
  C     9.265853  6.768368  2.373961
  C     9.188408 10.817541  2.958245
  C     8.057825  6.266054  1.768590
  C     7.927713 10.429434  2.340909
  N    10.345877  6.731090  1.591423
  N    10.261806 10.718098  2.147228
  N     8.238779  5.754735  0.551477
  N     8.059404 10.065820  1.085510
  N     7.388110  6.884000  4.172605
  N     7.371272 10.943607  4.817710
  S     6.689259  6.350726  2.800292
  S     6.567803 10.647409  3.382369
  S     9.797356  6.006442  0.197050
  S     9.636479 10.118027  0.716259
  S     9.010219  7.233114  4.059876
  S     9.044915 11.092339  4.663297
