16  
    
  C     8.399721  6.619569  2.575301
  C     8.825911 10.425511  2.822266
  C     7.204040  6.183072  1.826463
  C     7.576058 10.051691  2.173451
  N     9.408804  6.949355  1.740732
  N     9.805311 10.571496  1.953916
  N     7.476162  6.002636  0.534466
  N     7.682035  9.879622  0.856654
  N     6.447164  6.284640  4.278533
  N     6.976290 10.321438  4.628413
  S     5.775321  5.885510  2.742742
  S     6.244119  9.952047  3.208911
  S     8.995967  6.534148  0.225472
  S     9.262616 10.177437  0.482734
  S     7.986954  6.879909  4.280935
  S     8.628550 10.501755  4.569387
