16  
    
  C     9.641760  7.361045  2.849566
  C     9.729866 10.947550  2.836970
  C     8.496621  6.878752  2.090725
  C     8.464139 10.545248  2.170471
  N    10.715504  7.683321  2.158447
  N    10.722267 11.245552  2.018004
  N     8.779285  6.865438  0.790543
  N     8.639799 10.453659  0.854651
  N     7.832442  6.823773  4.622848
  N     7.897637 10.760062  4.709512
  S     7.161280  6.477735  3.144653
  S     7.204456 10.219449  3.282259
  S    10.344882  7.416689  0.585281
  S    10.154797 10.926177  0.461659
  S     9.344048  7.542171  4.559453
  S     9.524087 11.142122  4.571049
