16  
    
  C     4.912827  4.924818  1.800067
  C     4.693306  8.842157  1.733898
  C     3.633359  4.556183  1.273809
  C     3.379532  8.538661  1.186948
  N     5.875871  4.904591  0.858057
  N     5.567153  9.269087  0.831715
  N     3.550699  4.475031 -0.056427
  N     3.345304  8.472656 -0.140976
  N     3.228559  4.490259  3.752500
  N     3.174880  8.467275  3.773412
  S     2.366560  4.448963  2.345454
  S     2.191013  8.167242  2.391620
  S     5.081092  4.730540 -0.578907
  S     4.893319  8.963839 -0.628886
  S     4.816375  4.903468  3.584887
  S     4.798283  8.848409  3.461292
