16  
    
  C     5.750940  5.663003  1.858784
  C     5.921814  9.026252  2.061605
  C     4.534450  5.343754  1.243710
  C     4.673652  8.755547  1.428491
  N     6.825310  5.533125  1.107308
  N     6.989973  9.090495  1.275309
  N     4.675142  4.969073 -0.023558
  N     4.840389  8.479226  0.143937
  N     3.950160  5.602345  3.750206
  N     4.069029  8.876743  3.920910
  S     3.190449  5.273401  2.370105
  S     3.264523  8.577634  2.428648
  S     6.286029  5.061202 -0.371455
  S     6.418045  8.707058 -0.227240
  S     5.598011  5.752855  3.554500
  S     5.735094  9.069509  3.807031
