16  
    
  C     8.194816  6.567387  2.560672
  C     8.581488 10.186472  2.367010
  C     6.914099  6.240468  1.840662
  C     7.265943  9.757051  1.852649
  N     9.234371  6.783531  1.743462
  N     9.501231 10.289688  1.414300
  N     7.092891  6.007575  0.553200
  N     7.209711  9.471888  0.534483
  N     6.268248  6.316493  4.322001
  N     6.879281 10.368332  4.358335
  S     5.550450  5.937059  2.833554
  S     6.024745  9.775631  3.044776
  S     8.650244  6.419462  0.152997
  S     8.703867  9.917593 -0.054052
  S     7.920932  6.766552  4.294777
  S     8.525686 10.490625  4.101758
