16  
    
  C     9.595679  7.336119  2.889831
  C     9.697522 10.928698  2.824821
  C     8.500260  6.891716  2.088850
  C     8.509548 10.544686  2.173886
  N    10.678791  7.647988  2.185553
  N    10.715232 11.220321  1.978806
  N     8.777969  6.827394  0.769857
  N     8.583175 10.423496  0.844681
  N     7.824687  6.792550  4.669866
  N     7.893681 10.754245  4.701881
  S     7.152220  6.419369  3.143508
  S     7.170608 10.223023  3.274709
  S    10.355999  7.424769  0.603524
  S    10.130431 10.924635  0.456135
  S     9.327262  7.518629  4.571635
  S     9.525432 11.122285  4.550906
