16  
    
  C     6.627158  5.759909  2.143895
  C     6.192139  9.233156  1.899486
  C     5.422497  5.318445  1.449193
  C     5.034482  8.738529  1.191294
  N     7.617526  6.102489  1.312068
  N     7.288173  9.405015  1.162618
  N     5.675710  5.059538  0.166656
  N     5.248678  8.617561 -0.118400
  N     4.736617  5.626701  3.906898
  N     4.363281  9.019665  3.716732
  S     3.996113  5.076327  2.417429
  S     3.644492  8.538620  2.234405
  S     7.158587  5.651419 -0.249432
  S     6.816174  9.096949 -0.399896
  S     6.333961  6.053500  3.838317
  S     6.021502  9.347186  3.599777
