16  
    
  C    11.372267  8.513383  3.382601
  C    11.477655 12.418117  3.311017
  C    10.220706  7.871634  2.792293
  C    10.313473 11.816718  2.686695
  N    12.389816  8.667413  2.525474
  N    12.482458 12.570270  2.470324
  N    10.388455  7.643132  1.472243
  N    10.528085 11.306388  1.465757
  N     9.482375  8.566210  5.209476
  N     9.575570 12.363227  5.127194
  S     8.931050  7.721977  3.855903
  S     8.921687 11.583974  3.750051
  S    11.905235  8.085476  1.062862
  S    12.001691 11.919078  1.031030
  S    11.051020  9.138973  4.993187
  S    11.226489 12.725558  5.045243
