16  
    
  C     4.254261  4.904153  1.477440
  C     4.216991  8.368386  1.382371
  C     3.008203  4.552406  0.852511
  C     3.013441  7.976265  0.732866
  N     5.281748  4.913278  0.639053
  N     5.246930  8.458240  0.562267
  N     3.095775  4.363246 -0.479379
  N     3.113056  7.681321 -0.554353
  N     2.423509  4.731485  3.368789
  N     2.421102  8.311293  3.239830
  S     1.647735  4.498389  1.938560
  S     1.656222  7.907126  1.828926
  S     4.650496  4.633636 -0.877583
  S     4.679651  8.067162 -0.949279
  S     4.085743  4.991442  3.270568
  S     4.036932  8.638552  3.080307
