16  
    
  C    12.815984  9.011213  3.467831
  C    12.747389 12.763758  3.420653
  C    11.551325  8.454420  3.016536
  C    11.524475 12.325389  2.764723
  N    13.660352  9.366613  2.491022
  N    13.800290 12.963373  2.643244
  N    11.494083  8.329846  1.673020
  N    11.774500 12.041889  1.475438
  N    11.094668  9.089337  5.511387
  N    11.040048 12.351197  5.281913
  S    10.288020  8.370617  4.206281
  S    10.271611 11.944200  3.875981
  S    12.975164  8.873779  1.085068
  S    13.283730 12.530938  1.057634
  S    12.737091  9.289441  5.208350
  S    12.583533 12.879795  5.167421
