16  
    
  C    11.054321  8.284026  2.950490
  C    10.809005 11.929455  3.021079
  C     9.849835  7.702872  2.341236
  C     9.662147 11.320866  2.372678
  N    12.017390  8.458072  2.078175
  N    11.814681 12.177877  2.200343
  N     9.961636  7.464645  1.051942
  N     9.778602 11.105749  1.073778
  N     9.375603  7.819327  4.923899
  N     9.044620 11.579155  4.890652
  S     8.586873  7.426007  3.491840
  S     8.362151 11.021292  3.475711
  S    11.513064  7.951703  0.574512
  S    11.328044 11.655840  0.702024
  S    10.950034  8.540488  4.653821
  S    10.614261 12.058827  4.834250
