16  
    
  C    10.530503  7.646207  3.030848
  C    10.601970 11.770715  3.040854
  C     9.266897  7.292461  2.482193
  C     9.404041 11.036161  2.672072
  N    11.516111  7.862431  2.166718
  N    11.486112 12.005800  2.085707
  N     9.271755  7.267237  1.152315
  N     9.245561 10.920208  1.366792
  N     8.782127  7.368278  5.047389
  N     9.229969 11.452772  5.211613
  S     7.998772  6.981665  3.584597
  S     8.269635 10.882550  3.988715
  S    10.789289  7.800100  0.648134
  S    10.721750 11.487177  0.684469
  S    10.476250  7.671641  4.793297
  S    10.618939 12.266190  4.786506
