16  
    
  C     3.577616  4.935105  1.556556
  C     3.910856  8.201273  1.685991
  C     2.427950  4.355896  0.913407
  C     2.615464  8.008091  1.125544
  N     4.618235  5.054927  0.723520
  N     4.896886  8.331603  0.790766
  N     2.456250  4.202468 -0.402612
  N     2.642674  7.782645 -0.195113
  N     1.951082  4.308422  3.437714
  N     2.133227  8.209565  3.639040
  S     1.123864  4.023831  2.032835
  S     1.302392  7.859213  2.261331
  S     4.091359  4.618841 -0.793349
  S     4.220828  8.065189 -0.697551
  S     3.509271  4.783121  3.304200
  S     3.747461  8.601398  3.410717
