16  
    
  C     9.143081  6.807045  2.574872
  C     9.702155 10.767414  2.775290
  C     7.942809  6.423329  1.841629
  C     8.456688 10.194542  2.204753
  N    10.199061  7.103150  1.821876
  N    10.627200 11.063578  1.883399
  N     8.171424  6.274889  0.536604
  N     8.564398 10.045955  0.869781
  N     7.349347  6.533501  4.413827
  N     8.081663 10.255894  4.793682
  S     6.649855  5.970038  3.029122
  S     7.307193  9.754617  3.418676
  S     9.733497  6.759648  0.273918
  S     9.982055 10.650787  0.369849
  S     9.011206  6.764596  4.262308
  S     9.586739 10.941990  4.492009
