16  
    
  C     7.727074  6.715403  2.435395
  C     7.865947 10.144717  2.077903
  C     6.552347  6.181202  1.744035
  C     6.565931  9.904745  1.452618
  N     8.839850  6.660866  1.687763
  N     8.856383 10.037444  1.181283
  N     6.794235  5.871281  0.446444
  N     6.599369  9.686310  0.131877
  N     5.891341  6.546561  4.243391
  N     6.160206 10.316564  3.976818
  S     5.150980  6.091509  2.737347
  S     5.279265  9.907948  2.606897
  S     8.435841  6.140330  0.166626
  S     8.275634  9.885745 -0.298907
  S     7.464037  7.008672  4.141093
  S     7.798775 10.559728  3.720754
