16  
    
  C    10.603692  7.638354  3.094202
  C    10.628449 11.776481  3.116874
  C     9.330393  7.293533  2.474026
  C     9.419956 11.124318  2.686404
  N    11.545957  7.884469  2.171631
  N    11.482187 12.024808  2.113626
  N     9.299281  7.275707  1.137674
  N     9.312517 10.943572  1.364980
  N     8.934246  7.427249  5.017396
  N     9.227708 11.438331  5.218588
  S     8.063149  7.008649  3.632407
  S     8.278516 10.897806  4.000482
  S    10.856006  7.822559  0.662510
  S    10.703512 11.527666  0.691932
  S    10.555419  7.710923  4.809279
  S    10.614999 12.301354  4.801914
