16  
    
  C    11.909093  8.562585  3.191412
  C    11.412445 12.108957  3.500688
  C    10.642625  8.229942  2.625291
  C    10.223885 11.640648  2.794940
  N    12.899064  8.767266  2.360119
  N    12.417689 12.464564  2.717410
  N    10.658447  8.212370  1.316248
  N    10.357453 11.542120  1.470302
  N    10.259882  8.005131  5.138255
  N     9.616779 11.639161  5.341717
  S     9.318676  7.992497  3.757446
  S     9.019933 11.106766  3.862601
  S    12.235506  8.604887  0.809594
  S    11.950206 11.960081  1.177732
  S    11.811463  8.416902  4.926734
  S    11.208423 12.273300  5.196714
