16  
    
  C    12.084436  8.583886  3.565470
  C    11.979950 12.255419  3.258697
  C    10.880765  8.057902  2.930162
  C    10.674320 11.879118  2.700414
  N    13.105754  8.797076  2.725219
  N    12.965169 12.324385  2.348643
  N    10.985618  7.984882  1.621560
  N    10.732330 11.488122  1.436928
  N    10.190776  8.323448  5.381995
  N    10.298288 11.931204  5.126970
  S     9.501044  7.903560  3.973418
  S     9.377636 11.544385  3.821844
  S    12.564777  8.335161  1.250629
  S    12.252270 11.830457  0.877600
  S    11.779336  8.812618  5.284646
  S    11.859579 12.196042  4.998600
