16  
    
  C     5.370101  5.433590  1.744677
  C     5.094746  8.921444  1.712272
  C     4.154662  5.096680  1.098556
  C     3.869233  8.549617  1.064398
  N     6.490186  5.423246  1.001872
  N     6.052474  9.287236  0.854142
  N     4.266482  4.964358 -0.231319
  N     4.022285  8.352117 -0.251940
  N     3.563889  5.404134  3.649300
  N     3.363788  8.697003  3.612327
  S     2.806445  5.235500  2.200774
  S     2.542912  8.332353  2.176210
  S     5.877932  5.281759 -0.553264
  S     5.540875  8.863516 -0.679575
  S     5.274958  5.505015  3.456899
  S     5.018176  8.887546  3.482653
