16  
    
  C     5.507332  5.308219  1.790597
  C     5.073429  9.068138  1.659794
  C     4.214734  5.134361  1.223815
  C     3.899940  8.560355  1.031227
  N     6.453386  5.479615  0.857697
  N     6.154908  9.236701  0.879595
  N     4.182960  5.021319 -0.096266
  N     4.052816  8.334270 -0.268939
  N     3.777918  5.317538  3.682813
  N     3.356514  8.739776  3.542420
  S     2.887308  5.204895  2.327101
  S     2.577636  8.290698  2.145144
  S     5.740043  5.204901 -0.603189
  S     5.584318  8.742250 -0.598228
  S     5.447021  5.396531  3.597783
  S     4.980635  9.005190  3.369832
