16  
    
  C    12.471396  9.218711  3.429433
  C    12.427822 12.719249  3.407794
  C    11.170361  8.743005  2.887710
  C    11.214556 12.157472  2.821196
  N    13.417664  9.054784  2.526671
  N    13.457315 12.808570  2.533434
  N    11.092134  8.372815  1.636901
  N    11.323565 11.917983  1.513213
  N    10.759594  9.278368  5.371251
  N    10.600782 12.439777  5.341359
  S     9.882700  8.635914  4.042166
  S     9.904864 11.983876  3.902309
  S    12.685998  8.515910  1.083863
  S    12.855063 12.248199  1.049015
  S    12.380759  9.548956  5.188067
  S    12.125362 13.204086  5.055663
