16  
    
  C     5.469470  5.538576  1.657948
  C     5.338459  8.890369  1.692719
  C     4.263095  5.036877  1.067268
  C     4.155482  8.426118  0.929777
  N     6.464577  5.715824  0.757155
  N     6.375517  9.217763  0.913947
  N     4.305995  4.989256 -0.263066
  N     4.419342  8.166129 -0.353021
  N     3.665430  5.158234  3.568403
  N     3.330853  8.727405  3.368724
  S     2.851132  5.058491  2.069159
  S     2.693588  8.344294  1.904114
  S     5.778880  5.485488 -0.724674
  S     5.965614  8.705933 -0.633594
  S     5.291983  5.674285  3.399910
  S     4.968896  9.155473  3.373142
