16  
    
  C     5.508946  5.277463  1.820289
  C     5.205769  8.957857  1.686880
  C     4.149596  5.220229  1.287680
  C     4.018825  8.433268  0.984566
  N     6.457696  5.331069  0.881424
  N     6.300058  9.007873  0.912775
  N     4.144536  5.018558 -0.033901
  N     4.182029  8.366468 -0.348572
  N     4.026759  5.139591  3.827736
  N     3.407861  8.643063  3.504495
  S     3.004225  5.081370  2.609121
  S     2.680319  8.205147  2.082895
  S     5.712521  5.269998 -0.547542
  S     5.768247  8.687843 -0.647945
  S     5.615884  5.423142  3.531348
  S     4.906737  9.275920  3.430841
