16  
    
  C     5.753199  5.099627  1.885074
  C     5.694203  9.348677  2.015450
  C     4.588095  4.606426  1.126553
  C     4.577824  8.585947  1.457302
  N     6.852030  5.253125  1.156938
  N     6.635306  9.613403  1.132600
  N     4.887050  4.221527 -0.125442
  N     4.666859  8.310431  0.164138
  N     3.929097  4.668695  3.723249
  N     4.137226  8.740315  3.998793
  S     3.207719  4.310518  2.199662
  S     3.353016  8.281062  2.597470
  S     6.482047  4.743008 -0.416411
  S     6.106145  8.976021 -0.330445
  S     5.528323  5.322406  3.600392
  S     5.596696  9.498178  3.712044
