16  
    
  C     9.172614  6.761374  2.349026
  C     9.147754 10.820726  2.998146
  C     7.969237  6.258734  1.780008
  C     7.905596 10.425702  2.419170
  N    10.253929  6.786161  1.571719
  N    10.155669 10.892859  2.125135
  N     8.198595  5.738561  0.575480
  N     7.981285  9.978978  1.156473
  N     7.418600  7.019205  4.165299
  N     7.391420 10.986916  4.834479
  S     6.597624  6.320379  2.897779
  S     6.563441 10.567986  3.462437
  S     9.803162  6.089669  0.194828
  S     9.595007 10.380177  0.693862
  S     9.094174  7.237201  3.996254
  S     9.018015 11.175435  4.708198
