16  
    
  C    11.777515  8.576907  3.165070
  C    11.305035 12.153110  3.350055
  C    10.486676  8.169858  2.613274
  C    10.245658 11.479800  2.643328
  N    12.760725  8.827096  2.291800
  N    12.293084 12.612077  2.587310
  N    10.546640  8.163357  1.278657
  N    10.407006 11.545667  1.305388
  N    10.150931  8.104425  5.144503
  N     9.586381 11.729380  5.106709
  S     9.284856  7.716385  3.816038
  S     8.847708 11.342628  3.721047
  S    12.023855  8.631781  0.817665
  S    11.929036 12.196888  1.063576
  S    11.698499  8.705241  4.894002
  S    11.100504 12.254456  5.070013
