16  
    
  C     6.616266  5.751136  2.089544
  C     6.517790  9.431701  1.881008
  C     5.353311  5.370665  1.435249
  C     5.341014  8.866772  1.225477
  N     7.610552  5.960188  1.231733
  N     7.561129  9.705004  1.105860
  N     5.421610  5.213356  0.105905
  N     5.489517  8.815295 -0.099522
  N     4.836098  5.794563  3.975627
  N     4.690675  9.087794  3.733205
  S     4.042896  5.215948  2.619744
  S     4.078215  8.486303  2.323038
  S     7.006079  5.612103 -0.270334
  S     7.065656  9.232171 -0.397129
  S     6.478264  6.077388  3.767713
  S     6.346642  9.516438  3.584896
