16  
    
  C    10.483679  7.217802  2.790906
  C    10.282091 11.102657  2.747502
  C     9.162375  7.379043  2.171656
  C     8.976280 10.837379  2.122566
  N    11.531564  7.109781  1.974676
  N    11.316590 11.164849  1.923209
  N     9.213725  7.294457  0.828316
  N     9.089024 10.700421  0.804226
  N     8.835660  7.315790  4.669013
  N     8.543063 11.038903  4.619901
  S     7.917037  7.696382  3.345779
  S     7.683344 10.757677  3.245088
  S    10.869081  7.195076  0.417056
  S    10.672867 10.892965  0.352426
  S    10.461518  7.284257  4.515808
  S    10.158656 11.419047  4.436988
