16  
    
  C     9.201337  6.742199  2.541193
  C     9.631401 10.754735  2.765270
  C     8.014872  6.300848  1.870419
  C     8.473671 10.160970  2.203646
  N    10.244431  7.008621  1.756223
  N    10.610379 10.963554  1.878244
  N     8.126811  6.303937  0.553447
  N     8.426832 10.055778  0.898466
  N     7.362055  6.487585  4.354325
  N     8.080723 10.360791  4.782694
  S     6.653302  5.978495  2.952660
  S     7.251660  9.825678  3.430732
  S     9.747291  6.740296  0.200633
  S     9.994232 10.575512  0.396416
  S     8.996888  6.780687  4.276106
  S     9.597812 10.933567  4.514759
