16  
    
  C     6.676155  5.668033  1.933747
  C     6.671637  9.585171  1.920616
  C     5.339322  5.495555  1.342194
  C     5.386999  9.158297  1.381479
  N     7.616087  5.838820  1.006692
  N     7.639004  9.693080  1.017731
  N     5.330201  5.311097  0.019325
  N     5.365263  8.997913  0.062523
  N     4.991765  5.865649  3.892691
  N     4.985008  9.272320  3.919828
  S     4.042763  5.435326  2.514738
  S     4.153268  8.973231  2.522336
  S     6.906161  5.521476 -0.476164
  S     6.891801  9.242250 -0.406145
  S     6.625475  5.984397  3.670041
  S     6.579780  9.759620  3.649245
