16  
    
  C    10.021133  7.791583  2.642198
  C    10.589187 11.504582  3.071050
  C     8.938598  6.978234  2.011245
  C     9.395743 11.171584  2.292769
  N    11.009804  8.143190  1.846430
  N    11.705570 11.614443  2.358353
  N     9.243690  6.708755  0.751626
  N     9.701445 10.959307  1.032032
  N     8.176211  7.536599  4.387361
  N     8.570287 11.335211  4.687272
  S     7.559799  6.754723  3.075263
  S     7.929089 11.279906  3.181242
  S    10.697185  7.367691  0.432795
  S    11.316646 11.269646  0.809603
  S     9.736813  8.159779  4.359525
  S    10.239470 11.590525  4.770729
