16  
    
  C     9.386162  7.016488  2.910213
  C     9.644099 10.824562  2.610962
  C     8.171371  6.552977  2.243538
  C     8.449901 10.208566  1.983665
  N    10.395303  7.307978  2.078141
  N    10.616117 11.186752  1.797529
  N     8.268358  6.524868  0.915092
  N     8.586000 10.242233  0.655462
  N     7.546671  6.558448  4.758057
  N     7.968679 10.296779  4.512232
  S     6.932287  5.955189  3.306794
  S     7.224178  9.788656  3.131333
  S     9.760719  7.035593  0.540863
  S    10.013973 10.897670  0.238925
  S     9.160382  6.908346  4.681362
  S     9.527567 10.872290  4.335560
