16  
    
  C     3.913455  4.683350  1.677207
  C     3.830854  8.380384  1.726624
  C     2.645559  4.352715  1.069469
  C     2.629427  7.991694  0.960019
  N     4.931303  4.602674  0.804891
  N     4.944833  8.406964  0.984658
  N     2.683316  4.128920 -0.237536
  N     2.878864  7.653261 -0.312031
  N     2.144966  4.790702  3.572897
  N     1.933334  8.278082  3.463090
  S     1.307178  4.600594  2.134201
  S     1.262748  7.854123  1.997558
  S     4.247394  4.188626 -0.671641
  S     4.484442  7.952913 -0.567622
  S     3.749163  4.949459  3.457469
  S     3.461694  8.849149  3.354727
