16  
    
  C     9.877773  7.636537  2.700243
  C     9.892272 11.274161  2.941736
  C     8.621892  7.292826  2.057663
  C     8.676062 10.814440  2.239754
  N    10.930726  7.817019  1.905721
  N    10.980133 11.410262  2.133603
  N     8.778598  7.288291  0.730983
  N     8.857151 10.746595  0.902917
  N     8.165463  7.295510  4.520819
  N     8.024283 11.082664  4.728650
  S     7.300401  7.211385  3.153529
  S     7.324131 10.603902  3.297007
  S    10.386853  7.570716  0.366084
  S    10.461239 11.091254  0.621474
  S     9.755150  7.772205  4.415954
  S     9.627847 11.371417  4.688239
