16  
    
  C    10.264047  7.165962  2.684872
  C    10.343680 10.995504  2.767630
  C     8.985943  6.946606  2.043985
  C     9.034791 10.769959  2.095204
  N    11.312733  7.335279  1.886864
  N    11.371785 11.074722  1.930133
  N     9.147476  6.925908  0.735723
  N     9.120095 10.761014  0.781631
  N     8.547111  7.392634  4.545509
  N     8.564700 10.728558  4.621600
  S     7.651032  7.037332  3.222632
  S     7.717060 10.955084  3.195654
  S    10.732433  7.208830  0.365185
  S    10.728666 10.974848  0.443529
  S    10.169184  7.424767  4.368066
  S    10.175679 11.002960  4.521431
