16  
    
  C     7.670253  6.592546  2.372927
  C     7.773414 10.109452  2.218276
  C     6.407016  6.142413  1.851568
  C     6.566617  9.849896  1.530782
  N     8.624364  6.625877  1.459951
  N     8.810375 10.152379  1.411722
  N     6.445480  5.782475  0.592708
  N     6.672050  9.590435  0.238169
  N     5.956721  6.759985  4.356127
  N     5.873013  9.986374  4.026480
  S     5.088811  6.173878  3.030666
  S     5.106010  9.889580  2.519896
  S     7.986791  6.072907  0.032124
  S     8.347210  9.754698 -0.085732
  S     7.574940  6.990635  4.069017
  S     7.502369 10.207219  3.935248
