16  
    
  C     5.362457  5.323626  1.767360
  C     5.142302  8.898028  1.724696
  C     4.147905  5.192574  1.025364
  C     3.941198  8.433241  1.110035
  N     6.449813  5.562185  1.019122
  N     6.165621  9.165264  0.906003
  N     4.357187  5.074407 -0.287246
  N     3.951075  8.473932 -0.225519
  N     3.533983  5.356807  3.490977
  N     3.380042  8.501371  3.593962
  S     2.696081  5.215979  2.072948
  S     2.579102  8.337460  2.188989
  S     6.000060  5.262434 -0.556638
  S     5.518026  8.975329 -0.624663
  S     5.116012  5.675167  3.453389
  S     5.000558  8.888308  3.460563
