16  
    
  C     5.765741  5.551477  1.797306
  C     5.888043  8.973324  2.117954
  C     4.523833  5.261163  1.131932
  C     4.692215  8.646376  1.402214
  N     6.818359  5.513975  1.005781
  N     6.980173  9.035051  1.386866
  N     4.598520  4.907328 -0.154401
  N     4.800696  8.547418  0.070550
  N     4.002990  5.533462  3.645105
  N     4.159282  8.772599  3.950653
  S     3.192885  5.092299  2.260570
  S     3.358114  8.528705  2.531519
  S     6.256157  5.000466 -0.476651
  S     6.448892  8.709547 -0.193137
  S     5.710387  5.699612  3.543731
  S     5.764833  9.050534  3.855857
