16  
    
  C     8.483347  6.716136  2.306607
  C     8.146784 10.357865  2.588999
  C     7.305646  6.109785  1.779709
  C     7.089736  9.720888  1.871865
  N     9.497378  6.742793  1.448264
  N     9.282354 10.451180  1.937759
  N     7.294477  5.869881  0.474189
  N     7.426253  9.407344  0.625508
  N     6.832134  6.444342  4.270366
  N     6.290181  9.747118  4.282742
  S     5.976662  5.984949  2.852754
  S     5.773664  9.167588  2.833425
  S     8.851808  6.300701 -0.045097
  S     9.046718  9.872751  0.423282
  S     8.375441  7.051181  4.033397
  S     7.743625 10.531873  4.325019
