16  
    
  C     6.722594  5.799874  2.270053
  C     6.766755  9.724591  2.331854
  C     5.445457  5.422797  1.757053
  C     5.565009  9.250650  1.741708
  N     7.597724  6.161469  1.348088
  N     7.747646  9.967136  1.478581
  N     5.449178  5.258162  0.437839
  N     5.567864  9.213955  0.418185
  N     5.170471  5.527128  4.322655
  N     5.104655  9.615345  4.273692
  S     4.216756  5.091997  2.980032
  S     4.257147  9.087124  2.929248
  S     6.925295  5.797570 -0.122520
  S     7.158344  9.622541 -0.042030
  S     6.721447  6.003803  3.962377
  S     6.809781  9.939385  4.021875
