16  
    
  C     9.233386  6.712490  2.375988
  C     9.551070 10.529932  2.823753
  C     8.027591  6.309701  1.685056
  C     8.248930 10.251635  2.182129
  N    10.339533  6.943839  1.654199
  N    10.580789 10.564764  1.932702
  N     8.280719  6.206725  0.367847
  N     8.377173  9.983750  0.871498
  N     7.435959  6.438252  4.232531
  N     7.834530 10.633988  4.726530
  S     6.651523  6.071157  2.834825
  S     6.964431 10.355367  3.363949
  S     9.883199  6.554272  0.085416
  S     9.916701 10.188417  0.426713
  S     9.090966  6.736436  4.116227
  S     9.458313 10.928196  4.514995
