16  
    
  C    11.857360  8.714714  3.414523
  C    11.536828 12.280673  3.244658
  C    10.604081  8.263313  2.890125
  C    10.486014 11.560719  2.570501
  N    12.827383  8.901067  2.498566
  N    12.658882 12.449966  2.520375
  N    10.593498  8.068024  1.572106
  N    10.729487 11.437262  1.279875
  N    10.173745  8.679558  5.388796
  N     9.685299 11.928111  4.953164
  S     9.306236  8.318578  4.050822
  S     9.034398 11.203375  3.648741
  S    12.139815  8.360076  1.092430
  S    12.160240 12.095584  0.936077
  S    11.785716  9.064099  5.104421
  S    11.136376 12.598763  4.876674
