16  
    
  C     7.831935  6.476803  2.401900
  C     7.921319 10.458996  2.027814
  C     6.638857  6.105640  1.591565
  C     6.654359  9.893389  1.508631
  N     8.921320  6.674116  1.676724
  N     8.869419 10.615198  1.137691
  N     6.937453  5.828897  0.341094
  N     6.761431  9.512239  0.238511
  N     5.843475  6.303666  4.096904
  N     6.388357 10.344637  4.100625
  S     5.192021  5.899942  2.637432
  S     5.457099  9.861643  2.795667
  S     8.566336  6.265380  0.099717
  S     8.215252  9.974811 -0.314426
  S     7.509623  6.732046  4.110991
  S     8.008389 10.646760  3.754823
