16  
    
  C     9.202865  6.921070  2.755287
  C     9.662804 10.926444  2.673507
  C     8.029700  6.383546  2.102303
  C     8.567042 10.173437  2.063373
  N    10.237752  7.191152  1.956695
  N    10.624572 11.294685  1.819123
  N     8.155204  6.351753  0.797269
  N     8.671882 10.099683  0.768907
  N     7.494063  6.364361  4.624154
  N     8.120085 10.087200  4.604256
  S     6.744591  6.072331  3.194753
  S     7.366386  9.613084  3.212898
  S     9.693607  6.980350  0.412144
  S    10.089363 10.861673  0.282956
  S     9.025705  6.987804  4.506213
  S     9.533116 10.914335  4.431412
