16  
    
  C    12.314798  9.043844  3.803176
  C    12.620060 12.631453  3.553336
  C    11.169599  8.435096  3.151696
  C    11.315771 12.468672  2.892605
  N    13.334447  9.310806  2.967143
  N    13.630347 12.865589  2.719353
  N    11.300642  8.241982  1.837299
  N    11.401812 12.475514  1.575164
  N    10.649491  8.687820  5.600514
  N    10.871063 12.381633  5.443018
  S     9.901407  8.009755  4.286495
  S    10.001751 12.265353  4.067883
  S    12.831863  8.835624  1.471927
  S    13.044985 12.740642  1.189222
  S    12.119945  9.231758  5.460623
  S    12.454045 12.978653  5.288868
