16  
    
  C    11.793595  8.536892  3.427002
  C    11.617193 12.053766  3.392549
  C    10.572255  8.311213  2.706910
  C    10.397622 11.657056  2.750117
  N    12.885714  8.675644  2.670628
  N    12.702842 12.107987  2.634165
  N    10.766431  8.197933  1.369486
  N    10.540468 11.486736  1.447541
  N     9.995205  8.390948  5.227736
  N     9.827048 11.566902  5.299621
  S     9.179363  8.234694  3.724987
  S     9.013268 11.334104  3.860471
  S    12.396672  8.342797  1.120228
  S    12.188059 11.852425  1.121405
  S    11.622567  8.716592  5.097917
  S    11.444757 11.943056  5.073250
