16  
    
  C     3.752962  4.370754  1.561139
  C     3.535844  8.537799  1.203225
  C     2.555118  3.813612  0.962360
  C     2.305891  7.929652  0.690281
  N     4.694494  4.713816  0.661380
  N     4.431052  8.766963  0.266824
  N     2.565110  3.579859 -0.336713
  N     2.309247  7.780621 -0.632777
  N     1.848427  4.090371  3.398798
  N     1.973323  8.108502  3.170589
  S     1.196313  3.482526  1.930001
  S     1.009221  7.853728  1.844650
  S     3.975483  4.308381 -0.836150
  S     3.782423  8.335796 -1.178435
  S     3.384479  4.674038  3.297971
  S     3.534277  8.500834  2.922907
