16  
    
  C     8.157776  6.508264  2.649946
  C     8.661011 10.480323  2.763118
  C     7.036736  6.145315  1.906081
  C     7.476072 10.056451  2.127523
  N     9.229621  6.813104  1.923787
  N     9.722514 10.608933  1.977817
  N     7.293956  5.906312  0.627783
  N     7.683424  9.727444  0.845344
  N     6.238446  6.345847  4.362240
  N     6.886157 10.319773  4.627773
  S     5.639074  5.826325  2.870436
  S     6.098844  9.959697  3.209906
  S     8.835687  6.478094  0.395813
  S     9.269522 10.137515  0.472527
  S     7.794110  6.799384  4.331632
  S     8.547827 10.579460  4.521993
