16  
    
  C     8.712405  7.297368  2.524655
  C     9.141561 10.731632  2.120320
  C     7.556243  6.723735  1.843045
  C     7.834806 10.488441  1.473494
  N     9.670394  7.714054  1.687258
  N    10.147733 10.829939  1.275757
  N     7.719737  6.765831  0.528461
  N     7.921839 10.545691  0.146914
  N     7.017868  6.688438  4.398457
  N     7.327954 10.544789  4.001039
  S     6.251656  6.228598  2.952856
  S     6.489153 10.402591  2.554748
  S     9.153008  7.474623  0.162429
  S     9.581274 10.819790 -0.229932
  S     8.567630  7.195510  4.239856
  S     8.967266 10.913749  3.830610
