16  
    
  C    12.415999  9.111213  3.378324
  C    12.308452 12.835776  3.319971
  C    11.140896  8.732769  2.881559
  C    11.152078 12.192457  2.743327
  N    13.363838  9.141071  2.434192
  N    13.394690 12.769463  2.582902
  N    11.165187  8.399285  1.583181
  N    11.324669 11.830539  1.463401
  N    10.733161  9.246939  5.411635
  N    10.612198 12.495803  5.283756
  S     9.926896  8.647194  4.041023
  S     9.787313 11.974963  3.903210
  S    12.695498  8.581811  1.054067
  S    12.942625 12.234863  1.098009
  S    12.426416  9.571906  5.094090
  S    12.115499 13.208015  5.078592
