16  
    
  C     6.122399  5.597546  2.088400
  C     6.064093  9.183212  1.567306
  C     4.827013  5.465359  1.500483
  C     4.840070  8.697185  1.014779
  N     7.135865  5.592480  1.231161
  N     7.068002  9.357898  0.705281
  N     4.807913  5.185328  0.195527
  N     4.916006  8.467994 -0.282962
  N     4.414547  5.866940  4.036211
  N     4.242294  9.267111  3.462534
  S     3.525100  5.678028  2.677278
  S     3.475723  8.616746  2.052043
  S     6.408998  5.349923 -0.238881
  S     6.438696  8.865094 -0.774401
  S     6.084792  5.889295  3.765157
  S     5.896776  9.426174  3.287340
