16  
    
  C    11.952646  8.407852  3.275157
  C    11.590898 11.954083  3.553179
  C    10.700809  8.185672  2.615969
  C    10.405498 11.476495  2.890214
  N    12.986975  8.629831  2.456079
  N    12.547388 12.381645  2.718638
  N    10.756253  8.218311  1.298294
  N    10.555086 11.322568  1.568873
  N    10.068253  8.204166  5.123321
  N     9.686481 11.705363  5.374449
  S     9.287384  8.198763  3.711292
  S     9.041921 11.187507  3.892129
  S    12.331749  8.493042  0.932245
  S    11.947738 11.982497  1.159870
  S    11.742632  8.487938  5.033014
  S    11.357317 12.082279  5.208434
