16  
    
  C     8.643405  6.920249  2.314804
  C     8.969601 10.243048  2.673654
  C     7.480462  6.423168  1.629879
  C     7.714991 10.006178  2.042792
  N     9.716891  7.159857  1.565069
  N    10.033720 10.371225  1.868725
  N     7.606135  6.300594  0.327685
  N     7.745691  9.966067  0.715118
  N     6.708250  6.570144  4.049321
  N     7.206978 10.309712  4.538686
  S     6.097479  6.028953  2.617573
  S     6.409754  9.861730  3.151765
  S     9.185727  6.685467 -0.034652
  S     9.319858 10.154418  0.306967
  S     8.345851  7.061574  4.076598
  S     8.848318 10.578166  4.380813
