16  
    
  C     7.629067  6.292499  2.217854
  C     7.837689 10.099550  2.437700
  C     6.415943  5.835465  1.641136
  C     6.750275  9.435491  1.826384
  N     8.568976  6.446955  1.288436
  N     8.736142 10.437262  1.514953
  N     6.402123  5.708140  0.329357
  N     6.775242  9.235153  0.525314
  N     5.905671  5.896424  4.141418
  N     6.117420  9.603712  4.285918
  S     5.145693  5.459629  2.737753
  S     5.406631  9.133319  2.878781
  S     7.973986  6.034785 -0.197889
  S     8.247611  9.918448  0.034565
  S     7.550205  6.358524  3.997094
  S     7.697449 10.167833  4.194477
