16  
    
  C    10.796980  8.368150  3.266151
  C    10.704693 11.892065  3.259599
  C     9.667531  7.713055  2.671254
  C     9.505697 11.374063  2.623790
  N    11.813981  8.583422  2.400530
  N    11.704960 12.064022  2.407399
  N     9.818103  7.407915  1.377612
  N     9.636191 11.254963  1.308594
  N     9.032201  8.019469  5.197616
  N     9.040064 11.519306  5.148674
  S     8.363990  7.501715  3.775764
  S     8.252645 11.061584  3.780244
  S    11.284107  7.977183  0.969145
  S    11.157358 11.674463  0.893399
  S    10.604507  8.698583  4.991510
  S    10.538964 12.110135  4.946454
