16  
    
  C     5.377956  5.375715  1.768832
  C     5.164119  8.876012  1.755735
  C     4.145691  5.223099  0.997755
  C     3.921974  8.463811  1.117570
  N     6.460445  5.575929  1.046363
  N     6.166023  9.101598  0.920409
  N     4.354910  5.102463 -0.313047
  N     3.970107  8.514023 -0.196928
  N     3.448510  5.326844  3.454838
  N     3.420915  8.452928  3.587745
  S     2.704351  5.195283  2.000489
  S     2.610938  8.320698  2.169466
  S     6.009580  5.258508 -0.561241
  S     5.527562  9.003376 -0.596886
  S     5.100608  5.729481  3.470465
  S     4.987911  8.895210  3.447697
