16  
    
  C     9.453825  7.045612  2.996785
  C     9.602581 10.833210  2.646611
  C     8.323964  6.526787  2.252047
  C     8.324405 10.427319  2.005991
  N    10.435708  7.554799  2.257994
  N    10.563141 11.121160  1.743093
  N     8.533533  6.493094  0.931134
  N     8.382113 10.319524  0.679031
  N     7.708031  6.424938  4.796455
  N     7.942520 10.388349  4.560371
  S     7.014800  6.014753  3.313903
  S     7.087071 10.073560  3.120703
  S    10.028944  7.244333  0.694648
  S     9.950942 10.807987  0.271461
  S     9.290861  7.007137  4.654596
  S     9.516460 10.907929  4.337790
