16  
    
  C     9.070478  6.910154  2.573354
  C     9.688849 10.762724  2.739739
  C     7.914613  6.418829  1.890637
  C     8.529518 10.199126  2.195296
  N    10.174103  7.157911  1.856417
  N    10.635769 11.150217  1.862250
  N     8.164873  6.276227  0.567560
  N     8.575453 10.028979  0.878187
  N     7.398783  6.537726  4.433868
  N     8.132996 10.183534  4.734003
  S     6.663342  5.991053  3.034597
  S     7.316438  9.695309  3.379623
  S     9.713231  6.776873  0.322535
  S    10.002036 10.713715  0.382544
  S     9.021918  6.772580  4.318652
  S     9.589617 10.959919  4.493824
