16  
    
  C    11.337106  8.754939  3.302118
  C    11.431480 12.235577  3.293879
  C    10.233628  8.018391  2.747540
  C    10.279648 11.777718  2.545062
  N    12.331981  8.916867  2.431735
  N    12.500353 12.510125  2.576718
  N    10.397497  7.645572  1.463567
  N    10.513084 11.595793  1.240808
  N     9.675806  8.424473  5.238921
  N     9.630741 11.789418  5.092430
  S     8.992740  7.722631  3.889472
  S     8.943153 11.458622  3.581940
  S    11.920516  8.201342  1.019108
  S    12.088659 12.160500  1.014652
  S    11.187304  9.172652  4.914960
  S    11.090210 12.646182  4.999408
