16  
    
  C     9.178615  6.778170  2.350176
  C     9.156370 10.830261  3.011378
  C     7.972375  6.245997  1.788772
  C     7.901484 10.426245  2.412311
  N    10.255514  6.777238  1.583247
  N    10.159532 10.875583  2.127939
  N     8.197150  5.733907  0.582905
  N     7.978609  9.979405  1.164693
  N     7.423429  7.009453  4.167402
  N     7.394386 10.990814  4.823928
  S     6.595955  6.323343  2.889421
  S     6.564242 10.573907  3.456685
  S     9.808596  6.084509  0.199482
  S     9.599199 10.362420  0.698111
  S     9.094560  7.233267  3.987265
  S     9.020826 11.163368  4.701361
