16  
    
  C    12.046804  8.515225  3.610949
  C    12.111511 11.977033  3.356709
  C    10.866797  8.138664  2.840931
  C    10.895553 11.561418  2.689840
  N    13.179440  8.767390  2.947527
  N    13.133563 12.226915  2.538808
  N    11.128277  8.094975  1.520180
  N    11.085677 11.332377  1.391561
  N    10.128196  8.354493  5.398939
  N    10.314722 11.970886  5.174788
  S     9.449585  7.986553  3.871555
  S     9.483248 11.414639  3.855850
  S    12.759430  8.426974  1.340251
  S    12.554185 11.955478  1.018742
  S    11.752229  8.728189  5.279961
  S    11.932349 12.421024  4.969008
