16  
    
  C    11.822092  8.599582  3.454229
  C    11.613531 11.858275  3.407311
  C    10.615187  8.220043  2.771144
  C    10.379689 11.662619  2.642406
  N    12.921537  8.689988  2.671202
  N    12.671914 12.070475  2.670539
  N    10.773445  8.041596  1.429091
  N    10.571752 11.660959  1.326752
  N     9.918445  8.480910  5.216696
  N     9.822407 11.676866  5.159586
  S     9.174849  8.287509  3.787368
  S     9.074764 11.398254  3.722770
  S    12.362843  8.433899  1.132826
  S    12.161734 11.802322  1.076434
  S    11.535103  8.802043  5.162289
  S    11.484042 11.959248  5.158946
