16  
    
  C    12.512822  9.130364  3.415720
  C    12.323057 12.777269  3.565867
  C    11.387496  8.541511  2.697496
  C    11.147258 12.198119  3.009143
  N    13.518134  9.416658  2.600013
  N    13.229913 13.101301  2.636450
  N    11.487206  8.388646  1.373331
  N    11.242216 11.844291  1.724185
  N    10.707419  8.483112  5.219233
  N    10.702142 12.315047  5.524694
  S    10.008354  8.244228  3.704931
  S     9.892557 11.897097  4.136865
  S    13.074150  8.901316  1.080700
  S    12.552007 12.616491  1.168081
  S    12.283085  9.058746  5.168748
  S    12.132794 13.125484  5.240813
