16  
    
  C    12.047640  8.507831  3.605916
  C    12.119469 11.996645  3.337931
  C    10.868762  8.155385  2.851090
  C    10.913683 11.555368  2.692227
  N    13.177966  8.784280  2.941196
  N    13.150212 12.208074  2.541668
  N    11.135649  8.106789  1.529492
  N    11.075062 11.337104  1.396431
  N    10.113929  8.351082  5.395713
  N    10.305744 11.969158  5.202392
  S     9.448857  7.990424  3.865845
  S     9.497517 11.397171  3.839023
  S    12.763874  8.416401  1.332690
  S    12.572431 11.956937  1.033175
  S    11.753378  8.725856  5.279528
  S    11.929981 12.434511  4.965609
