16  
    
  C     8.549594  6.566188  2.369680
  C     8.413143 10.295212  2.422194
  C     7.329425  6.221908  1.788807
  C     7.209003  9.877738  1.786091
  N     9.486733  6.894358  1.494381
  N     9.457753 10.416861  1.587189
  N     7.336368  6.061386  0.469827
  N     7.257979  9.672510  0.473837
  N     6.839998  6.185712  4.368053
  N     6.581013 10.147648  4.268191
  S     6.075093  5.937539  2.915991
  S     5.897694  9.539406  2.881245
  S     8.785447  6.536708 -0.013793
  S     8.828237  9.864899  0.064270
  S     8.373053  6.766324  4.137264
  S     8.212480 10.551880  4.143551
