16  
    
  C     7.655043  6.332045  2.233538
  C     7.833033 10.108734  2.448756
  C     6.413280  5.818714  1.651930
  C     6.686851  9.447928  1.817911
  N     8.622711  6.436249  1.316182
  N     8.764325 10.520238  1.585220
  N     6.364171  5.769352  0.320214
  N     6.825926  9.295205  0.501848
  N     5.918865  6.047590  4.234160
  N     6.097614  9.539743  4.351582
  S     5.174640  5.519369  2.766460
  S     5.365648  9.172336  2.872044
  S     7.950220  6.066823 -0.199177
  S     8.248509  9.889050  0.055213
  S     7.536007  6.375879  3.985946
  S     7.645447 10.191282  4.204643
