16  
    
  C     5.987012  4.870958  1.747688
  C     5.940398  9.109344  1.981358
  C     4.803525  4.417525  0.989469
  C     4.670408  8.687335  1.337268
  N     7.132846  4.964729  1.029829
  N     6.980151  9.302253  1.151832
  N     4.988823  4.459729 -0.327769
  N     4.838425  8.453515  0.046929
  N     4.014417  4.850750  3.400752
  N     4.151752  8.918358  3.891875
  S     3.374770  4.298826  1.984107
  S     3.343838  8.425716  2.472115
  S     6.616277  4.835228 -0.562378
  S     6.341199  8.910675 -0.378188
  S     5.622187  5.020811  3.448371
  S     5.671268  9.561744  3.625847
