16  
    
  C    12.214017  8.924800  3.526189
  C    12.010252 12.400520  3.427147
  C    11.030677  8.451584  2.820998
  C    10.712282 12.283409  2.818389
  N    13.307183  9.133300  2.750658
  N    12.977810 12.544709  2.534121
  N    11.214841  8.336981  1.498933
  N    10.671848 12.127791  1.500062
  N    10.224451  8.600741  5.154707
  N    10.291677 12.070133  5.295181
  S     9.564637  8.356851  3.717587
  S     9.452885 11.859500  3.901251
  S    12.777931  8.845190  1.196742
  S    12.228126 12.238827  1.032534
  S    11.813671  9.098053  5.250408
  S    11.834498 12.497229  5.174088
