16  
    
  C     9.636704  7.293138  3.016488
  C     9.644611 10.867474  2.748458
  C     8.539779  6.756303  2.250495
  C     8.381146 10.487381  2.084002
  N    10.617208  7.696328  2.230173
  N    10.570567 11.165510  1.872743
  N     8.678213  6.754598  0.946120
  N     8.450962 10.363811  0.762345
  N     7.736673  6.609428  4.631151
  N     7.895404 10.620778  4.636663
  S     7.157178  6.170115  3.116661
  S     7.099411 10.229071  3.211624
  S    10.190883  7.309679  0.673733
  S     9.989877 10.831331  0.365262
  S     9.222362  7.292836  4.683762
  S     9.526995 11.000937  4.451758
