16  
    
  C    10.739712  8.313232  3.028384
  C    10.762646 11.784375  3.102036
  C     9.500720  7.788186  2.427913
  C     9.609672 11.350290  2.362741
  N    11.749290  8.538712  2.181460
  N    11.851715 11.973090  2.371144
  N     9.612179  7.572458  1.112877
  N     9.815202 11.063980  1.080796
  N     9.038375  7.941722  4.921616
  N     8.855929 11.711787  4.781691
  S     8.163975  7.711052  3.472851
  S     8.149267 11.342465  3.345610
  S    11.153950  8.037027  0.655096
  S    11.485934 11.564575  0.812700
  S    10.551270  8.629801  4.735094
  S    10.459408 12.113238  4.796164
