16  
    
  C     7.491030  6.094554  2.201486
  C     7.962463  9.911796  2.253306
  C     6.351854  5.478628  1.602716
  C     6.683178  9.486464  1.733859
  N     8.464847  6.314323  1.308679
  N     8.877262  9.950328  1.274049
  N     6.368362  5.423059  0.282116
  N     6.598388  9.283849  0.421648
  N     5.719791  5.777383  4.057594
  N     6.382460  9.371390  4.238505
  S     5.029474  5.152536  2.631038
  S     5.450990  9.188837  2.855495
  S     7.800099  6.002676 -0.161962
  S     8.157492  9.641012 -0.148264
  S     7.343047  6.142985  3.897355
  S     7.869652 10.082227  3.961379
