16  
    
  C    11.743413  8.759686  3.517642
  C    11.551909 12.025312  3.317621
  C    10.555673  8.430952  2.828944
  C    10.399218 11.589432  2.490573
  N    12.835947  8.776562  2.745881
  N    12.626756 12.235863  2.616802
  N    10.733137  8.128701  1.521240
  N    10.615421 11.572881  1.172003
  N     9.940071  8.551571  5.348231
  N     9.699809 11.884767  5.024498
  S     9.188426  8.213745  3.908723
  S     8.986003 11.575546  3.498338
  S    12.373745  8.441617  1.185358
  S    12.313849 11.893531  1.059815
  S    11.579268  8.934104  5.237771
  S    11.349577 12.121435  5.036583
