16  
    
  C     7.629390  6.300182  2.222765
  C     7.835461 10.100528  2.440047
  C     6.420221  5.831817  1.643758
  C     6.752232  9.439341  1.830498
  N     8.571983  6.444643  1.288731
  N     8.734701 10.444927  1.521295
  N     6.394152  5.715704  0.329675
  N     6.778801  9.240178  0.522332
  N     5.903663  5.908850  4.151676
  N     6.114594  9.597233  4.292074
  S     5.148995  5.465232  2.738319
  S     5.402943  9.136763  2.877312
  S     7.974147  6.036981 -0.199900
  S     8.247897  9.915419  0.034945
  S     7.550326  6.360200  3.997166
  S     7.693123 10.169747  4.196923
