16  
    
  C     7.202256  6.024288  2.174861
  C     7.503365  9.676211  2.447796
  C     6.146787  5.440584  1.412362
  C     6.245681  9.448918  1.728319
  N     8.356008  6.192865  1.514582
  N     8.554565  9.679699  1.656679
  N     6.439281  5.355259  0.116939
  N     6.396952  9.258887  0.415514
  N     5.271457  5.651920  3.901319
  N     5.652610  9.570136  4.307267
  S     4.679554  5.256674  2.382709
  S     4.851237  9.398258  2.807714
  S     7.980666  5.871295 -0.044791
  S     8.091029  9.494921  0.129199
  S     6.873203  6.111249  3.833723
  S     7.292779  9.844558  4.098711
