16  
    
  C     3.772323  4.729761  1.600101
  C     3.810615  8.415099  1.693023
  C     2.474664  4.573784  0.955907
  C     2.636526  7.864411  1.043160
  N     4.836416  4.554596  0.844068
  N     4.915793  8.452960  0.946467
  N     2.612019  4.186867 -0.310866
  N     2.843415  7.570668 -0.222262
  N     2.068256  4.809330  3.572645
  N     1.883924  8.313457  3.465433
  S     1.211804  4.573979  2.207275
  S     1.196585  7.890082  2.042558
  S     4.300022  4.260388 -0.690043
  S     4.457197  7.912217 -0.556853
  S     3.736732  4.915788  3.295224
  S     3.492672  8.848068  3.363332
