16  
    
  C     9.946907  7.836041  2.686855
  C    10.596908 11.478344  3.098926
  C     8.947934  7.074103  2.053285
  C     9.432347 11.217752  2.312221
  N    10.990045  8.141281  1.885627
  N    11.722831 11.681748  2.398215
  N     9.234999  6.699052  0.799983
  N     9.649694 10.927209  1.014703
  N     8.161775  7.414822  4.397162
  N     8.605210 11.285029  4.780924
  S     7.548529  6.724144  3.030450
  S     7.943945 11.231954  3.227680
  S    10.693782  7.379244  0.458492
  S    11.314922 11.250248  0.848146
  S     9.614928  8.131943  4.329213
  S    10.243091 11.618989  4.782576
