16  
    
  C     6.496787  5.766122  2.059499
  C     6.144954  9.264279  1.857469
  C     5.303380  5.311923  1.397789
  C     4.937846  8.799170  1.160535
  N     7.521194  5.971242  1.256284
  N     7.189294  9.385602  1.056304
  N     5.424624  5.098399  0.099991
  N     5.047367  8.666902 -0.171049
  N     4.653812  5.738351  3.920762
  N     4.320478  8.930829  3.674206
  S     4.027546  5.165765  2.459029
  S     3.595432  8.538403  2.209857
  S     6.994223  5.530222 -0.261207
  S     6.616966  8.937881 -0.498032
  S     6.239561  6.080524  3.757078
  S     5.944353  9.343594  3.588274
