16  
    
  C     5.649788  5.409913  1.891181
  C     5.374431  8.884830  1.766171
  C     4.335396  5.012864  1.417724
  C     4.230596  8.351888  1.019631
  N     6.562218  5.542250  0.929213
  N     6.422328  9.130587  0.991236
  N     4.196229  4.927632  0.099581
  N     4.464439  8.221511 -0.280585
  N     4.071249  5.161789  3.945764
  N     3.432419  8.885821  3.407033
  S     3.150292  4.787323  2.649058
  S     2.854867  8.079899  2.082279
  S     5.695937  5.309670 -0.518743
  S     6.040259  8.706848 -0.565723
  S     5.622802  5.472437  3.669982
  S     5.115705  9.187536  3.456865
