16  
    
  C     9.098073  7.198173  2.277785
  C     9.051044 10.666335  2.359847
  C     7.928592  6.605491  1.719528
  C     7.864138 10.155698  1.777240
  N    10.078098  7.175938  1.361699
  N    10.024807 10.755062  1.455244
  N     7.949520  6.332777  0.412689
  N     7.904710  9.893484  0.481160
  N     7.335536  6.737841  4.173804
  N     7.184903 10.634084  4.234312
  S     6.597540  6.343932  2.762071
  S     6.460690 10.075187  2.810017
  S     9.483593  6.654306 -0.079299
  S     9.447094 10.360666  0.004471
  S     8.941296  7.216158  4.084071
  S     8.802651 10.904464  4.089051
