16  
    
  C     8.095611  6.572323  2.676429
  C     8.664212 10.447564  2.769818
  C     6.925954  6.111392  1.894990
  C     7.465032  9.967272  2.068776
  N     9.192586  6.815369  1.971714
  N     9.702816 10.558562  1.948933
  N     7.228935  5.916562  0.603656
  N     7.665343  9.690939  0.780828
  N     6.180685  6.350309  4.382636
  N     6.890337 10.281260  4.632241
  S     5.540763  5.804204  2.926588
  S     6.090225  9.964573  3.221344
  S     8.852497  6.448866  0.412489
  S     9.245350 10.137547  0.476507
  S     7.799726  6.786478  4.330784
  S     8.514445 10.630816  4.489543
