16  
    
  C     7.535850  6.236665  2.161856
  C     7.883262  9.929558  2.339313
  C     6.375249  5.621349  1.593206
  C     6.696716  9.361980  1.731527
  N     8.550167  6.437231  1.351397
  N     8.824852 10.283012  1.498700
  N     6.429562  5.482422  0.274076
  N     6.782923  9.255243  0.412443
  N     5.923511  5.713066  4.149877
  N     6.198888  9.728404  4.305081
  S     5.106337  5.339568  2.737722
  S     5.443336  9.043741  2.964350
  S     7.990375  6.043122 -0.157761
  S     8.228840  9.890366 -0.029511
  S     7.482016  6.264197  3.849295
  S     7.818883 10.151992  4.010009
