16  
    
  C     5.490620  5.294507  1.797183
  C     5.072097  9.090490  1.670555
  C     4.205787  5.162981  1.209901
  C     3.890856  8.541287  1.040339
  N     6.443265  5.480692  0.869322
  N     6.142649  9.239866  0.876104
  N     4.193017  4.997338 -0.108315
  N     4.029992  8.327810 -0.269147
  N     3.779523  5.336513  3.670996
  N     3.355396  8.745838  3.533577
  S     2.878321  5.206870  2.302720
  S     2.578988  8.299930  2.153737
  S     5.753004  5.213170 -0.601166
  S     5.579317  8.757085 -0.603110
  S     5.424984  5.403994  3.594801
  S     4.983106  8.981808  3.377319
