16  
    
  C    10.027311  7.764336  2.658591
  C    10.554206 11.522398  3.069481
  C     8.991641  6.980057  2.023771
  C     9.439260 11.150264  2.286916
  N    11.034189  8.102323  1.847864
  N    11.701149 11.563767  2.374920
  N     9.204512  6.686276  0.721053
  N     9.718175 10.987946  0.975848
  N     8.178079  7.615654  4.416009
  N     8.568598 11.381434  4.637910
  S     7.584708  6.791880  3.098903
  S     7.912096 11.306659  3.143980
  S    10.711127  7.371543  0.384457
  S    11.294904 11.272196  0.760651
  S     9.814644  8.160597  4.348488
  S    10.234939 11.577109  4.763106
