16  
    
  C    12.870937  9.209203  3.421804
  C    12.813868 13.022802  3.454985
  C    11.704364  8.608207  2.805918
  C    11.576224 12.503804  2.923769
  N    13.898201  9.470748  2.629154
  N    13.868394 12.899209  2.708213
  N    11.937232  8.333773  1.528035
  N    11.715175 12.201369  1.642270
  N    11.092727  9.122118  5.224574
  N    11.124344 13.121668  5.381646
  S    10.310220  8.457719  3.901556
  S    10.284084 12.491705  4.081029
  S    13.449167  8.877411  1.177359
  S    13.317800 12.406734  1.182414
  S    12.625323  9.656126  5.120469
  S    12.818428 13.309455  5.184061
