16  
    
  C    12.719697  9.227457  3.360865
  C    12.651981 12.960373  3.517826
  C    11.504357  8.762963  2.772823
  C    11.560989 12.380450  2.782528
  N    13.747330  9.244506  2.524690
  N    13.743924 13.131007  2.764035
  N    11.557373  8.598370  1.447949
  N    11.825408 12.174403  1.483977
  N    11.094205  8.901804  5.301578
  N    10.825863 12.533667  5.298683
  S    10.159084  8.521493  3.978541
  S    10.120514 12.020599  3.815536
  S    13.217945  8.765993  1.017247
  S    13.408108 12.669827  1.237131
  S    12.621815  9.497180  5.033190
  S    12.357834 13.248732  5.228274
