16  
    
  C     6.569968  5.883187  1.942893
  C     6.621658  9.394772  1.864452
  C     5.288487  5.463516  1.443362
  C     5.392431  8.933157  1.257982
  N     7.542289  5.906050  1.033845
  N     7.602821  9.759889  1.047980
  N     5.297959  5.244431  0.131999
  N     5.489209  8.794133 -0.054037
  N     4.938139  5.704731  3.938405
  N     5.000237  9.020590  3.766517
  S     3.984091  5.400637  2.635196
  S     4.094584  8.836760  2.429968
  S     6.867603  5.446936 -0.418265
  S     7.014087  9.289499 -0.469665
  S     6.620347  6.058203  3.683015
  S     6.482069  9.673760  3.544043
