16  
    
  C    12.621564  8.805742  3.530822
  C    12.216773 12.955028  3.672015
  C    11.438970  8.418426  2.840389
  C    11.075502 12.319520  3.093200
  N    13.560636  9.116422  2.677421
  N    13.259887 13.192309  2.882966
  N    11.501787  8.324267  1.521082
  N    11.280607 11.978885  1.829287
  N    10.887275  8.720681  5.308761
  N    10.519455 12.511829  5.598559
  S    10.111089  8.242471  3.972534
  S     9.925576 11.734055  4.257787
  S    13.009371  8.774790  1.131473
  S    12.795746 12.601286  1.391424
  S    12.474557  9.098924  5.248182
  S    12.044840 13.114527  5.416617
