16  
    
  C     5.297312  5.618447  1.596883
  C     5.265727  8.947195  1.464156
  C     4.056263  5.173574  1.100196
  C     4.008457  8.530070  0.814866
  N     6.304485  5.535700  0.728857
  N     6.310922  9.002142  0.643091
  N     4.032581  4.986927 -0.225097
  N     4.132148  8.160386 -0.458245
  N     3.743296  5.530223  3.705202
  N     3.435655  8.877565  3.264697
  S     2.901219  4.989475  2.410680
  S     2.694748  8.211882  1.893919
  S     5.623100  5.265920 -0.711335
  S     5.746404  8.472256 -0.846785
  S     5.413423  5.726001  3.314453
  S     5.019939  9.428384  3.127902
