16  
    
  C    10.409939  7.648141  3.058836
  C    10.575251 11.714977  3.049870
  C     9.161843  7.312225  2.426098
  C     9.367920 11.128965  2.638667
  N    11.387917  7.940571  2.166606
  N    11.396954 11.981268  2.044912
  N     9.156720  7.330967  1.068600
  N     9.324688 10.831577  1.340277
  N     8.680068  7.254200  4.927486
  N     9.200814 11.495634  5.210317
  S     7.872501  6.933543  3.531213
  S     8.260547 10.850590  3.967202
  S    10.686254  7.690829  0.671679
  S    10.722349 11.393270  0.676233
  S    10.247291  7.595152  4.767312
  S    10.621406 12.143985  4.689977
