16  
    
  C    12.410517  9.107485  3.468309
  C    12.507056 12.592037  3.426657
  C    11.153768  8.739434  2.961473
  C    11.295387 12.137149  2.857306
  N    13.421473  9.012274  2.589447
  N    13.466127 12.852811  2.526450
  N    11.208774  8.338024  1.711302
  N    11.276182 11.930827  1.560878
  N    10.683323  9.228377  5.395939
  N    10.718999 12.504169  5.282885
  S     9.872873  8.659511  4.136633
  S     9.975262 12.005611  3.901733
  S    12.719343  8.474926  1.173193
  S    12.803879 12.326893  1.052483
  S    12.304533  9.495561  5.182221
  S    12.169180 13.147598  5.084007
