16  
    
  C    11.328648  8.507815  3.334924
  C    11.433903 12.249536  3.320505
  C    10.164132  7.873152  2.679774
  C    10.188962 11.746215  2.850152
  N    12.406956  8.631578  2.569795
  N    12.419853 12.177853  2.415629
  N    10.363840  7.489078  1.440866
  N    10.224695 11.257718  1.608235
  N     9.489253  8.313748  5.161922
  N     9.817664 12.180216  5.415856
  S     8.802178  7.842778  3.736197
  S     8.888704 11.813736  4.019472
  S    11.981549  7.876705  1.131231
  S    11.724568 11.577347  0.975637
  S    11.098351  8.799651  5.070329
  S    11.363578 12.812733  4.960442
