16  
    
  C     4.050605  4.653745  1.733361
  C     3.892082  8.415172  1.691159
  C     2.745064  4.342002  1.156287
  C     2.691181  8.021511  0.937242
  N     5.040927  4.612362  0.857676
  N     4.968201  8.437384  0.920027
  N     2.739391  4.050794 -0.131775
  N     2.910591  7.806070 -0.337214
  N     2.175808  4.820295  3.548774
  N     2.002871  8.280358  3.371301
  S     1.354248  4.505415  2.134843
  S     1.278318  7.810948  1.916732
  S     4.323610  4.246653 -0.617313
  S     4.524088  7.977454 -0.571206
  S     3.867335  4.954994  3.431285
  S     3.577148  8.812990  3.333051
