16  
    
  C     6.870409  5.945767  2.236757
  C     7.215240  9.744072  2.262861
  C     5.854786  5.403617  1.383391
  C     5.952425  9.454977  1.575712
  N     8.057338  6.068179  1.660042
  N     8.243190  9.972408  1.484460
  N     6.233932  5.280021  0.121087
  N     6.126920  9.381225  0.271353
  N     4.789499  5.576987  3.694351
  N     5.543970  9.361102  4.125153
  S     4.330328  5.232394  2.192161
  S     4.625884  9.390595  2.726380
  S     7.849887  5.628267  0.088475
  S     7.729862  9.660740 -0.075427
  S     6.335936  6.133962  3.824789
  S     7.067612 10.016769  3.970351
