16  
    
  C    12.008240  8.613291  3.408939
  C    11.832318 12.090286  3.190503
  C    10.755855  8.050313  2.905543
  C    10.567076 11.703065  2.654761
  N    12.905075  8.888625  2.467681
  N    12.830415 12.137148  2.292349
  N    10.740182  7.792856  1.605554
  N    10.559162 11.622042  1.314642
  N    10.298427  8.489853  5.435004
  N     9.982373 11.913322  5.172649
  S     9.507158  7.920048  4.097668
  S     9.158854 11.507413  3.683557
  S    12.229179  8.262731  1.047871
  S    12.009360 12.038992  0.791642
  S    11.875061  8.996439  5.108602
  S    11.627034 12.357962  4.891760
