16  
    
  C     8.470674  6.723690  2.317750
  C     8.138011 10.348115  2.601042
  C     7.280195  6.083394  1.768253
  C     7.075430  9.694727  1.857187
  N     9.493583  6.739345  1.460647
  N     9.279724 10.453372  1.952397
  N     7.300713  5.862911  0.449382
  N     7.413551  9.401454  0.603741
  N     6.830990  6.452195  4.266147
  N     6.290959  9.743437  4.292228
  S     5.970723  5.999956  2.856339
  S     5.767377  9.160088  2.850028
  S     8.850025  6.287254 -0.039975
  S     9.036073  9.864073  0.425319
  S     8.348307  7.056478  4.015468
  S     7.743645 10.528033  4.316880
