16  
    
  C    10.080042  7.741742  2.653242
  C    10.593428 11.473019  3.040004
  C     9.002518  7.009400  2.032159
  C     9.414239 11.178156  2.195912
  N    11.077688  8.004479  1.836959
  N    11.720773 11.525036  2.365023
  N     9.188880  6.692299  0.756762
  N     9.657203 11.012069  0.919407
  N     8.233881  7.696073  4.457106
  N     8.559001 11.433786  4.633481
  S     7.639104  6.858499  3.115210
  S     7.917866 11.334334  3.092267
  S    10.708179  7.380668  0.335421
  S    11.276606 11.268602  0.721243
  S     9.867022  8.136054  4.311546
  S    10.213038 11.574247  4.744850
