16  
    
  C     9.010291  7.076620  2.704584
  C     8.887364 11.062693  2.348381
  C     7.827863  6.484347  2.221779
  C     7.714306 10.514895  1.712775
  N     9.838886  7.348186  1.695014
  N     9.794346 11.482823  1.477021
  N     7.819330  6.120467  0.942691
  N     7.782146 10.423021  0.409872
  N     7.424468  6.845602  4.689332
  N     7.129888 10.769113  4.162321
  S     6.566620  6.324359  3.366138
  S     6.481645 10.024985  2.809752
  S     9.213815  6.693768  0.355486
  S     9.294085 11.078948  0.004361
  S     8.881490  7.639348  4.351027
  S     8.723494 11.173716  4.109629
