16  
    
  C     4.434541  5.045193  1.706056
  C     4.201006  8.598070  1.610998
  C     3.213013  4.604125  1.074504
  C     3.070699  8.256297  0.817133
  N     5.520412  5.173539  0.933534
  N     5.189829  9.128401  0.873994
  N     3.366753  4.575638 -0.261133
  N     3.281375  8.223530 -0.498702
  N     2.763433  4.844810  3.616426
  N     2.276500  8.137474  3.252509
  S     1.867196  4.811563  2.246083
  S     1.658513  7.731511  1.751928
  S     4.992015  4.785737 -0.555635
  S     4.801019  8.882246 -0.682345
  S     4.324291  5.326318  3.418379
  S     3.853778  8.548917  3.334119
