16  
    
  C     6.985830  5.965964  1.832973
  C     7.229479  9.745634  2.487202
  C     5.939078  5.132264  1.259027
  C     6.009759  9.402631  1.817238
  N     8.026417  6.217425  1.047458
  N     8.290736  9.825710  1.713909
  N     6.073646  4.918191 -0.056758
  N     6.119058  9.181949  0.512029
  N     5.214220  5.823924  3.686975
  N     5.496359  9.888123  4.388179
  S     4.575600  4.971124  2.371027
  S     4.678319  9.582445  2.969014
  S     7.580966  5.587499 -0.426900
  S     7.726319  9.383125  0.200216
  S     6.818952  6.443959  3.508207
  S     7.176289 10.120086  4.164124
