16  
    
  C    11.240086  8.194241  3.200172
  C    11.456729 11.609684  3.267308
  C     9.977526  7.766833  2.609268
  C    10.137549 11.440549  2.720331
  N    12.268256  8.188492  2.377439
  N    12.440571 11.702772  2.376712
  N    10.032303  7.441109  1.332765
  N    10.167481 11.302293  1.399308
  N     9.463342  8.177324  5.125913
  N     9.712429 11.817130  5.138505
  S     8.712981  7.626474  3.778308
  S     8.797611 11.653081  3.794771
  S    11.616958  7.688986  0.900812
  S    11.757943 11.478375  0.899420
  S    11.140822  8.461034  4.927289
  S    11.336356 11.953472  4.990872
