16  
    
  C     9.111465  6.944462  2.345032
  C     9.009020 11.169752  2.849332
  C     7.909324  6.476580  1.696837
  C     7.816172 10.582817  2.253211
  N    10.190272  6.897545  1.572073
  N    10.037833 11.238084  2.031927
  N     8.026459  6.304414  0.375390
  N     7.933352 10.335588  0.937382
  N     7.424117  6.774118  4.210889
  N     7.340821 10.819465  4.761619
  S     6.581514  6.413763  2.831089
  S     6.573548 10.277409  3.371746
  S     9.688040  6.515165  0.055192
  S     9.564696 10.708448  0.529918
  S     9.008572  7.254288  4.016439
  S     8.911290 11.366295  4.567287
