16  
    
  C    11.927826  8.494354  3.330542
  C    11.581219 11.989417  3.512245
  C    10.656570  8.332578  2.661697
  C    10.441134 11.381781  2.853497
  N    12.978747  8.563505  2.521606
  N    12.513982 12.364089  2.642210
  N    10.772821  8.204958  1.341913
  N    10.462473 11.365532  1.520487
  N    10.055308  8.249815  5.194741
  N     9.780675 11.654312  5.274881
  S     9.277781  8.197776  3.692694
  S     9.083103 11.266237  3.843283
  S    12.356957  8.433084  0.956338
  S    12.017307 11.924069  1.160604
  S    11.677385  8.531132  5.042091
  S    11.394021 12.027275  5.307234
