16  
    
  C    10.929065  7.754119  3.152372
  C    11.428069 11.879013  2.988410
  C     9.812135  7.500826  2.337091
  C    10.293440 11.167506  2.422044
  N    12.099360  7.863091  2.502690
  N    12.404606 12.043944  2.104575
  N    10.050732  7.395436  1.015897
  N    10.410231 10.771494  1.141288
  N     8.984632  7.630395  4.822214
  N     9.873569 11.473464  4.973168
  S     8.345110  7.460212  3.241257
  S     9.072711 10.906542  3.612588
  S    11.697184  7.604915  0.876615
  S    11.938203 11.405815  0.715012
  S    10.618150  7.867854  4.854229
  S    11.303083 12.332273  4.632544
