16  
    
  C     6.685018  6.184458  2.383592
  C     7.128607  9.778693  2.187021
  C     5.596442  5.406156  1.803958
  C     5.869948  9.503758  1.576903
  N     7.562846  6.606789  1.484540
  N     8.196632  9.823240  1.394805
  N     5.611779  5.290757  0.475328
  N     5.986196  9.326731  0.255283
  N     5.319480  5.229231  4.363803
  N     5.431217  9.341804  4.155619
  S     4.533422  4.672647  3.032758
  S     4.552126  9.457772  2.715302
  S     6.997558  6.077968  0.011459
  S     7.553559  9.518088 -0.128898
  S     6.721097  6.241307  4.159443
  S     7.044212  9.834422  3.936980
