16  
    
  C    12.271531  9.067685  3.780612
  C    12.597874 12.600138  3.525406
  C    11.166129  8.429571  3.157603
  C    11.319098 12.461443  2.897861
  N    13.312233  9.264063  2.988683
  N    13.632716 12.884201  2.736075
  N    11.327291  8.246936  1.856192
  N    11.401268 12.482098  1.574098
  N    10.644957  8.721008  5.601097
  N    10.874140 12.338326  5.464009
  S     9.892235  8.025211  4.318707
  S    10.023508 12.277368  4.063604
  S    12.832029  8.804248  1.492128
  S    13.058038 12.732081  1.188689
  S    12.144091  9.222122  5.442941
  S    12.435578 12.980881  5.274602
