16  
    
  C    11.480026  8.804144  3.205934
  C    11.425141 12.246864  3.287148
  C    10.362817  8.069974  2.741746
  C    10.239866 11.852794  2.541510
  N    12.436150  9.088030  2.309636
  N    12.428969 12.636929  2.529619
  N    10.499297  7.691166  1.471189
  N    10.380198 11.802418  1.217609
  N     9.860036  8.311810  5.214687
  N     9.474533 11.846591  5.064807
  S     9.077484  7.762603  3.826558
  S     8.930914 11.335160  3.538200
  S    11.926422  8.387142  0.871370
  S    11.986825 12.176480  0.932584
  S    11.412811  8.982372  4.922285
  S    11.075434 12.332871  4.998728
