16  
    
  C     4.547087  5.110745  2.002923
  C     4.725897  8.693778  1.484560
  C     3.376033  4.772020  1.219846
  C     3.569198  8.195433  0.818281
  N     5.717468  5.175291  1.382854
  N     5.706472  9.015970  0.657814
  N     3.722826  4.556429 -0.049682
  N     3.681473  8.106104 -0.498164
  N     2.684966  5.000017  3.730062
  N     2.932128  8.362925  3.274719
  S     2.002338  4.497691  2.315332
  S     2.208344  7.847547  1.894307
  S     5.392773  4.903389 -0.180623
  S     5.230023  8.661441 -0.869029
  S     4.333684  5.132082  3.722102
  S     4.541993  8.787396  3.251947
