16  
    
  C    11.779894  8.724220  3.521064
  C    11.564957 11.888595  3.312251
  C    10.552166  8.362964  2.820158
  C    10.398226 11.627948  2.534330
  N    12.849295  8.816660  2.763887
  N    12.662659 12.182183  2.608316
  N    10.756220  8.131870  1.539441
  N    10.601039 11.586729  1.215927
  N     9.925156  8.564786  5.316009
  N     9.678790 11.899104  5.099569
  S     9.178130  8.225948  3.896998
  S     8.992905 11.558808  3.504353
  S    12.361063  8.441012  1.197867
  S    12.308582 11.903881  1.048138
  S    11.567144  8.907096  5.196537
  S    11.376448 12.090404  5.037814
