16  
    
  C    10.798125  8.244421  2.931679
  C    10.833122 11.970174  3.019293
  C     9.592245  7.816112  2.287118
  C     9.632035 11.572216  2.335827
  N    11.817686  8.490845  2.132331
  N    11.956776 11.991006  2.292586
  N     9.688767  7.679674  0.952480
  N     9.804145 11.223050  1.064728
  N     8.996880  8.120281  4.800505
  N     8.891268 11.828005  4.760083
  S     8.235264  7.665312  3.401300
  S     8.248006 11.164230  3.375081
  S    11.327754  7.992994  0.581562
  S    11.472283 11.522271  0.758853
  S    10.636505  8.353035  4.617212
  S    10.481899 12.157602  4.750536
