16  
    
  C     5.076207  4.939317  1.658330
  C     4.922619  8.744332  1.764241
  C     3.694287  4.761553  1.257917
  C     3.629261  8.368060  1.281686
  N     5.920785  4.952679  0.618651
  N     5.883000  8.791021  0.851288
  N     3.504884  4.724732 -0.048877
  N     3.576705  8.130407 -0.024639
  N     3.595232  4.823147  3.807261
  N     3.367907  8.698120  3.821907
  S     2.510095  4.486502  2.502786
  S     2.402005  8.322197  2.509592
  S     5.009231  4.912428 -0.743734
  S     5.149935  8.410736 -0.558113
  S     5.227156  4.770727  3.398650
  S     4.929755  9.049943  3.475520
