16  
    
  C     3.994267  4.730231  1.684883
  C     3.907209  8.365045  1.638973
  C     2.723987  4.325528  1.107389
  C     2.708848  8.097007  0.933136
  N     5.068044  4.575182  0.877079
  N     5.007107  8.478813  0.911719
  N     2.815469  4.057079 -0.192091
  N     2.935949  7.780056 -0.344281
  N     2.262317  4.845432  3.562390
  N     2.034767  8.304314  3.354563
  S     1.385075  4.462115  2.189913
  S     1.297326  7.813041  1.909560
  S     4.380642  4.288833 -0.594971
  S     4.535250  7.990273 -0.604741
  S     3.872178  4.949616  3.412020
  S     3.599428  8.782425  3.322223
