16  
    
  C     6.887028  5.891152  2.151523
  C     7.209560  9.889474  2.328651
  C     5.860996  5.394120  1.274048
  C     6.001299  9.500823  1.721896
  N     8.079323  5.854620  1.582016
  N     8.255640 10.010480  1.507393
  N     6.258013  5.113610  0.041098
  N     6.079818  9.333068  0.404544
  N     4.717564  5.681846  3.594575
  N     5.498431  9.583127  4.277527
  S     4.262936  5.290279  1.981574
  S     4.643722  9.330870  2.768918
  S     7.887426  5.409532 -0.016051
  S     7.686886  9.766813 -0.004018
  S     6.329539  6.155866  3.821953
  S     7.054294 10.041114  4.071730
