16  
    
  C     7.959085  6.513442  2.579999
  C     8.525889 10.332961  2.436505
  C     6.845162  6.073457  1.846839
  C     7.283698  9.877614  1.872161
  N     9.078493  6.773693  1.928698
  N     9.552096 10.446022  1.588422
  N     7.067858  5.949634  0.529358
  N     7.289959  9.646650  0.580639
  N     6.148755  6.272444  4.388907
  N     6.921760 10.403355  4.410982
  S     5.433800  5.964464  2.923570
  S     6.034300  9.714261  3.169739
  S     8.660728  6.394529  0.322111
  S     8.901602  9.843113  0.126498
  S     7.741479  6.812970  4.250542
  S     8.569908 10.546023  4.129255
