16  
    
  C     9.863055  7.833780  2.734715
  C    10.588580 11.564816  3.138560
  C     8.865765  7.112141  1.972501
  C     9.431580 11.186807  2.405461
  N    10.948789  8.076145  2.021004
  N    11.681346 11.597306  2.372748
  N     9.211270  6.807007  0.718636
  N     9.602687 10.983199  1.095671
  N     8.016732  7.196626  4.436028
  N     8.698981 11.305540  4.845470
  S     7.438470  6.670330  2.973419
  S     7.970780 11.041275  3.364239
  S    10.696855  7.440175  0.516449
  S    11.249909 11.230019  0.839559
  S     9.413993  8.076450  4.443356
  S    10.313535 11.739258  4.863948
