16  
    
  C    12.428373  8.979503  3.766009
  C    12.510867 12.856364  3.464911
  C    11.248388  8.392844  3.218044
  C    11.315999 12.344142  2.875723
  N    13.429064  9.074706  2.867920
  N    13.535884 13.074652  2.631192
  N    11.240901  8.065002  1.933885
  N    11.428958 12.195523  1.568739
  N    10.580142  8.875369  5.685015
  N    10.781863 12.618004  5.414000
  S     9.840561  8.400743  4.241742
  S    10.007757 12.174025  3.945276
  S    12.747679  8.505833  1.417506
  S    12.949249 12.524291  1.118048
  S    12.201024  9.303480  5.443284
  S    12.453595 12.783791  5.235856
