16  
    
  C     6.802762  5.795541  1.525487
  C     7.232831 10.037907  2.432905
  C     5.651682  5.171801  0.972951
  C     5.994857  9.528385  1.963933
  N     7.874728  5.824227  0.715368
  N     8.231872 10.024165  1.544383
  N     5.918580  4.696367 -0.239997
  N     6.030715  9.165894  0.685764
  N     4.974629  5.758000  3.392304
  N     5.618318  9.680872  4.463916
  S     4.333850  4.934626  2.098214
  S     4.705449  9.487733  3.143455
  S     7.471774  5.128303 -0.706060
  S     7.597254  9.532424  0.121918
  S     6.559475  6.378995  3.157123
  S     7.207639 10.300120  4.205692
