16  
    
  C    12.008792  8.736221  3.406281
  C    11.909559 12.134761  3.235905
  C    10.765589  8.558964  2.703314
  C    10.639590 11.754960  2.742355
  N    13.091219  8.821898  2.594202
  N    12.807527 12.404656  2.308220
  N    10.832834  8.378282  1.370746
  N    10.552892 11.819423  1.440088
  N    10.201627  8.459159  5.261887
  N    10.297103 12.096879  5.297198
  S     9.424261  8.260674  3.799060
  S     9.309827 11.833077  3.883438
  S    12.486002  8.655042  1.028508
  S    12.015386 12.138209  0.829233
  S    11.907084  8.748570  5.123600
  S    11.940944 12.182938  4.999368
