16  
    
  C    12.068491  8.591305  3.355669
  C    12.115290 12.147807  3.263790
  C    10.816706  8.245776  2.751138
  C    11.004507 11.457232  2.653148
  N    13.069144  8.642695  2.501633
  N    13.114648 12.470178  2.438268
  N    10.787237  8.087855  1.423705
  N    11.206770 11.314867  1.341646
  N    10.380245  8.431435  5.252773
  N    10.232424 12.017397  5.075220
  S     9.500745  8.063408  3.868245
  S     9.527511 11.527201  3.645197
  S    12.372518  8.381981  0.997375
  S    12.648299 11.917750  0.875578
  S    11.951743  8.743297  5.100254
  S    11.905693 12.374387  5.001886
