16  
    
  C     9.318361  6.938539  2.524187
  C     8.925371 10.930073  2.310473
  C     8.023595  6.499444  1.991488
  C     7.722354 10.394991  1.706059
  N    10.233816  7.133996  1.571912
  N     9.935503 11.141077  1.444820
  N     8.016044  6.264947  0.686525
  N     7.867408 10.130012  0.429653
  N     7.524031  6.944384  4.445947
  N     7.215741 10.545671  4.229676
  S     6.732103  6.340144  3.109042
  S     6.422719 10.122290  2.835356
  S     9.498110  6.729740  0.105791
  S     9.378009 10.603030 -0.002087
  S     9.162039  7.373254  4.235414
  S     8.667886 11.282802  4.030846
