16  
    
  C     8.891940  7.156126  2.391334
  C     9.144687 10.816426  2.247791
  C     7.666811  6.914199  1.666888
  C     7.881587 10.629221  1.631923
  N     9.970510  7.513599  1.691540
  N    10.217549 10.882344  1.463113
  N     7.861799  6.904526  0.346295
  N     7.990303 10.415756  0.315855
  N     7.104077  6.578729  4.142153
  N     7.469924 10.686569  4.165372
  S     6.329423  6.333262  2.710952
  S     6.566478 10.437821  2.793104
  S     9.460210  7.398785  0.085547
  S     9.560872 10.620586 -0.102764
  S     8.677382  7.162082  4.090916
  S     9.105577 10.864912  3.992848
