16  
    
  C     4.574641  5.093173  1.728795
  C     4.215067  8.714893  1.560254
  C     3.330434  4.768837  1.097124
  C     3.031085  8.130603  0.890158
  N     5.582533  5.310151  0.873169
  N     5.262218  8.873203  0.767591
  N     3.405316  4.489317 -0.187832
  N     3.170946  8.030117 -0.430294
  N     2.638822  5.153108  3.503921
  N     2.474998  8.334933  3.316819
  S     1.969840  4.670936  2.061355
  S     1.745063  7.804406  1.978776
  S     4.985555  4.711133 -0.620167
  S     4.730485  8.449265 -0.778730
  S     4.299677  5.324117  3.445863
  S     4.083527  8.812540  3.249297
