16  
    
  C     7.313154  6.024772  2.243178
  C     7.745987  9.595491  2.348011
  C     6.190946  5.487156  1.511711
  C     6.455486  9.322657  1.745631
  N     8.388560  6.193816  1.456795
  N     8.715981  9.782331  1.472811
  N     6.364826  5.463773  0.196882
  N     6.488558  9.288175  0.433916
  N     5.410365  5.672354  3.949822
  N     5.881163  9.771592  4.200533
  S     4.765042  5.240429  2.383663
  S     5.098237  9.266533  2.719466
  S     7.880387  5.906337 -0.087821
  S     8.087955  9.615096 -0.025623
  S     7.033013  6.021714  3.969796
  S     7.549882  9.762389  4.118473
