16  
    
  C    12.721948  9.177008  3.622057
  C    12.808069 12.569199  3.517932
  C    11.450151  8.610901  3.131641
  C    11.564123 12.207213  2.864434
  N    13.626081  9.433015  2.690259
  N    13.771629 12.849437  2.668994
  N    11.525289  8.301581  1.843178
  N    11.655635 12.153306  1.521190
  N    11.239051  8.717847  5.673789
  N    11.112805 12.307494  5.365063
  S    10.245900  8.250975  4.354177
  S    10.264299 11.870217  4.017159
  S    12.989262  8.880004  1.273402
  S    13.221597 12.472961  1.119570
  S    12.809237  9.225829  5.347236
  S    12.730008 12.738389  5.238951
