16  
    
  C     9.172949  6.900451  2.345021
  C     9.019709 11.157360  2.876256
  C     7.904924  6.491148  1.729443
  C     7.814862 10.562018  2.273696
  N    10.244330  6.872687  1.581239
  N    10.073919 11.220780  2.077866
  N     8.033586  6.234303  0.443440
  N     7.974461 10.304655  0.986683
  N     7.436162  6.793715  4.200205
  N     7.334631 10.811472  4.783802
  S     6.589403  6.378380  2.815556
  S     6.571229 10.294600  3.389466
  S     9.659288  6.460037  0.053332
  S     9.522518 10.691570  0.565745
  S     9.020195  7.281465  4.026026
  S     8.925674 11.379413  4.587647
