16  
    
  C     9.269267  6.688252  2.454790
  C     9.592139 10.644515  2.766557
  C     8.092686  6.287085  1.774382
  C     8.345116 10.200419  2.236413
  N    10.337878  6.843870  1.670583
  N    10.629359 10.634805  1.894345
  N     8.192362  6.199412  0.460762
  N     8.334639  9.997866  0.937205
  N     7.445117  6.391982  4.264888
  N     7.929367 10.538715  4.774019
  S     6.705607  6.043500  2.803733
  S     7.039714 10.178624  3.405507
  S     9.778117  6.660008  0.126086
  S     9.944847 10.319711  0.434243
  S     9.026637  6.766546  4.163907
  S     9.514092 10.925992  4.489861
