16  
    
  C     4.984483  4.742674  1.708099
  C     4.719887  8.905794  1.754268
  C     3.625366  4.633352  1.240257
  C     3.449142  8.373725  1.233539
  N     5.888493  4.910352  0.735994
  N     5.635400  9.127260  0.809958
  N     3.533417  4.442742 -0.071460
  N     3.412612  8.387767 -0.099145
  N     3.375929  4.450623  3.744209
  N     3.183392  8.580953  3.784129
  S     2.359618  4.440227  2.438653
  S     2.254904  8.250218  2.502514
  S     5.027256  4.763814 -0.739476
  S     4.869355  8.879075 -0.662856
  S     4.972037  4.877364  3.478746
  S     4.785771  8.857758  3.479390
