16  
    
  C    12.121433  8.916528  3.517684
  C    11.919584 12.422668  3.352740
  C    10.988686  8.516951  2.756874
  C    10.626146 12.061920  2.838920
  N    13.187894  9.034473  2.771558
  N    12.900188 12.559478  2.435538
  N    11.201457  8.348636  1.453870
  N    10.583860 12.098334  1.498683
  N    10.220723  8.571417  5.230803
  N    10.229038 12.036482  5.354957
  S     9.522846  8.340079  3.702095
  S     9.322226 11.871954  3.919852
  S    12.736957  8.807220  1.159656
  S    12.178947 12.212831  0.998765
  S    11.788290  8.994628  5.271228
  S    11.955483 12.375751  5.111158
