16  
    
  C    12.228095  9.261811  3.566577
  C    12.468261 12.741422  3.464487
  C    11.216434  8.476670  2.795524
  C    11.149631 12.347729  2.930380
  N    13.195240  9.709249  2.808724
  N    13.449755 12.953144  2.577593
  N    11.437903  8.426653  1.492049
  N    11.276269 12.002898  1.643093
  N    10.656771  8.389504  5.339410
  N    10.883929 12.592268  5.505071
  S     9.941368  7.912828  3.893444
  S     9.946490 12.192959  4.170192
  S    12.980607  9.199171  1.249036
  S    12.791614 12.557924  1.147495
  S    12.083941  9.189017  5.307857
  S    12.512756 12.977868  5.176807
