16  
    
  C     7.859936  6.205412  2.158968
  C     8.019246 10.299631  2.178282
  C     6.639998  5.891602  1.521188
  C     6.866716  9.805646  1.522164
  N     8.859112  6.558829  1.396474
  N     9.039074 10.519885  1.383587
  N     6.724976  5.796350  0.209020
  N     7.006079  9.591654  0.213963
  N     6.221468  5.821958  4.039530
  N     6.310219 10.136259  4.083470
  S     5.414763  5.460699  2.693600
  S     5.525330  9.671085  2.663330
  S     8.339007  6.324870 -0.126620
  S     8.629453 10.147549 -0.129543
  S     7.839901  6.265909  3.864013
  S     7.888408 10.569484  3.876343
