16  
    
  C    11.860874  8.694870  3.545562
  C    11.612753 12.287469  3.298823
  C    10.602674  8.356954  2.898551
  C    10.450106 11.817888  2.579451
  N    12.853860  8.827755  2.701323
  N    12.721333 12.404763  2.516099
  N    10.677248  8.235911  1.605179
  N    10.672996 11.423542  1.322781
  N    10.008923  8.532118  5.341212
  N     9.566127 11.864658  5.040605
  S     9.252049  8.260266  3.916222
  S     8.979929 11.466734  3.442475
  S    12.263097  8.416380  1.183743
  S    12.277097 11.898901  0.988610
  S    11.625179  9.006825  5.219985
  S    11.194873 12.285173  4.974188
