16  
    
  C     5.183827  5.167833  2.025004
  C     5.156166  8.492812  1.949758
  C     3.914754  4.910854  1.381471
  C     3.984412  8.362686  1.148135
  N     6.197465  5.156122  1.164316
  N     6.289019  8.593699  1.244469
  N     3.929236  4.881897  0.046783
  N     4.265996  8.121636 -0.137218
  N     3.291961  5.137357  3.866001
  N     3.184407  8.959999  3.545811
  S     2.578677  4.914110  2.409419
  S     2.493159  8.439524  2.076381
  S     5.507073  4.883884 -0.369956
  S     5.879530  8.277354 -0.337807
  S     4.993714  5.187016  3.788960
  S     4.856480  8.797012  3.635371
