16  
    
  C    11.011327  7.724471  3.184496
  C    11.490950 11.725822  2.917169
  C     9.789240  7.568773  2.371362
  C    10.265378 11.122316  2.412131
  N    12.113932  7.742486  2.452522
  N    12.383107 12.032425  1.958764
  N    10.032690  7.498458  1.082315
  N    10.293872 10.821536  1.125004
  N     9.024291  7.528409  4.883883
  N     9.686086 11.666160  4.842919
  S     8.315896  7.386417  3.309408
  S     8.925586 10.903203  3.596897
  S    11.650444  7.630353  0.844459
  S    11.761902 11.396286  0.574769
  S    10.667128  7.706466  4.843594
  S    11.199151 12.262824  4.594463
