16  
    
  C     9.124381  7.155741  2.296725
  C     9.030552 10.681943  2.363640
  C     7.959943  6.604660  1.739996
  C     7.858178 10.154267  1.779307
  N    10.098913  7.181149  1.383524
  N    10.042139 10.795605  1.485619
  N     7.979885  6.339344  0.444780
  N     7.884195  9.950541  0.489592
  N     7.365685  6.747527  4.180817
  N     7.172458 10.680009  4.199574
  S     6.606666  6.345967  2.789731
  S     6.468466 10.061701  2.803875
  S     9.492684  6.652047 -0.054647
  S     9.445739 10.374831 -0.020031
  S     8.995469  7.229173  4.088830
  S     8.789593 10.938879  4.076402
