16  
    
  C    12.410480  9.128539  3.330916
  C    12.203994 12.756044  3.342352
  C    11.169447  8.616158  2.849981
  C    11.060902 12.237380  2.699917
  N    13.417281  9.214200  2.463280
  N    13.314844 12.910993  2.667959
  N    11.149135  8.350356  1.518561
  N    11.382499 11.794943  1.490723
  N    10.887714  9.145888  5.340920
  N    10.488918 12.591025  5.194621
  S     9.903554  8.661108  4.121582
  S     9.769253 12.042266  3.855181
  S    12.739430  8.699545  0.990352
  S    12.961627 12.197144  1.191159
  S    12.371713  9.552755  4.966121
  S    12.065367 13.137988  5.030857
