16  
    
  C    12.354351  9.020688  3.789169
  C    12.628392 12.683545  3.581356
  C    11.169177  8.434273  3.143856
  C    11.327802 12.465325  2.899293
  N    13.348408  9.349334  2.952309
  N    13.625116 12.844120  2.715413
  N    11.284898  8.241455  1.825961
  N    11.407586 12.468061  1.571902
  N    10.618390  8.648571  5.612152
  N    10.876236 12.424054  5.432872
  S     9.911624  8.000854  4.256058
  S     9.985943 12.256109  4.064086
  S    12.830303  8.859434  1.451991
  S    13.024076 12.744069  1.187109
  S    12.114384  9.246431  5.482342
  S    12.467395 12.970859  5.295998
