16  
    
  C    10.057524  7.521079  2.507608
  C    10.356946 11.055897  2.674510
  C     8.780469  6.959492  1.984618
  C     9.069983 11.034888  2.013095
  N    11.073303  7.660757  1.635772
  N    11.421608 10.993966  1.879321
  N     8.839378  6.721616  0.670261
  N     9.195431 11.042493  0.682511
  N     8.313260  7.245978  4.471754
  N     8.589180 11.108500  4.527684
  S     7.572533  6.631785  3.136389
  S     7.798220 10.878944  3.115512
  S    10.412909  7.004702  0.211518
  S    10.811444 11.003299  0.304666
  S     9.946499  7.647568  4.248497
  S    10.286021 11.158703  4.371642
