16  
    
  C     6.886319  5.840241  2.192687
  C     7.158439  9.774174  2.269523
  C     5.827327  5.469615  1.304843
  C     5.968120  9.447304  1.599149
  N     8.089560  6.021939  1.656097
  N     8.253232  9.987954  1.535894
  N     6.247386  5.192439  0.070169
  N     6.130378  9.374118  0.263313
  N     4.759729  5.579214  3.672777
  N     5.486700  9.398843  4.116067
  S     4.329871  5.270797  2.130430
  S     4.660076  9.383072  2.783281
  S     7.866871  5.563927  0.074249
  S     7.712175  9.695324 -0.041528
  S     6.321656  6.153665  3.830496
  S     7.065916 10.033535  3.994236
