16  
    
  C    11.875785  8.773710  3.381632
  C    11.574831 12.238160  3.266138
  C    10.614073  8.266921  2.906255
  C    10.472257 11.566009  2.582098
  N    12.831647  8.903258  2.494416
  N    12.616035 12.516808  2.460253
  N    10.584459  8.061842  1.611252
  N    10.673518 11.409021  1.268455
  N    10.190765  8.637534  5.376698
  N     9.728058 11.882293  4.942128
  S     9.321010  8.308284  4.055044
  S     9.065442 11.220134  3.630489
  S    12.107975  8.323732  1.069529
  S    12.153017 12.088154  0.911612
  S    11.804037  9.078537  5.085828
  S    11.138365 12.621266  4.923871
