16  
    
  C     9.854521  7.765607  2.789062
  C     9.873364 11.138732  2.863231
  C     8.693453  7.287193  2.117649
  C     8.655104 10.853684  2.189398
  N    10.921274  7.956600  2.019990
  N    10.928135 11.228330  2.069339
  N     8.865734  7.129321  0.823924
  N     8.734762 10.771497  0.882305
  N     7.972696  7.391084  4.542907
  N     8.130118 10.790902  4.709493
  S     7.294262  7.093906  3.098039
  S     7.264139 10.820590  3.280578
  S    10.429909  7.554225  0.456381
  S    10.352413 11.032071  0.574399
  S     9.592021  7.755538  4.544786
  S     9.688226 11.367286  4.634285
