16  
    
  C     9.202372  6.852059  2.362104
  C     9.114187 10.911982  2.994464
  C     8.028204  6.273852  1.803762
  C     7.949435 10.328584  2.436874
  N    10.264033  6.816745  1.542272
  N    10.107418 11.079555  2.134176
  N     8.084562  5.941075  0.512204
  N     8.003214 10.128801  1.095098
  N     7.379606  7.041225  4.193731
  N     7.348872 10.873206  4.895221
  S     6.694004  6.307355  2.887811
  S     6.566571 10.479929  3.497376
  S     9.696169  6.164781  0.074874
  S     9.536125 10.545124  0.616828
  S     9.004338  7.266844  4.083597
  S     8.966979 11.312274  4.697942
