16  
    
  C     5.578497  5.363457  1.921257
  C     5.503531  9.032401  1.782906
  C     4.323877  4.892532  1.402924
  C     4.411215  8.370712  1.135316
  N     6.437233  5.808949  1.009198
  N     6.580447  9.247626  1.012320
  N     4.354925  4.652861  0.100151
  N     4.592892  8.212716 -0.169416
  N     4.111370  5.005101  3.963074
  N     3.612938  8.693011  3.526076
  S     3.134243  4.637527  2.670216
  S     2.975202  8.143159  2.130715
  S     5.850279  5.224243 -0.417935
  S     6.074626  8.736901 -0.512215
  S     5.650107  5.561275  3.655633
  S     5.216290  9.088849  3.512779
