16  
    
  C     9.835692  7.390871  2.528251
  C    10.414469 11.227697  2.636914
  C     8.646485  6.760434  1.946602
  C     9.147511 10.888737  1.971311
  N    10.807339  7.564315  1.641497
  N    11.412659 11.378627  1.759663
  N     8.672731  6.554877  0.619717
  N     9.214167 10.748973  0.638398
  N     8.193673  7.216859  4.491372
  N     8.659970 11.064119  4.504855
  S     7.402770  6.558881  3.180479
  S     7.822550 10.908836  3.060481
  S    10.234713  7.072583  0.173548
  S    10.763744 11.117494  0.177372
  S     9.680067  7.900911  4.142662
  S    10.278206 11.446518  4.312843
