16  
    
  C     9.269701  6.873330  2.367582
  C     9.131715 10.959431  2.976502
  C     8.024057  6.376097  1.813062
  C     7.894249 10.431343  2.398442
  N    10.267914  6.797243  1.496843
  N    10.094826 11.140204  2.071463
  N     8.073142  6.039171  0.539345
  N     7.951401 10.166264  1.126738
  N     7.353829  6.960570  4.201563
  N     7.382751 10.830309  4.845175
  S     6.684521  6.310804  2.844403
  S     6.571693 10.415530  3.469763
  S     9.640811  6.253383  0.067715
  S     9.533524 10.623184  0.632616
  S     9.000463  7.286007  4.074319
  S     8.924415 11.351599  4.663095
