16  
    
  C     4.533150  5.127154  2.019969
  C     4.699844  8.633116  1.463946
  C     3.409713  4.657954  1.234046
  C     3.524697  8.196587  0.784359
  N     5.652858  5.295900  1.326047
  N     5.715133  8.952702  0.686488
  N     3.633359  4.623456 -0.067153
  N     3.681876  8.020761 -0.511236
  N     2.680176  5.024389  3.692886
  N     2.895757  8.348532  3.286835
  S     1.984573  4.460820  2.259395
  S     2.189644  7.894990  1.802385
  S     5.269551  4.893842 -0.245139
  S     5.208018  8.481429 -0.866281
  S     4.352297  5.154810  3.711047
  S     4.516221  8.800587  3.170321
