16  
    
  C     9.821162  7.739276  2.800251
  C    10.647687 11.506036  3.153497
  C     8.797071  7.071617  2.006383
  C     9.385130 11.220585  2.400624
  N    10.900507  8.066552  2.076120
  N    11.722668 11.593999  2.379780
  N     9.139588  6.901210  0.723910
  N     9.553720 10.956391  1.114021
  N     7.968962  7.222504  4.388633
  N     8.715660 11.357517  4.917158
  S     7.401286  6.645266  2.974873
  S     7.991751 10.971285  3.410915
  S    10.733640  7.477578  0.537710
  S    11.189960 11.237937  0.828482
  S     9.394392  8.024373  4.475150
  S    10.335656 11.787550  4.848712
