16  
    
  C     8.221388  6.554406  2.665608
  C     8.697193 10.504862  2.810847
  C     7.093815  6.088144  1.912005
  C     7.488691 10.070274  2.134963
  N     9.287286  6.817137  1.925958
  N     9.766923 10.660682  2.023239
  N     7.330440  5.932852  0.613918
  N     7.670386  9.772079  0.875264
  N     6.253383  6.321349  4.320810
  N     6.888483 10.341095  4.625563
  S     5.695314  5.846119  2.832182
  S     6.116547  9.955067  3.198607
  S     8.822886  6.484272  0.355559
  S     9.260779 10.124627  0.464619
  S     7.816089  6.815093  4.340794
  S     8.567058 10.547201  4.528678
