16  
    
  C    11.897709  8.455987  3.231162
  C    11.395415 12.067999  3.511899
  C    10.640863  8.206649  2.563754
  C    10.276073 11.519227  2.774748
  N    12.918327  8.715291  2.391899
  N    12.398570 12.383604  2.725415
  N    10.727129  8.147895  1.209940
  N    10.445749 11.475610  1.460439
  N    10.161085  8.054027  5.142532
  N     9.671034 11.687484  5.345021
  S     9.344538  8.093216  3.739834
  S     9.002379 11.103328  3.943579
  S    12.256132  8.608483  0.889706
  S    11.989399 11.998650  1.166703
  S    11.842472  8.423732  4.956798
  S    11.272713 12.235778  5.247137
