16  
    
  C     8.339836  6.642875  2.602970
  C     8.778640 10.489698  2.807851
  C     7.251762  6.043434  1.906082
  C     7.593929 10.049141  2.172744
  N     9.412140  6.881244  1.857804
  N     9.829190 10.672965  1.969545
  N     7.343273  5.983216  0.588011
  N     7.662891  9.877516  0.861092
  N     6.335432  6.272721  4.266100
  N     6.933141 10.349300  4.621480
  S     5.737899  5.871457  2.749303
  S     6.195897  9.955247  3.194710
  S     8.908647  6.510820  0.251944
  S     9.231625 10.130769  0.513487
  S     7.922800  6.864585  4.350150
  S     8.589681 10.497037  4.560207
