16  
    
  C     9.426956  7.039742  2.996436
  C     9.651291 10.776443  2.609261
  C     8.277523  6.513800  2.283640
  C     8.407110 10.320663  1.978250
  N    10.374875  7.383815  2.141293
  N    10.569879 11.137487  1.741553
  N     8.343353  6.492952  0.957258
  N     8.460211 10.278558  0.642530
  N     7.660098  6.465675  4.752986
  N     7.949095 10.346883  4.530768
  S     6.991742  5.994940  3.298183
  S     7.143071  9.912516  3.123813
  S     9.858245  7.121614  0.583898
  S    10.000289 10.877893  0.218823
  S     9.224477  6.920321  4.734426
  S     9.511972 10.880172  4.340815
