16  
    
  C    12.692582  8.889256  3.895510
  C    12.620663 12.757773  3.923400
  C    11.578144  8.342056  3.238031
  C    11.488901 12.353104  3.169512
  N    13.646108  9.232868  3.035884
  N    13.706083 12.994999  3.150077
  N    11.583796  8.292431  1.912777
  N    11.711229 11.989322  1.896402
  N    10.987956  8.603752  5.784518
  N    10.734013 12.368509  5.671563
  S    10.312637  8.104662  4.355756
  S    10.145693 11.850630  4.184383
  S    13.090999  8.877636  1.482210
  S    13.292807 12.518321  1.630070
  S    12.614749  9.077273  5.593468
  S    12.304712 12.698031  5.636295
