16  
    
  C     8.041260  6.371340  2.274248
  C     8.057796 10.134127  2.264790
  C     6.855987  5.862966  1.650908
  C     6.822645  9.767704  1.612522
  N     9.081447  6.532006  1.441297
  N     9.106389 10.185962  1.427231
  N     6.933707  5.831309  0.303796
  N     6.869457  9.669799  0.291717
  N     6.321450  6.103249  4.122072
  N     6.320127  9.861916  4.146218
  S     5.542076  5.696713  2.723540
  S     5.537638  9.517019  2.754887
  S     8.443202  6.233053 -0.052589
  S     8.413836  9.879683 -0.115089
  S     7.927307  6.430771  3.986718
  S     7.868219 10.453421  3.993253
