16  
    
  C    12.072898  8.581377  3.580961
  C    12.179585 12.304030  3.297254
  C    10.896474  8.250225  2.829028
  C    11.007872 11.747575  2.664990
  N    13.133696  8.721569  2.776889
  N    13.248443 12.342533  2.503506
  N    11.069798  8.049657  1.525929
  N    11.127173 11.470760  1.377496
  N    10.129262  8.301772  5.310273
  N    10.266163 11.935517  5.171391
  S     9.504012  8.043380  3.807745
  S     9.670229 11.238044  3.682845
  S    12.645660  8.399530  1.223579
  S    12.761730 11.778153  1.027894
  S    11.799554  8.767617  5.257243
  S    11.848960 12.488924  5.061847
