16  
    
  C     7.620816  6.262111  2.245596
  C     7.694950 10.124945  2.430831
  C     6.342319  5.863023  1.723927
  C     6.539917  9.545943  1.760887
  N     8.571677  6.401086  1.353175
  N     8.763181 10.325134  1.694026
  N     6.323265  5.786235  0.414800
  N     6.787155  9.369875  0.474549
  N     6.009844  6.355119  4.206442
  N     6.070480  9.559540  4.283183
  S     5.077656  5.694372  2.926170
  S     5.242116  9.262715  2.873997
  S     7.905657  6.211992 -0.131991
  S     8.340869  9.939681  0.153334
  S     7.661702  6.505410  3.948651
  S     7.558233 10.278869  4.149332
