16  
    
  C     5.188121  5.156664  2.034801
  C     5.154869  8.498042  1.937452
  C     3.908252  4.921225  1.386673
  C     3.992305  8.360663  1.147936
  N     6.206470  5.149399  1.173109
  N     6.287292  8.588016  1.241928
  N     3.937188  4.863453  0.059752
  N     4.276082  8.137707 -0.137732
  N     3.296703  5.153304  3.851363
  N     3.185937  8.958934  3.536755
  S     2.571388  4.919030  2.407701
  S     2.498744  8.438154  2.068289
  S     5.517847  4.883187 -0.366605
  S     5.880021  8.281376 -0.332124
  S     4.988469  5.200182  3.794038
  S     4.853120  8.790960  3.629120
