16  
    
  C     4.557503  5.082700  1.612971
  C     4.346760  8.533129  1.488978
  C     3.312315  4.616075  1.032129
  C     3.156685  8.008158  0.916134
  N     5.561605  5.232201  0.751314
  N     5.363439  8.675123  0.661174
  N     3.342294  4.595315 -0.288153
  N     3.255054  7.648454 -0.356086
  N     2.827037  4.825998  3.521290
  N     2.602919  8.492137  3.404761
  S     1.991006  4.559426  2.104848
  S     1.806644  7.948124  1.993934
  S     4.893794  4.852291 -0.700184
  S     4.826167  8.078963 -0.757450
  S     4.323808  5.506933  3.310292
  S     4.221331  8.879738  3.160351
