16  
    
  C     9.200319  6.840985  2.361770
  C     9.166840 10.862774  2.977028
  C     8.023108  6.200373  1.808710
  C     7.933990 10.417261  2.409853
  N    10.310056  6.746062  1.634662
  N    10.206313 10.792783  2.185777
  N     8.202360  5.729487  0.583688
  N     8.023666 10.021644  1.139815
  N     7.438423  6.942971  4.180171
  N     7.384816 10.989022  4.795567
  S     6.623223  6.343359  2.836288
  S     6.563394 10.609453  3.421584
  S     9.806451  6.043913  0.208327
  S     9.600082 10.236725  0.711060
  S     9.063013  7.221596  3.983785
  S     9.040825 11.110305  4.672020
