16  
    
  C    12.387394  9.026783  3.431469
  C    12.398881 12.778144  3.443816
  C    11.280761  8.546894  2.640856
  C    11.141051 12.271604  2.977963
  N    13.394822  9.525065  2.708396
  N    13.368968 12.858843  2.533986
  N    11.493306  8.590217  1.308544
  N    11.144990 12.035829  1.682875
  N    10.637101  8.433464  5.108083
  N    10.792399 12.651668  5.473647
  S     9.955221  7.981341  3.672331
  S     9.980877 11.899010  4.226629
  S    13.000058  9.246512  1.128138
  S    12.616350 12.457395  1.057808
  S    12.045398  9.238578  5.173247
  S    12.373861 13.079268  5.177728
