16  
    
  C     5.843948  5.602200  2.180305
  C     5.919544  9.126387  1.738405
  C     4.542465  5.477173  1.478985
  C     4.671630  8.929703  0.997402
  N     6.875605  5.499804  1.380257
  N     7.034416  9.078663  1.013856
  N     4.657775  5.369509  0.153901
  N     4.881695  8.711539 -0.310079
  N     4.072205  5.921669  3.999051
  N     3.965048  9.260649  3.496908
  S     3.170789  5.593354  2.618803
  S     3.329509  8.780618  2.047100
  S     6.321362  5.262478 -0.178844
  S     6.479873  8.760790 -0.566200
  S     5.765597  5.827886  3.917410
  S     5.658499  9.451010  3.458650
