16  
    
  C    11.293715  8.089875  3.347012
  C    11.381550 12.030526  3.260897
  C    10.108194  7.780665  2.670220
  C    10.043712 11.664852  2.785212
  N    12.381850  8.147883  2.561784
  N    12.344395 11.836967  2.343700
  N    10.287018  7.628352  1.360271
  N    10.001329 11.330625  1.489046
  N     9.490157  8.393409  5.080576
  N     9.848250 12.198564  5.286617
  S     8.760676  7.734961  3.724174
  S     8.826943 11.788431  4.105265
  S    11.878552  7.835768  1.050386
  S    11.565286 11.419553  0.950191
  S    11.093551  8.543668  5.032278
  S    11.453610 12.293359  5.004905
