16  
    
  C    11.011229  8.365964  2.903241
  C    10.813535 11.871340  3.052495
  C     9.847694  7.700300  2.335755
  C     9.647382 11.392003  2.413532
  N    12.022509  8.534914  2.051756
  N    11.786467 12.202422  2.202775
  N    10.016285  7.338824  1.067889
  N     9.771587 11.191497  1.106568
  N     9.508091  7.921788  4.875186
  N     9.064756 11.500166  4.883818
  S     8.665483  7.347044  3.566448
  S     8.368079 10.951220  3.492895
  S    11.474689  7.929424  0.610200
  S    11.306672 11.585991  0.696597
  S    10.976979  8.539240  4.664929
  S    10.648038 11.974470  4.763009
