16  
    
  C     7.798621  6.402472  2.356845
  C     7.875034 10.500656  2.031154
  C     6.676823  6.044684  1.582800
  C     6.691480  9.909715  1.518195
  N     8.927326  6.658993  1.677505
  N     8.867567 10.658943  1.153000
  N     6.981983  5.813077  0.268954
  N     6.770303  9.476558  0.237339
  N     5.881559  6.332874  4.087982
  N     6.450371 10.311403  4.103662
  S     5.240367  5.868210  2.643855
  S     5.476369  9.849987  2.841557
  S     8.525108  6.307741  0.105063
  S     8.247133 10.022911 -0.277181
  S     7.502267  6.674077  4.072534
  S     8.032093 10.679917  3.732509
