16  
    
  C    12.260586  9.155860  3.431132
  C    12.098309 12.423183  3.505279
  C    11.056049  8.658787  2.732568
  C    10.888392 12.128149  2.773078
  N    13.348989  9.255602  2.696941
  N    13.169873 12.699644  2.775996
  N    11.245415  8.355091  1.441693
  N    11.123129 12.075794  1.454730
  N    10.492125  8.904851  5.284236
  N    10.301610 12.378612  5.218144
  S     9.731829  8.317000  3.890237
  S     9.504530 11.942381  3.855185
  S    12.876427  8.804499  1.100306
  S    12.710309 12.370007  1.194013
  S    12.075049  9.326660  5.153322
  S    11.848825 12.862292  5.116802
