16  
    
  C    12.869914  9.002031  3.478036
  C    12.743986 12.786469  3.434473
  C    11.561290  8.507669  2.979457
  C    11.557486 12.257805  2.772675
  N    13.685306  9.334937  2.474021
  N    13.805005 12.971869  2.650652
  N    11.513019  8.340711  1.662520
  N    11.777686 12.062731  1.473963
  N    11.088826  9.073010  5.437379
  N    11.027357 12.358951  5.258582
  S    10.263085  8.374736  4.184668
  S    10.244841 11.953609  3.845486
  S    12.950823  8.861684  1.073948
  S    13.291563 12.548717  1.044733
  S    12.735180  9.319011  5.204399
  S    12.563613 12.920928  5.190025
