16  
    
  C    12.086748  8.602777  3.628109
  C    12.121158 12.097407  3.365268
  C    10.910550  8.226562  2.859921
  C    10.953649 11.520423  2.710720
  N    13.150103  8.763990  2.842280
  N    13.199918 12.205994  2.575282
  N    11.126399  8.103546  1.550851
  N    11.039205 11.451433  1.386400
  N    10.129547  8.333218  5.277195
  N    10.312280 11.944051  5.208582
  S     9.456086  8.008366  3.828871
  S     9.646490 11.326625  3.759280
  S    12.739079  8.389118  1.313169
  S    12.648276 11.884351  1.025497
  S    11.748851  8.722087  5.324811
  S    11.866436 12.490739  5.015599
