16  
    
  C     8.327334  6.695213  2.380401
  C     8.391863 10.309983  2.305536
  C     7.161058  6.170339  1.778799
  C     7.150955  9.919824  1.767000
  N     9.380323  6.781619  1.559128
  N     9.390992 10.204770  1.455314
  N     7.252092  6.124302  0.447136
  N     7.198497  9.653934  0.443811
  N     6.729805  6.211007  4.298040
  N     6.784998 10.149293  4.312219
  S     5.814930  5.899132  2.932434
  S     5.915614  9.635791  2.991526
  S     8.854267  6.545829  0.061227
  S     8.799732  9.854607 -0.003169
  S     8.314938  6.777175  4.130382
  S     8.358680 10.531929  4.048934
