16  
    
  C     7.973274  6.675727  2.649592
  C     8.668976 10.295354  2.738038
  C     6.892747  6.088954  1.908331
  C     7.454757  9.842309  2.107151
  N     9.119265  6.830078  1.993145
  N     9.717128 10.532208  1.977888
  N     7.191400  5.995414  0.606031
  N     7.582561  9.710668  0.790454
  N     6.153021  6.327295  4.385821
  N     6.890350 10.206816  4.600637
  S     5.441624  5.800220  2.957561
  S     6.101438  9.939952  3.185505
  S     8.791593  6.361697  0.423224
  S     9.165305 10.084218  0.404549
  S     7.758771  6.774984  4.374257
  S     8.480700 10.726643  4.408324
