16  
    
  C    10.928159  8.185160  2.962174
  C    10.835047 11.858596  3.071839
  C     9.707638  7.763872  2.253351
  C     9.691341 11.271724  2.379290
  N    11.974392  8.279327  2.159916
  N    11.872498 12.072721  2.281977
  N     9.820532  7.556796  0.956280
  N     9.777496 11.201239  1.054402
  N     9.138979  7.911198  4.846294
  N     9.002073 11.684246  4.838266
  S     8.382993  7.615028  3.340545
  S     8.303087 11.159936  3.409517
  S    11.386514  8.035886  0.577725
  S    11.424128 11.660074  0.756088
  S    10.779090  8.450982  4.648083
  S    10.549817 12.241342  4.719296
