16  
    
  C     6.740774  6.208275  2.391387
  C     7.291443  9.632308  2.221344
  C     5.670270  5.405087  1.823178
  C     5.971208  9.441132  1.582603
  N     7.593244  6.663338  1.486201
  N     8.224904  9.770041  1.288067
  N     5.697331  5.353878  0.511505
  N     5.960904  9.341942  0.263776
  N     5.367983  5.209052  4.359909
  N     5.470201  9.448320  4.024769
  S     4.539581  4.712920  2.935467
  S     4.606411  9.459055  2.643031
  S     7.065440  6.113147 -0.005135
  S     7.581806  9.480067 -0.228066
  S     6.614154  6.225492  4.127879
  S     7.095506  9.825615  3.950548
