16  
    
  C     7.923261  6.273695  2.147114
  C     8.099579 10.621127  2.177783
  C     6.683489  5.881371  1.516189
  C     6.966735  9.963396  1.612531
  N     8.857430  6.618008  1.275607
  N     9.084903 10.822452  1.306938
  N     6.720370  5.717665  0.210105
  N     7.109366  9.562004  0.363983
  N     6.176380  5.678707  4.025429
  N     6.317623 10.116363  4.047620
  S     5.407795  5.549331  2.621423
  S     5.620695  9.705473  2.575868
  S     8.240535  6.300325 -0.257453
  S     8.604726 10.187521 -0.135547
  S     7.704008  6.327898  3.917489
  S     7.848567 10.733557  3.931781
