16  
    
  C     7.566173  6.557032  2.328793
  C     7.663317 10.047751  2.331528
  C     6.278326  6.202900  1.831636
  C     6.511097  9.712706  1.563356
  N     8.506995  6.661975  1.404094
  N     8.763390 10.132951  1.589921
  N     6.266490  5.755687  0.565896
  N     6.724977  9.532740  0.260321
  N     6.141802  6.490544  4.356657
  N     5.874274 10.048884  4.046992
  S     5.075702  6.133579  3.066809
  S     5.080237  9.685069  2.612491
  S     7.883201  6.041179  0.018357
  S     8.370011  9.835483  0.042375
  S     7.686852  6.837120  4.017431
  S     7.499684 10.220049  4.006033
