16  
    
  C     9.252404  6.879334  2.474879
  C     8.896377 10.905036  2.322705
  C     8.012446  6.452077  1.881235
  C     7.729648 10.350248  1.699751
  N    10.239798  7.087507  1.623461
  N     9.972431 11.018910  1.570216
  N     8.047729  6.238997  0.570494
  N     7.870793 10.104956  0.375334
  N     7.583444  6.926204  4.450488
  N     7.172019 10.631537  4.211950
  S     6.714453  6.369089  3.115885
  S     6.433665 10.082276  2.847126
  S     9.562633  6.777393  0.053186
  S     9.403595 10.567754 -0.017863
  S     9.135353  7.347645  4.161178
  S     8.713095 11.235930  3.984519
