16  
    
  C     4.537515  5.027747  1.695042
  C     4.085804  8.778480  1.644613
  C     3.243137  4.853110  1.063410
  C     3.058624  8.259824  0.811607
  N     5.546372  5.028959  0.784451
  N     5.196687  9.137366  1.018090
  N     3.279285  4.575147 -0.241906
  N     3.297468  8.328065 -0.504617
  N     2.700898  4.997919  3.523437
  N     2.222998  8.084360  3.212572
  S     1.903742  4.634798  2.083600
  S     1.648742  7.688787  1.683128
  S     4.783149  4.822435 -0.700961
  S     4.855764  8.917022 -0.607349
  S     4.386647  5.275828  3.460566
  S     3.812431  8.440544  3.320217
