16  
    
  C    10.990177  7.666142  3.168433
  C    11.223241 11.784218  2.844232
  C     9.738255  7.519582  2.420981
  C    10.088618 11.125878  2.284280
  N    12.012158  7.776830  2.328587
  N    12.224613 11.937988  1.997076
  N     9.882951  7.553356  1.097655
  N    10.162587 10.851590  0.978705
  N     9.149583  7.640397  4.894700
  N     9.514191 11.802774  4.698446
  S     8.389512  7.244604  3.494058
  S     8.861531 10.902459  3.468786
  S    11.504335  7.663525  0.812849
  S    11.619540 11.375899  0.520385
  S    10.769210  7.641585  4.900110
  S    11.160959 12.144108  4.568129
