16  
    
  C     9.014588  7.068608  2.694977
  C     8.876577 11.063208  2.344439
  C     7.826529  6.497393  2.212718
  C     7.724104 10.511504  1.703966
  N     9.848197  7.359752  1.698676
  N     9.787455 11.494769  1.473300
  N     7.821557  6.118402  0.935743
  N     7.788701 10.417119  0.405751
  N     7.425572  6.848067  4.679410
  N     7.131493 10.773963  4.168383
  S     6.568127  6.322850  3.372857
  S     6.470338 10.024893  2.821282
  S     9.229841  6.690007  0.357168
  S     9.296614 11.066104  0.008173
  S     8.899232  7.632120  4.340659
  S     8.724926 11.175531  4.108894
