16  
    
  C     5.453552  5.469230  1.665391
  C     5.263058  8.981557  1.704091
  C     4.219822  5.147208  0.985880
  C     4.182173  8.423880  0.979233
  N     6.469399  5.732379  0.864346
  N     6.352163  9.197692  0.963466
  N     4.358031  4.917182 -0.324849
  N     4.442389  8.270980 -0.308292
  N     3.674690  5.131716  3.495100
  N     3.350696  8.742578  3.373416
  S     2.856689  5.077481  2.039205
  S     2.691089  8.321724  1.894016
  S     5.854077  5.502803 -0.686162
  S     5.954879  8.761892 -0.586813
  S     5.215547  5.676261  3.376494
  S     4.994286  9.066363  3.449358
