16  
    
  C    11.038097  8.312531  2.939957
  C    10.825047 11.906217  3.039937
  C     9.863038  7.720652  2.340625
  C     9.643286 11.346361  2.366870
  N    11.995279  8.457740  2.060886
  N    11.795403 12.199863  2.193921
  N     9.979848  7.427019  1.044945
  N     9.791383 11.129559  1.067843
  N     9.406261  7.842810  4.917958
  N     9.048037 11.564529  4.871762
  S     8.604551  7.404487  3.508525
  S     8.372185 11.005035  3.486313
  S    11.511611  7.951393  0.587916
  S    11.315538 11.632047  0.704568
  S    10.964034  8.539471  4.658970
  S    10.619493 12.037320  4.830395
