16  
    
  C    11.049937  8.357062  2.932435
  C    10.815091 11.928591  3.005613
  C     9.905868  7.641996  2.417187
  C     9.615049 11.324220  2.422874
  N    12.005464  8.630342  2.055973
  N    11.866616 12.081597  2.190782
  N     9.984564  7.295543  1.136532
  N     9.709875 11.192025  1.103798
  N     9.466725  7.937534  4.907594
  N     9.105363 11.411685  4.946969
  S     8.711400  7.299837  3.614111
  S     8.334017 10.908680  3.482898
  S    11.450948  7.900977  0.583911
  S    11.311525 11.600790  0.703553
  S    10.996185  8.577204  4.616782
  S    10.678687 11.926600  4.709023
