16  
    
  C    12.544636  8.945283  3.421633
  C    12.241636 12.872573  3.665975
  C    11.330042  8.379470  2.799501
  C    11.083939 12.231718  3.055518
  N    13.603198  9.173982  2.634006
  N    13.185427 13.241305  2.804166
  N    11.488435  8.286147  1.453958
  N    11.286114 12.003447  1.745104
  N    10.838880  8.718155  5.382532
  N    10.573725 12.418544  5.609881
  S     9.998214  8.238316  3.906072
  S     9.836517 11.762693  4.256211
  S    13.083992  8.843854  1.124814
  S    12.754522 12.595445  1.311262
  S    12.494150  9.073215  5.185155
  S    12.094035 13.144051  5.344409
