16  
    
  C     3.557311  4.555198  1.604463
  C     3.832740  8.299209  1.693177
  C     2.464924  3.900135  0.963172
  C     2.579180  8.040847  1.028924
  N     4.528256  4.929899  0.782446
  N     4.827199  8.617454  0.859742
  N     2.456758  4.068932 -0.355603
  N     2.676253  7.807606 -0.295728
  N     1.951199  4.314473  3.453506
  N     2.166350  7.974606  3.553662
  S     1.198396  3.653387  2.113356
  S     1.271736  7.866552  2.150324
  S     3.979920  4.657342 -0.740074
  S     4.236958  8.260528 -0.659885
  S     3.482374  4.805566  3.295890
  S     3.751859  8.378584  3.392463
