16  
    
  C    11.799062  8.609317  3.210292
  C    11.349051 12.154433  3.432974
  C    10.517844  8.239156  2.591028
  C    10.213359 11.685625  2.695182
  N    12.739290  8.781536  2.325629
  N    12.356391 12.535488  2.642864
  N    10.500955  8.244871  1.273897
  N    10.376847 11.476326  1.369515
  N    10.254798  8.039185  5.157668
  N     9.540172 11.604842  5.279568
  S     9.359999  7.776979  3.733531
  S     8.891654 11.239454  3.718833
  S    12.094138  8.618903  0.810943
  S    11.918773 12.103785  1.043611
  S    11.784029  8.586730  4.938148
  S    11.142128 12.304342  5.167519
