16  
    
  C     3.879657  4.720317  1.658874
  C     3.835115  8.362425  1.739269
  C     2.629930  4.358249  1.048836
  C     2.625399  8.006968  0.971146
  N     4.925543  4.582177  0.806777
  N     4.933378  8.412253  0.968576
  N     2.654273  4.134480 -0.266084
  N     2.885055  7.625593 -0.305625
  N     2.149319  4.792914  3.570882
  N     1.937859  8.286794  3.466695
  S     1.298817  4.604597  2.152479
  S     1.253480  7.858588  2.008944
  S     4.259071  4.196440 -0.673417
  S     4.481839  7.950023 -0.566573
  S     3.733668  4.943508  3.443359
  S     3.450537  8.848158  3.354518
