16  
    
  C    11.357584  8.525272  3.365873
  C    11.360274 12.392614  3.300889
  C    10.157549  7.903341  2.769637
  C    10.237280 11.662363  2.768402
  N    12.437726  8.632531  2.589131
  N    12.393524 12.525922  2.510072
  N    10.379822  7.516888  1.499746
  N    10.362728 11.329206  1.490163
  N     9.511269  8.463384  5.121846
  N     9.695941 12.468489  5.151962
  S     8.798544  7.765203  3.827804
  S     8.937181 11.701579  3.913190
  S    11.962969  8.023510  1.106295
  S    11.944387 11.730900  1.056467
  S    11.094986  9.002820  4.994080
  S    11.300977 12.748412  4.974109
