16  
    
  C    12.771577  9.373046  3.458119
  C    12.727017 12.800950  3.649881
  C    11.653845  8.756636  2.792949
  C    11.543839 12.317029  3.033124
  N    13.862281  9.410549  2.674675
  N    13.739520 13.040057  2.829850
  N    11.809508  8.464295  1.492673
  N    11.656717 12.128985  1.718926
  N    11.003879  9.196058  5.215881
  N    10.981626 12.683979  5.554988
  S    10.301261  8.582088  3.864881
  S    10.234007 12.365979  4.127259
  S    13.367434  8.964032  1.217921
  S    13.195743 12.574566  1.297679
  S    12.586659  9.644167  5.122713
  S    12.544641 13.177352  5.273431
