16  
    
  C     6.701768  5.768424  2.029686
  C     6.670535  9.524072  2.112255
  C     5.435293  5.459898  1.448414
  C     5.406426  9.113051  1.601731
  N     7.673951  5.843483  1.120039
  N     7.635361  9.733983  1.234093
  N     5.466161  5.430261  0.129005
  N     5.383510  8.991644  0.286262
  N     4.996632  5.744074  3.925283
  N     5.084700  9.302361  4.186289
  S     4.090967  5.371017  2.569785
  S     4.186354  9.082076  2.812808
  S     7.044432  5.586261 -0.398503
  S     6.934427  9.372991 -0.255234
  S     6.658719  5.955643  3.765143
  S     6.668174  9.828542  3.803178
