16  
    
  C     4.379258  5.014226  1.358412
  C     4.237193  8.534456  1.660161
  C     3.085964  4.641638  0.782724
  C     3.093767  8.257036  0.829466
  N     5.406288  5.097251  0.550076
  N     5.307047  8.891583  0.945820
  N     3.186344  4.533966 -0.536516
  N     3.342254  8.235886 -0.463789
  N     2.796733  5.057477  3.303129
  N     2.344347  7.748193  3.121305
  S     1.811793  4.604539  2.018411
  S     1.654647  7.766076  1.644289
  S     4.808819  4.881598 -0.938343
  S     4.880504  8.770649 -0.603538
  S     4.458369  5.118593  3.077764
  S     3.795127  8.550610  3.348883
