16  
    
  C    10.947186  7.757575  3.108691
  C    11.068507 11.665313  2.750868
  C     9.709502  7.343176  2.535700
  C     9.837380 11.200680  2.152459
  N    11.915459  8.018836  2.223660
  N    12.008242 11.907656  1.838310
  N     9.667066  7.250284  1.195457
  N     9.876331 10.888274  0.847219
  N     9.351136  7.565435  5.134922
  N     9.443696 11.293683  4.661599
  S     8.495312  7.124640  3.754197
  S     8.546954 11.031581  3.316322
  S    11.186202  7.758905  0.682786
  S    11.454971 11.384728  0.400574
  S    10.985709  7.913134  4.851295
  S    10.904134 11.998277  4.473246
