16  
    
  C     5.727622  5.721812  1.822243
  C     5.919266  8.981017  2.122795
  C     4.495960  5.265770  1.201792
  C     4.649300  8.758670  1.440998
  N     6.818997  5.496521  1.073732
  N     6.958765  9.079790  1.287901
  N     4.671136  4.965265 -0.073942
  N     4.796215  8.499771  0.153546
  N     4.028663  5.597474  3.699135
  N     4.090144  8.824913  3.890213
  S     3.205228  5.201450  2.322295
  S     3.306244  8.544818  2.484172
  S     6.267232  5.032750 -0.404983
  S     6.457221  8.700439 -0.206502
  S     5.611409  5.718079  3.539566
  S     5.755648  9.054919  3.823725
