16  
    
  C     6.298363  5.717332  2.021356
  C     6.029851  9.145623  1.657179
  C     5.032550  5.510263  1.414349
  C     4.818151  8.687978  1.068405
  N     7.310180  5.764013  1.156494
  N     7.045317  9.270595  0.796243
  N     5.101172  5.151297  0.130422
  N     4.893464  8.629833 -0.258913
  N     4.592983  5.672981  3.997509
  N     4.315460  8.990320  3.664676
  S     3.792934  5.411578  2.583688
  S     3.520600  8.564685  2.221344
  S     6.669613  5.347204 -0.301578
  S     6.514145  8.927090 -0.685051
  S     6.183316  6.090305  3.701702
  S     5.933943  9.418341  3.354440
