16  
    
  C    10.639221  7.637628  3.090401
  C    10.653975 11.789114  3.148005
  C     9.353640  7.292900  2.455285
  C     9.412510 11.172055  2.692994
  N    11.559660  7.910914  2.181247
  N    11.465537 12.033232  2.121645
  N     9.324941  7.298986  1.134465
  N     9.350045 10.950728  1.373042
  N     8.998260  7.451041  4.996774
  N     9.233973 11.445986  5.234920
  S     8.098480  7.022310  3.658112
  S     8.283160 10.902987  3.999217
  S    10.878587  7.820278  0.681405
  S    10.701099 11.546700  0.701542
  S    10.582138  7.728013  4.815545
  S    10.609887 12.302510  4.799443
