16  
    
  C     5.194079  5.086745  2.060264
  C     5.174637  8.568563  1.923811
  C     3.905627  4.983705  1.397120
  C     3.992918  8.327194  1.132643
  N     6.229401  5.109923  1.212580
  N     6.308951  8.549474  1.231959
  N     3.974004  4.761227  0.099167
  N     4.261186  8.207260 -0.157180
  N     3.344690  5.217994  3.817198
  N     3.191989  8.927779  3.484557
  S     2.517341  4.946275  2.405034
  S     2.530490  8.436850  2.038735
  S     5.571086  4.888755 -0.342377
  S     5.884062  8.298336 -0.314605
  S     4.965703  5.268497  3.799132
  S     4.836276  8.767991  3.591165
