16  
    
  C     7.733348  6.614599  2.426490
  C     7.803482 10.059535  2.053164
  C     6.536430  6.159508  1.741490
  C     6.514842  9.870838  1.383633
  N     8.833946  6.670282  1.671630
  N     8.898975 10.005622  1.310263
  N     6.755174  5.851807  0.464838
  N     6.674070  9.767688  0.051726
  N     5.828125  6.702640  4.209009
  N     6.097786 10.216581  3.961702
  S     5.089763  6.138183  2.879422
  S     5.205388  9.938953  2.614445
  S     8.351593  6.152159  0.166838
  S     8.288400  9.826521 -0.269273
  S     7.502431  7.066597  4.107306
  S     7.711114 10.489373  3.718033
