16  
    
  C     5.299919  5.638834  1.612935
  C     5.242552  8.955606  1.428622
  C     4.011459  5.172128  1.143097
  C     3.958233  8.547382  0.803738
  N     6.298571  5.491527  0.751181
  N     6.271605  8.983373  0.584033
  N     4.000850  4.961809 -0.199087
  N     4.089440  8.188205 -0.462987
  N     3.763924  5.547351  3.716785
  N     3.452727  8.913049  3.262890
  S     2.864240  4.999333  2.445552
  S     2.699392  8.199966  1.908226
  S     5.598911  5.216692 -0.712600
  S     5.711781  8.445738 -0.887255
  S     5.412896  5.760157  3.302058
  S     5.023958  9.430054  3.083880
