16  
    
  C    11.241545  8.184837  3.232129
  C    11.468994 11.637522  3.267219
  C    10.032021  7.812042  2.632388
  C    10.122257 11.382241  2.742037
  N    12.288901  8.130415  2.385280
  N    12.448421 11.729949  2.332347
  N    10.093517  7.483865  1.349770
  N    10.139799 11.344893  1.420450
  N     9.487302  8.213964  5.090961
  N     9.730882 11.900152  5.150672
  S     8.692088  7.631237  3.778963
  S     8.788869 11.679427  3.830263
  S    11.652381  7.709810  0.912637
  S    11.710530 11.471526  0.924841
  S    11.129770  8.465630  4.943220
  S    11.347334 11.975006  4.998246
