16  
    
  C     8.411622  6.676503  2.397830
  C     8.392040 10.325367  2.331022
  C     7.191637  6.159973  1.776953
  C     7.127578  9.929928  1.758861
  N     9.419458  6.811250  1.561498
  N     9.412114 10.255704  1.448435
  N     7.240422  6.099575  0.457352
  N     7.196908  9.685020  0.457332
  N     6.769112  6.194387  4.289611
  N     6.726381 10.148492  4.317711
  S     5.881764  5.910111  2.937016
  S     5.922530  9.606006  2.958715
  S     8.855124  6.552356  0.011397
  S     8.820755  9.836172 -0.002284
  S     8.338398  6.778622  4.142075
  S     8.312946 10.539103  4.097074
