16  
    
  C    12.289378  9.236032  3.513528
  C    12.447340 12.719075  3.488840
  C    11.227125  8.613730  2.781781
  C    11.227253 12.246505  2.953031
  N    13.275661  9.735793  2.751987
  N    13.402479 12.898501  2.610110
  N    11.446855  8.425274  1.465778
  N    11.234813 12.010640  1.641078
  N    10.599517  8.355557  5.247042
  N    10.941917 12.542008  5.483131
  S     9.988847  7.932650  3.829456
  S     9.988243 12.172735  4.163657
  S    12.953273  9.206381  1.204223
  S    12.703717 12.517292  1.137726
  S    12.038877  9.182167  5.287453
  S    12.452189 13.030408  5.154904
