16  
    
  C     4.981698  4.737652  1.701347
  C     4.723211  8.904322  1.752038
  C     3.620015  4.627885  1.241770
  C     3.455693  8.369362  1.235845
  N     5.885624  4.912700  0.732148
  N     5.635591  9.118929  0.804130
  N     3.529254  4.448689 -0.074279
  N     3.418637  8.383158 -0.097323
  N     3.381393  4.453262  3.749330
  N     3.183159  8.585462  3.787630
  S     2.361022  4.439616  2.443056
  S     2.259684  8.254024  2.506511
  S     5.029989  4.765040 -0.745247
  S     4.869602  8.872720 -0.662144
  S     4.982831  4.875635  3.471138
  S     4.785319  8.859766  3.480916
