16  
    
  C     9.136737  6.929445  2.346733
  C     9.014551 11.172135  2.862509
  C     7.903030  6.477924  1.712879
  C     7.804371 10.570178  2.269767
  N    10.213947  6.885088  1.578601
  N    10.052667 11.229649  2.054002
  N     8.026060  6.275828  0.405877
  N     7.950002 10.323410  0.958197
  N     7.432510  6.780572  4.205743
  N     7.335721 10.815666  4.771984
  S     6.584523  6.398688  2.823573
  S     6.573803 10.283956  3.377616
  S     9.677738  6.491665  0.053328
  S     9.548393 10.701433  0.543816
  S     9.014612  7.266797  4.019296
  S     8.918766 11.372700  4.575933
