16  
    
  C    11.992659  8.836997  3.444168
  C    11.806772 12.203996  3.226356
  C    10.809641  8.499078  2.721884
  C    10.501321 11.956154  2.709804
  N    13.097192  8.983458  2.680179
  N    12.793392 12.456063  2.386490
  N    11.023454  8.504782  1.398929
  N    10.524543 11.715839  1.409620
  N    10.277640  8.540241  5.201339
  N    10.290767 12.095926  5.298590
  S     9.410083  8.287836  3.801952
  S     9.358333 11.891230  4.020358
  S    12.639704  8.667867  1.168662
  S    12.105231 12.264325  0.922590
  S    11.840145  8.806809  5.115974
  S    11.899861 12.194296  4.985971
