16  
    
  C    10.352994  7.650545  3.036085
  C    10.559937 11.705369  3.010750
  C     9.109890  7.319734  2.411134
  C     9.335447 11.145923  2.618602
  N    11.326264  7.963647  2.184331
  N    11.404830 11.986776  2.050421
  N     9.095552  7.338014  1.073585
  N     9.353534 10.800822  1.343577
  N     8.656495  7.216045  4.881667
  N     9.172581 11.489712  5.189109
  S     7.831427  6.920503  3.504810
  S     8.257095 10.846043  3.963639
  S    10.686797  7.664411  0.672220
  S    10.718655 11.362971  0.672152
  S    10.191862  7.578170  4.770479
  S    10.630942 12.117399  4.680557
