16  
    
  C    12.629549  8.906373  3.709400
  C    12.403260 12.776206  3.917996
  C    11.411782  8.412203  3.018067
  C    11.335663 12.086698  3.220105
  N    13.638875  9.093304  2.892403
  N    13.522486 12.996694  3.211463
  N    11.493392  8.256727  1.700506
  N    11.610774 11.996610  1.904779
  N    11.065328  8.468243  5.675481
  N    10.557820 12.349123  5.717869
  S    10.176259  8.188710  4.223307
  S     9.950912 11.874141  4.278340
  S    13.145654  8.665563  1.416598
  S    13.089497 12.668905  1.637526
  S    12.572650  9.090093  5.409033
  S    12.066433 13.067923  5.571518
