16  
    
  C    10.925008  7.977170  3.081945
  C    11.581973 11.755033  3.133804
  C     9.702271  7.531305  2.440281
  C    10.463513 11.111028  2.478378
  N    12.036989  8.022003  2.317895
  N    12.633118 12.012752  2.369264
  N     9.824646  7.243269  1.143961
  N    10.636778 11.005743  1.172096
  N     9.209894  7.987317  4.908599
  N     9.701549 11.570521  4.851183
  S     8.473635  7.258986  3.638570
  S     9.026471 10.989846  3.446614
  S    11.434051  7.604042  0.786978
  S    12.208724 11.516928  0.829042
  S    10.784983  8.285035  4.799288
  S    11.263497 12.114754  4.760575
