16  
    
  C    10.740844  8.291221  3.038095
  C    10.759041 11.828626  3.115884
  C     9.555166  7.756735  2.419139
  C     9.638071 11.293004  2.403742
  N    11.729833  8.570632  2.194838
  N    11.851850 11.923757  2.382907
  N     9.631395  7.596619  1.114619
  N     9.871306 11.069870  1.129025
  N     9.027808  7.921381  5.001524
  N     8.825401 11.696842  4.806919
  S     8.154345  7.708800  3.531286
  S     8.141217 11.356046  3.376751
  S    11.144193  8.030490  0.712759
  S    11.459229 11.583577  0.802330
  S    10.536913  8.682524  4.726629
  S    10.439119 12.093551  4.790258
