16  
    
  C     7.073951  5.982245  1.968707
  C     7.294142  9.751417  2.476655
  C     5.926872  5.447098  1.301329
  C     6.047899  9.441519  1.839039
  N     8.148000  6.215317  1.208308
  N     8.369831  9.722757  1.711430
  N     6.217019  5.117197  0.060606
  N     6.206402  9.157116  0.565611
  N     5.243180  5.822080  3.750742
  N     5.545655  9.739813  4.323815
  S     4.666828  4.984464  2.399636
  S     4.660888  9.597646  2.913687
  S     7.742737  5.650711 -0.308725
  S     7.818568  9.386515  0.155377
  S     6.768510  6.358731  3.640083
  S     7.132636 10.029969  4.199381
