16  
    
  C     5.167888  5.302608  2.032868
  C     5.107960  8.630817  1.614051
  C     3.882856  4.932297  1.422054
  C     3.896643  8.482367  0.929938
  N     6.222723  5.051581  1.227289
  N     6.206067  8.630260  0.865669
  N     3.973458  4.596932  0.135767
  N     4.053997  8.256374 -0.370568
  N     3.225764  5.602846  3.812646
  N     3.314368  8.537808  3.450513
  S     2.450771  5.154478  2.348974
  S     2.523609  8.399640  2.008533
  S     5.550170  4.679764 -0.278475
  S     5.643741  8.315208 -0.660197
  S     4.955645  5.705984  3.707347
  S     4.928470  8.869729  3.305618
