16  
    
  C    12.752704  9.250584  3.403082
  C    12.644714 13.048569  3.541144
  C    11.559885  8.833408  2.751215
  C    11.526166 12.453262  2.872870
  N    13.785964  9.347888  2.562446
  N    13.753403 13.266477  2.818099
  N    11.667918  8.434590  1.490128
  N    11.739443 12.222772  1.586126
  N    10.989643  9.049817  5.257668
  N    10.815308 12.561949  5.301203
  S    10.234532  8.592472  3.814564
  S    10.208643 12.085495  3.885722
  S    13.175985  8.848900  1.059708
  S    13.350121 12.587805  1.310554
  S    12.600281  9.489056  5.112946
  S    12.327635 13.219617  5.256459
