16  
    
  C     9.839132  7.768249  2.792950
  C    10.649332 11.522052  3.159105
  C     8.816983  7.081731  1.985466
  C     9.400093 11.219846  2.390094
  N    10.902905  8.067293  2.057276
  N    11.707146 11.593966  2.376913
  N     9.162093  6.878230  0.719872
  N     9.557153 10.958862  1.108289
  N     7.992074  7.214399  4.396912
  N     8.714066 11.344221  4.904290
  S     7.407332  6.651565  2.975018
  S     7.981491 10.987579  3.395365
  S    10.725886  7.465737  0.530210
  S    11.209437 11.236684  0.833610
  S     9.395226  8.040648  4.470829
  S    10.329507 11.775051  4.854100
