16  
    
  C     9.110322  6.985331  2.340491
  C     9.051700 11.045581  2.707817
  C     7.883990  6.694471  1.651412
  C     7.885512 10.538488  2.084469
  N    10.177785  7.133659  1.576525
  N    10.101033 11.259875  1.908966
  N     8.028865  6.450578  0.347827
  N     8.000421 10.378757  0.782193
  N     7.292207  6.834577  4.197501
  N     7.345107 10.750646  4.642574
  S     6.506600  6.483997  2.756721
  S     6.583518 10.302339  3.246234
  S     9.659780  6.748301 -0.002562
  S     9.531990 10.764487  0.370567
  S     8.918890  7.109697  4.059727
  S     8.913974 11.296099  4.416969
