16  
    
  C     4.383321  4.937026  1.395401
  C     4.201840  8.603871  1.643281
  C     3.101397  4.690208  0.793108
  C     3.103219  8.222114  0.846546
  N     5.417789  5.137488  0.574148
  N     5.304355  8.914006  0.973112
  N     3.212782  4.581655 -0.545621
  N     3.324098  8.275336 -0.460754
  N     2.781436  5.080168  3.360428
  N     2.337532  7.762291  3.145168
  S     1.822077  4.588377  2.074506
  S     1.629286  7.765321  1.631118
  S     4.819202  4.860550 -0.896629
  S     4.882238  8.802921 -0.609857
  S     4.441501  5.127039  3.092645
  S     3.785023  8.539635  3.371643
