16  
    
  C     6.544450  5.887676  1.981537
  C     6.628077  9.366440  1.882411
  C     5.306641  5.379372  1.428684
  C     5.426772  8.892622  1.275289
  N     7.514295  5.909991  1.081122
  N     7.565591  9.694124  1.009221
  N     5.292561  5.241620  0.103759
  N     5.497952  8.745828 -0.038328
  N     4.953494  5.725010  3.979761
  N     4.988533  8.981222  3.770412
  S     4.062621  5.399935  2.618273
  S     4.116897  8.793709  2.371943
  S     6.850236  5.466941 -0.375136
  S     7.019471  9.318638 -0.469674
  S     6.559773  6.067061  3.706930
  S     6.439305  9.666923  3.567673
