16  
    
  C    11.864336  8.733954  3.393866
  C    11.546757 12.270310  3.258497
  C    10.613215  8.261591  2.894782
  C    10.485911 11.559497  2.574197
  N    12.833530  8.907524  2.499240
  N    12.649410 12.470725  2.497804
  N    10.588281  8.069559  1.588634
  N    10.714640 11.428386  1.275937
  N    10.174878  8.663729  5.380048
  N     9.713318 11.914395  4.942498
  S     9.311988  8.315729  4.054652
  S     9.042395 11.208384  3.646891
  S    12.126051  8.344782  1.086980
  S    12.155491 12.094531  0.924739
  S    11.793267  9.069195  5.095600
  S    11.130858 12.605956  4.893242
