16  
    
  C     5.351025  5.537185  1.616792
  C     5.254408  8.968441  1.481955
  C     4.064447  5.190446  1.058423
  C     4.087752  8.464933  0.835239
  N     6.325321  5.621666  0.720581
  N     6.329493  9.007971  0.696340
  N     4.077674  5.005609 -0.247707
  N     4.209674  8.159235 -0.446056
  N     3.772327  5.499174  3.678567
  N     3.412198  8.833336  3.273679
  S     2.917796  4.983060  2.358127
  S     2.701501  8.243549  1.893501
  S     5.635161  5.301786 -0.724176
  S     5.777703  8.503405 -0.801713
  S     5.391822  5.705017  3.347738
  S     5.004415  9.406344  3.164668
