16  
    
  C     9.172620  6.935284  2.405744
  C     8.906659 10.836873  2.315679
  C     7.963306  6.366783  1.848824
  C     7.711014 10.288872  1.696972
  N    10.188407  7.056621  1.557333
  N     9.960247 10.924937  1.522885
  N     8.086291  6.288945  0.506867
  N     7.844480 10.104174  0.417214
  N     7.553185  6.879487  4.387088
  N     7.160894 10.716430  4.198006
  S     6.710732  6.393168  3.100298
  S     6.433728 10.038037  2.818653
  S     9.612751  6.784916  0.063718
  S     9.457142 10.540751  0.009926
  S     9.127416  7.315055  4.088584
  S     8.759377 11.185968  3.993189
