16  
    
  C     5.565434  5.484422  1.943065
  C     5.564502  8.964060  1.852911
  C     4.387219  4.752114  1.435178
  C     4.383014  8.430894  1.175682
  N     6.470439  5.815865  1.037972
  N     6.548869  9.275399  1.020310
  N     4.390543  4.603595  0.109132
  N     4.561703  8.224943 -0.116055
  N     4.131507  4.929660  3.966175
  N     3.699387  8.558456  3.612219
  S     3.169840  4.596390  2.689176
  S     2.995829  8.149979  2.128941
  S     5.883089  5.174646 -0.404606
  S     6.119397  8.769825 -0.508250
  S     5.574611  5.592055  3.622994
  S     5.307851  9.113758  3.551625
