16  
    
  C     7.220882  5.978254  2.197673
  C     7.499645  9.646343  2.429110
  C     6.156692  5.457078  1.421157
  C     6.272463  9.437180  1.733614
  N     8.334755  6.199087  1.519614
  N     8.574693  9.690927  1.650299
  N     6.450124  5.356137  0.122154
  N     6.420292  9.267107  0.412842
  N     5.310491  5.665115  3.911366
  N     5.688481  9.606714  4.290623
  S     4.681801  5.269382  2.396037
  S     4.884242  9.378196  2.804129
  S     7.993234  5.887544 -0.059106
  S     8.099002  9.510539  0.109808
  S     6.867124  6.087783  3.848380
  S     7.306349  9.826878  4.094276
