16  
    
  C    11.990596  8.834260  3.429271
  C    11.826669 12.199763  3.236171
  C    10.772731  8.498230  2.715026
  C    10.511862 11.897383  2.718544
  N    13.093584  8.955645  2.676742
  N    12.792410 12.442926  2.365142
  N    11.015425  8.501928  1.410401
  N    10.518898 11.720576  1.408563
  N    10.286484  8.531743  5.205936
  N    10.275107 12.101444  5.319150
  S     9.402314  8.281323  3.803049
  S     9.360544 11.886769  4.003507
  S    12.611717  8.659637  1.144298
  S    12.092253 12.252267  0.907074
  S    11.850504  8.790874  5.110547
  S    11.901369 12.182739  4.972302
