16  
    
  C     9.206026  6.739006  2.537784
  C     9.634902 10.752432  2.764028
  C     8.014383  6.289359  1.867215
  C     8.463314 10.157474  2.203453
  N    10.250557  7.001728  1.751444
  N    10.609020 10.957925  1.877387
  N     8.127094  6.306417  0.555897
  N     8.422446 10.057150  0.899835
  N     7.366475  6.483857  4.350631
  N     8.079649 10.366944  4.779003
  S     6.655189  5.980080  2.944502
  S     7.246970  9.831358  3.430885
  S     9.744996  6.738418  0.196949
  S     9.993609 10.569192  0.399991
  S     8.995910  6.782482  4.280047
  S     9.599182 10.933799  4.516477
