16  
    
  C    11.046513  8.196657  2.972882
  C    10.920771 11.518957  2.894451
  C     9.888445  7.391942  2.541962
  C     9.665896 11.199648  2.301041
  N    11.886325  8.521873  1.979591
  N    11.887735 11.805841  2.037341
  N     9.864581  7.150111  1.226970
  N     9.717037 11.089386  0.996148
  N     9.554507  7.881440  5.070451
  N     9.150259 11.426388  4.715596
  S     8.742824  7.072226  3.827716
  S     8.350621 10.858008  3.381825
  S    11.228417  7.835110  0.626214
  S    11.211447 11.597478  0.491619
  S    10.968001  8.628284  4.596089
  S    10.751228 11.687528  4.593004
