16  
    
  C    10.340887  7.652045  3.030671
  C    10.557754 11.707300  3.004740
  C     9.096502  7.320666  2.406489
  C     9.326409 11.144784  2.615484
  N    11.313779  7.967113  2.187992
  N    11.409383 11.987912  2.049949
  N     9.085198  7.338417  1.076663
  N     9.356097 10.794264  1.343418
  N     8.648009  7.207434  4.874646
  N     9.167763 11.488081  5.183928
  S     7.822924  6.918026  3.498579
  S     8.255909 10.845417  3.962463
  S    10.687533  7.659929  0.672061
  S    10.718869 11.357247  0.671146
  S    10.183163  7.575526  4.771230
  S    10.632899 12.112556  4.680180
