16  
    
  C     5.480592  5.290835  1.805041
  C     5.073829  9.102901  1.681255
  C     4.190376  5.184311  1.193212
  C     3.880390  8.526548  1.049997
  N     6.436447  5.477196  0.888091
  N     6.124816  9.242526  0.871881
  N     4.202095  4.974562 -0.124153
  N     4.008409  8.322218 -0.265532
  N     3.775701  5.354042  3.666935
  N     3.353860  8.749143  3.526604
  S     2.870736  5.209137  2.279969
  S     2.579715  8.308093  2.161104
  S     5.766409  5.222768 -0.598734
  S     5.577905  8.772653 -0.611936
  S     5.402345  5.412800  3.585376
  S     4.986825  8.960751  3.388445
