16  
    
  C     6.591726  5.926713  2.117782
  C     6.436733  9.394135  1.917444
  C     5.420425  5.352097  1.453138
  C     5.231880  8.937790  1.211055
  N     7.633306  6.006760  1.290365
  N     7.475515  9.591483  1.118081
  N     5.532754  5.232882  0.121149
  N     5.491467  8.716289 -0.080592
  N     4.855147  5.579412  3.984685
  N     4.659728  9.051313  3.661892
  S     4.084608  5.148319  2.535401
  S     3.963353  8.468375  2.284607
  S     7.082091  5.604086 -0.235548
  S     7.070842  9.227541 -0.400416
  S     6.400461  6.074770  3.822800
  S     6.244471  9.472056  3.654614
