16  
    
  C     9.422960  7.031593  2.949034
  C     9.559906 10.821528  2.594176
  C     8.302369  6.448445  2.267553
  C     8.390640 10.306388  1.975241
  N    10.425066  7.489321  2.211742
  N    10.571389 11.116194  1.778180
  N     8.435361  6.525177  0.954355
  N     8.451677 10.349977  0.663646
  N     7.714439  6.417749  4.760691
  N     7.952131 10.360178  4.487941
  S     6.984842  6.008701  3.312015
  S     7.124254  9.994142  3.117532
  S     9.916142  7.159796  0.667813
  S     9.947949 10.831433  0.232664
  S     9.269710  6.958164  4.689386
  S     9.523985 10.892259  4.351470
