16  
    
  C     6.777403  5.932663  1.488207
  C     7.235084  9.963979  2.484436
  C     5.697207  5.104093  0.984367
  C     5.954280  9.529649  1.913190
  N     7.884205  5.978602  0.719880
  N     8.255508 10.041454  1.615665
  N     5.853585  4.701324 -0.282447
  N     6.059306  9.194382  0.599727
  N     5.110125  5.810393  3.436312
  N     5.692993  9.743896  4.521198
  S     4.413742  4.926459  2.200459
  S     4.694493  9.507428  3.145176
  S     7.425334  5.168811 -0.658983
  S     7.595829  9.466155  0.156748
  S     6.582210  6.334176  3.097244
  S     7.206394 10.298522  4.133058
