16  
    
  C     6.595934  5.731487  2.024901
  C     6.616719  9.421350  1.866213
  C     5.323009  5.448765  1.442146
  C     5.457841  8.855453  1.247239
  N     7.559584  5.929784  1.134202
  N     7.653670  9.636519  1.048516
  N     5.319460  5.161801  0.138043
  N     5.533509  8.716005 -0.079310
  N     4.879666  5.772010  3.983726
  N     4.822651  8.945007  3.798626
  S     4.069443  5.347402  2.644551
  S     4.094174  8.664885  2.320685
  S     6.887673  5.547807 -0.337048
  S     6.996565  9.315274 -0.519586
  S     6.511320  6.085637  3.721018
  S     6.429549  9.657466  3.653777
