16  
    
  C     8.745372  7.283705  2.517734
  C     9.140203 10.694843  2.142797
  C     7.564897  6.812124  1.851686
  C     7.882836 10.506401  1.488156
  N     9.687595  7.740496  1.674719
  N    10.157438 10.805938  1.287770
  N     7.714354  6.791148  0.524323
  N     7.905631 10.556139  0.165135
  N     7.000569  6.705450  4.365129
  N     7.339270 10.569132  4.004661
  S     6.278549  6.213912  2.914525
  S     6.505580 10.408479  2.563761
  S     9.178382  7.472364  0.128597
  S     9.575681 10.790742 -0.249427
  S     8.559165  7.167584  4.243280
  S     8.974060 10.908363  3.841417
