16  
    
  C    12.105146  8.525683  3.619006
  C    11.991561 12.169479  3.261425
  C    10.916170  8.099403  2.938195
  C    10.750580 11.778560  2.688196
  N    13.162665  8.758331  2.830091
  N    12.953691 12.387616  2.365353
  N    11.016800  7.985842  1.596361
  N    10.816004 11.451608  1.409160
  N    10.174327  8.337225  5.417852
  N    10.229325 11.971958  5.210868
  S     9.481090  7.906387  3.894374
  S     9.491297 11.553747  3.791967
  S    12.582344  8.377535  1.268623
  S    12.281778 11.817047  0.909392
  S    11.784103  8.804029  5.311094
  S    11.896813 12.211827  5.050273
