16  
    
  C    11.302361  8.531024  3.347639
  C    11.474964 12.244312  3.281075
  C    10.194222  7.924802  2.729699
  C    10.196949 11.721600  2.812293
  N    12.374626  8.610837  2.577138
  N    12.428966 12.385804  2.364206
  N    10.448540  7.497896  1.482601
  N    10.296422 11.304675  1.546264
  N     9.521591  8.390834  5.204967
  N     9.754888 12.333712  5.314429
  S     8.762260  7.800435  3.752140
  S     8.883610 11.773238  4.013270
  S    11.967318  7.944885  1.130141
  S    11.843321 11.638125  1.056841
  S    11.121549  8.889938  5.019386
  S    11.311988 12.781647  4.936961
