16  
    
  C    10.981612  8.039673  3.105724
  C    11.621910 11.633902  3.165645
  C     9.747588  7.500019  2.565662
  C    10.474357 11.179221  2.430189
  N    11.981334  8.065160  2.171555
  N    12.688016 11.930619  2.398086
  N     9.867450  7.231192  1.254737
  N    10.685838 11.074824  1.108848
  N     9.212669  8.018656  5.008424
  N     9.607695 11.540767  4.900568
  S     8.486233  7.230172  3.757796
  S     8.954002 11.058496  3.407344
  S    11.359755  7.602523  0.749788
  S    12.230229 11.530495  0.851877
  S    10.877215  8.377634  4.766806
  S    11.236956 12.057468  4.802817
