16  
    
  C    11.689298  8.544408  3.206674
  C    11.369526 12.170806  3.316691
  C    10.498995  8.045161  2.624657
  C    10.200834 11.648675  2.624659
  N    12.617100  8.916652  2.313344
  N    12.375244 12.644120  2.597391
  N    10.463403  8.034138  1.272577
  N    10.456127 11.488981  1.338712
  N    10.097184  8.194001  5.228138
  N     9.468521 11.839950  5.118840
  S     9.237537  7.728998  3.809048
  S     8.819549 11.351889  3.621250
  S    12.012897  8.606296  0.782752
  S    11.888013 12.270824  0.999304
  S    11.617400  8.809061  4.925313
  S    11.130830 12.228337  4.991413
