16  
    
  C     8.094648  6.552206  2.558453
  C     8.542523 10.246428  2.360899
  C     6.924104  6.179536  1.867503
  C     7.280140  9.833891  1.869940
  N     9.147553  6.742245  1.786324
  N     9.474261 10.310527  1.401305
  N     7.050982  5.961729  0.555506
  N     7.257350  9.496230  0.595905
  N     6.239957  6.314690  4.307627
  N     6.909647 10.413053  4.355569
  S     5.511172  5.959351  2.873355
  S     6.025307  9.748061  3.071453
  S     8.663096  6.437743  0.238973
  S     8.766597  9.908169  0.018393
  S     7.848746  6.772548  4.248681
  S     8.545971 10.482695  4.105054
