16  
    
  C    11.874263  8.643816  3.321611
  C    11.515938 12.364713  3.139174
  C    10.597980  8.121181  2.893319
  C    10.364819 11.766951  2.509683
  N    12.802252  8.829600  2.383128
  N    12.539251 12.643638  2.347357
  N    10.604219  7.926295  1.572828
  N    10.629403 11.392561  1.267586
  N    10.364791  8.611316  5.427351
  N     9.833483 11.973539  5.122716
  S     9.415954  8.055612  4.145760
  S     9.064994 11.329498  3.701784
  S    12.135533  8.271939  1.019491
  S    12.130340 12.024494  0.857046
  S    11.885893  9.096940  4.953848
  S    11.465922 12.398765  4.837969
