16  
    
  C     4.579522  5.100766  1.733397
  C     4.215930  8.705074  1.559374
  C     3.340242  4.767434  1.097548
  C     3.029744  8.138566  0.889074
  N     5.582377  5.309501  0.876153
  N     5.262359  8.877773  0.774099
  N     3.407156  4.490060 -0.186486
  N     3.169575  8.031867 -0.427468
  N     2.639604  5.150915  3.502329
  N     2.474641  8.333596  3.310570
  S     1.967952  4.673322  2.060375
  S     1.741169  7.800687  1.974660
  S     4.979589  4.709441 -0.614648
  S     4.730447  8.460001 -0.777680
  S     4.299070  5.321597  3.447353
  S     4.081819  8.811406  3.250945
