16  
    
  C     3.559422  4.483460  1.602986
  C     3.816029  8.335576  1.656931
  C     2.444927  3.885474  0.963689
  C     2.596616  8.018039  1.015110
  N     4.507990  4.900563  0.799173
  N     4.845942  8.638491  0.858662
  N     2.500384  4.027499 -0.377028
  N     2.694007  7.832901 -0.293403
  N     1.936599  4.279255  3.463667
  N     2.138736  7.945193  3.527658
  S     1.187854  3.613215  2.148681
  S     1.247479  7.861199  2.149643
  S     3.971832  4.664817 -0.728214
  S     4.240475  8.284452 -0.678193
  S     3.492025  4.816606  3.266895
  S     3.736197  8.367285  3.387090
