16  
    
  C     5.562128  5.313199  1.870501
  C     5.343540  8.834953  1.743981
  C     4.215963  5.031216  1.355943
  C     4.124143  8.444390  1.055097
  N     6.506612  5.409495  0.926377
  N     6.396676  9.027522  0.950473
  N     4.132457  5.141689  0.034300
  N     4.280553  8.288133 -0.240789
  N     4.063172  5.143485  3.985120
  N     3.372124  8.740294  3.469785
  S     3.040491  4.939662  2.614049
  S     2.773721  8.129546  2.047239
  S     5.691468  5.275968 -0.544687
  S     5.894594  8.704966 -0.587026
  S     5.706207  5.469470  3.577794
  S     4.967179  9.280006  3.322793
