16  
    
  C     5.967553  4.785299  1.841213
  C     5.794226  9.233752  1.982530
  C     4.793138  4.547457  1.035031
  C     4.647573  8.580646  1.368102
  N     7.047438  4.985037  1.055592
  N     6.822641  9.357873  1.157022
  N     5.028725  4.409856 -0.262578
  N     4.718997  8.473236  0.052005
  N     3.888246  4.916730  3.414044
  N     4.144363  8.971488  3.861224
  S     3.340385  4.227882  1.983262
  S     3.410195  8.358050  2.510544
  S     6.601019  4.797821 -0.537260
  S     6.314571  8.956334 -0.327745
  S     5.575190  5.086514  3.552693
  S     5.635943  9.585798  3.645925
