16  
    
  C    10.740389  8.309397  3.030464
  C    10.761171 11.789204  3.102731
  C     9.505771  7.782511  2.426111
  C     9.617916 11.343423  2.367101
  N    11.749409  8.544837  2.183959
  N    11.849544 11.965733  2.373368
  N     9.614412  7.576214  1.113127
  N     9.819227 11.062532  1.088532
  N     9.038333  7.937855  4.934140
  N     8.852151 11.708738  4.782433
  S     8.161661  7.711161  3.478822
  S     8.147088 11.345007  3.349852
  S    11.151626  8.035737  0.661373
  S    11.484433 11.567978  0.810673
  S    10.549526  8.637205  4.733917
  S    10.456935 12.110987  4.795732
