16  
    
  C     3.462504  4.630987  1.487365
  C     3.584500  8.345568  1.244162
  C     2.334597  4.055103  0.852002
  C     2.316695  8.077809  0.689362
  N     4.526419  4.779849  0.712072
  N     4.570275  8.446639  0.365566
  N     2.551413  3.824721 -0.440063
  N     2.235924  8.086522 -0.635000
  N     1.687977  4.255772  3.334696
  N     1.902245  8.135349  3.234397
  S     1.055323  3.606424  1.953454
  S     1.027051  7.797181  1.829161
  S     4.065219  4.291656 -0.818899
  S     3.779553  8.306658 -1.129984
  S     3.265445  4.830927  3.168891
  S     3.492944  8.587488  2.958957
