16  
    
  C    12.391240  8.993155  3.748111
  C    12.606322 12.786171  3.586244
  C    11.200651  8.422994  3.122293
  C    11.358396 12.455506  2.927230
  N    13.350976  9.398079  2.928597
  N    13.622624 12.815087  2.726877
  N    11.289604  8.259491  1.813718
  N    11.418455 12.449546  1.586415
  N    10.540902  8.572045  5.641027
  N    10.885456 12.505643  5.432600
  S     9.930385  7.991103  4.199174
  S     9.976182 12.242828  4.044685
  S    12.820910  8.898604  1.411668
  S    12.975902 12.740391  1.181796
  S    12.117581  9.273957  5.519811
  S    12.485454 12.949818  5.303508
