16  
    
  C     9.468103  7.211666  3.012591
  C     9.573656 10.908289  2.669601
  C     8.404004  6.579278  2.228448
  C     8.337576 10.448094  2.027968
  N    10.506189  7.583338  2.241204
  N    10.575013 11.117499  1.797121
  N     8.626873  6.551579  0.901154
  N     8.444134 10.346740  0.697102
  N     7.721526  6.494072  4.718395
  N     7.918487 10.449638  4.570720
  S     7.099513  6.050334  3.258029
  S     7.063381 10.147435  3.201570
  S    10.094499  7.295940  0.655488
  S     9.949860 10.792051  0.252791
  S     9.247662  7.074279  4.761578
  S     9.496495 10.924111  4.372088
