16  
    
  C     5.405534  5.390420  1.779100
  C     5.063263  8.989410  1.698791
  C     4.151682  5.142044  1.108087
  C     3.877692  8.545213  1.063435
  N     6.474255  5.430517  0.989571
  N     6.051256  9.274938  0.853173
  N     4.237977  4.940338 -0.200474
  N     3.993588  8.329232 -0.231392
  N     3.629313  5.401853  3.669805
  N     3.363026  8.730101  3.572935
  S     2.834325  5.227696  2.215381
  S     2.556952  8.327789  2.172766
  S     5.838619  5.270071 -0.571371
  S     5.563438  8.839201 -0.668808
  S     5.315695  5.471238  3.492985
  S     5.011024  8.897810  3.461911
