16  
    
  C     3.786173  4.695956  1.590249
  C     3.785540  8.416427  1.692324
  C     2.509240  4.492468  0.983760
  C     2.603831  7.906637  1.050391
  N     4.780206  4.666815  0.734290
  N     4.823934  8.495072  0.885375
  N     2.467034  4.489014 -0.336586
  N     2.770324  7.437234 -0.162392
  N     1.946900  4.744963  3.407183
  N     1.956305  8.404567  3.490566
  S     1.187803  4.433135  2.005144
  S     1.236846  7.926520  2.120515
  S     4.100770  4.456129 -0.797369
  S     4.352536  7.840438 -0.551442
  S     3.613479  4.903824  3.358972
  S     3.574774  8.791219  3.380973
