16  
    
  C     4.978295  4.804057  1.637527
  C     4.864555  8.794544  1.782096
  C     3.592679  4.773380  1.221633
  C     3.587430  8.294084  1.303143
  N     5.871313  4.954294  0.682827
  N     5.787763  8.853351  0.823000
  N     3.476057  4.652638 -0.095444
  N     3.551343  8.216212 -0.023567
  N     3.603281  4.792851  3.738810
  N     3.330836  8.692681  3.761625
  S     2.536686  4.433897  2.539487
  S     2.355803  8.307972  2.508845
  S     5.020521  4.868537 -0.736999
  S     5.038043  8.504186 -0.596470
  S     5.196756  4.760891  3.323624
  S     4.942105  9.019028  3.502628
