16  
    
  C     7.490687  6.102188  2.197849
  C     7.962893  9.908398  2.242812
  C     6.361378  5.465738  1.610814
  C     6.682140  9.487420  1.736388
  N     8.466126  6.319340  1.301904
  N     8.878585  9.954998  1.279412
  N     6.366235  5.418229  0.290477
  N     6.610098  9.285785  0.426107
  N     5.716693  5.780111  4.056368
  N     6.369026  9.377857  4.248430
  S     5.032644  5.153498  2.634565
  S     5.461687  9.181482  2.857282
  S     7.809238  6.006731 -0.171432
  S     8.156396  9.648579 -0.149891
  S     7.356517  6.147523  3.903057
  S     7.873482 10.093241  3.963853
