16  
    
  C    11.043351  8.306351  2.943048
  C    10.821934 11.912195  3.034293
  C     9.859367  7.716404  2.340501
  C     9.647496 11.339736  2.366446
  N    11.999049  8.456931  2.065200
  N    11.799775 12.194848  2.195337
  N     9.975305  7.436295  1.046793
  N     9.787892 11.123486  1.069256
  N     9.397623  7.836456  4.920269
  N     9.047433 11.568552  4.876100
  S     8.600214  7.409795  3.504204
  S     8.370076 11.009128  3.483811
  S    11.512637  7.951678  0.584435
  S    11.318523 11.637888  0.704323
  S    10.961173  8.539821  4.657483
  S    10.617965 12.042628  4.832438
