16  
    
  C    10.759862  8.282110  2.907404
  C    10.821509 12.003568  3.025045
  C     9.571520  7.837457  2.262034
  C     9.608092 11.502444  2.352733
  N    11.822260  8.497463  2.141755
  N    11.932580 11.985244  2.298525
  N     9.682564  7.652872  0.971536
  N     9.812603 11.255442  1.085090
  N     8.974417  8.124657  4.857064
  N     8.862439 11.825401  4.751281
  S     8.230680  7.672750  3.384120
  S     8.245477 11.195091  3.360635
  S    11.274130  7.998453  0.592892
  S    11.479126 11.499469  0.774782
  S    10.620020  8.371178  4.642500
  S    10.481549 12.136362  4.732693
