16  
    
  C    12.501047  9.077864  3.370747
  C    12.301488 12.776645  3.598155
  C    11.356419  8.549340  2.699815
  C    11.159457 12.189681  3.005880
  N    13.548097  9.403494  2.601420
  N    13.199050 13.122732  2.687150
  N    11.547826  8.369974  1.412766
  N    11.228570 11.848984  1.730278
  N    10.766841  8.528751  5.205926
  N    10.689620 12.285530  5.505558
  S    10.011869  8.256467  3.771913
  S     9.892067 11.900614  4.144937
  S    13.070985  8.885152  1.088645
  S    12.571680 12.622876  1.192760
  S    12.279855  9.036305  5.151742
  S    12.126493 13.138852  5.242447
