16  
    
  C     7.706240  6.560704  2.411269
  C     7.789065 10.132378  2.209238
  C     6.398817  6.170888  1.863479
  C     6.546481  9.880772  1.530080
  N     8.650343  6.626198  1.469262
  N     8.831923 10.122794  1.389762
  N     6.447854  5.762957  0.608176
  N     6.675263  9.592321  0.245377
  N     5.972954  6.803205  4.330657
  N     5.885491  9.974538  3.996429
  S     5.079480  6.164351  2.999088
  S     5.128534  9.910892  2.494526
  S     8.013593  6.087622  0.023404
  S     8.323371  9.751525 -0.118349
  S     7.559587  7.021600  4.100493
  S     7.508911 10.223456  3.946250
