16  
    
  C     7.565456  6.008977  2.189551
  C     7.940376  9.867312  2.279818
  C     6.336522  5.508096  1.549588
  C     6.681715  9.405984  1.683520
  N     8.474873  6.456746  1.311753
  N     8.905295 10.073166  1.372435
  N     6.414034  5.364932  0.230170
  N     6.679836  9.314217  0.334633
  N     5.831987  5.784911  4.063307
  N     6.348711  9.549599  4.272506
  S     5.047559  5.187095  2.714977
  S     5.484291  9.100617  2.936594
  S     7.893943  6.022223 -0.232801
  S     8.176293  9.733155 -0.151418
  S     7.416059  6.198429  3.955100
  S     7.862362 10.151140  4.002247
