16  
    
  C     4.380965  4.975097  1.372862
  C     4.219003  8.566539  1.646845
  C     3.090263  4.665141  0.787047
  C     3.101753  8.242746  0.841064
  N     5.411510  5.117187  0.560773
  N     5.304883  8.901821  0.956571
  N     3.199731  4.557725 -0.542018
  N     3.332558  8.254209 -0.459991
  N     2.791057  5.069377  3.331865
  N     2.342646  7.754434  3.128047
  S     1.814819  4.595706  2.047592
  S     1.640805  7.766086  1.637449
  S     4.815601  4.871755 -0.914587
  S     4.880860  8.787937 -0.603866
  S     4.451423  5.122540  3.084099
  S     3.789679  8.546151  3.361842
