16  
    
  C     8.804500  7.356806  2.495404
  C     9.188937 10.668201  2.160266
  C     7.610478  6.884246  1.767217
  C     7.863354 10.564750  1.497765
  N     9.795652  7.745896  1.683514
  N    10.224009 10.777687  1.333215
  N     7.676366  6.916472  0.447699
  N     7.964646 10.580410  0.169050
  N     6.955347  6.715801  4.227960
  N     7.375587 10.660950  4.032759
  S     6.395091  6.226632  2.754674
  S     6.587171 10.421048  2.615359
  S     9.224557  7.419295  0.100738
  S     9.506999 10.680864 -0.228957
  S     8.592173  7.109927  4.254376
  S     9.008483 10.874289  3.912233
