16  
    
  C     7.864224  6.366715  2.162299
  C     8.064379 10.612965  2.202375
  C     6.641799  5.875585  1.499477
  C     6.914501  9.948969  1.542245
  N     8.863867  6.623946  1.295236
  N     9.099925 10.825327  1.396253
  N     6.765015  5.784319  0.173246
  N     7.140998  9.640870  0.234876
  N     6.189238  5.752969  4.062269
  N     6.340069 10.143764  4.078013
  S     5.361570  5.544833  2.580285
  S     5.622195  9.685640  2.660496
  S     8.252450  6.272156 -0.211705
  S     8.596750 10.203192 -0.142767
  S     7.732505  6.355361  3.894975
  S     7.879510 10.849309  3.910079
