16  
    
  C    12.426576  9.104997  3.356575
  C    12.230287 12.804135  3.393076
  C    11.155210  8.659170  2.840914
  C    11.063754 12.246229  2.679238
  N    13.379245  9.202186  2.454622
  N    13.329901 12.847265  2.644047
  N    11.173810  8.383428  1.544499
  N    11.367586 11.782892  1.461440
  N    10.810688  9.182022  5.355769
  N    10.578400 12.565253  5.202976
  S     9.923818  8.663814  4.106366
  S     9.760813 12.008737  3.884812
  S    12.718712  8.652993  1.014817
  S    12.968290 12.209353  1.149713
  S    12.395601  9.559760  4.995730
  S    12.085446 13.167079  5.048504
