16  
    
  C    12.424118  9.095826  3.365110
  C    12.286822 12.843887  3.357562
  C    11.129237  8.709299  2.857171
  C    11.118612 12.214898  2.714569
  N    13.356811  9.165242  2.432464
  N    13.365778 12.783911  2.603042
  N    11.186426  8.403599  1.579815
  N    11.337040 11.803793  1.448689
  N    10.742255  9.225554  5.397819
  N    10.619193 12.523167  5.253664
  S     9.933236  8.654414  4.062236
  S     9.768234 11.981141  3.900314
  S    12.700530  8.604283  1.043971
  S    12.957237 12.227600  1.113136
  S    12.422488  9.570481  5.058805
  S    12.105730 13.196549  5.071962
