16  
    
  C     5.057913  5.104265  1.820452
  C     5.109241  8.606847  1.906582
  C     3.718691  4.850272  1.281386
  C     3.857388  8.375035  1.253324
  N     6.053472  5.072123  0.944437
  N     6.185674  8.661169  1.098971
  N     3.753597  4.861430 -0.067945
  N     3.938095  7.992393 -0.017904
  N     3.544737  4.680164  3.874021
  N     3.267849  8.717555  3.719581
  S     2.487383  4.832950  2.557802
  S     2.478849  8.418913  2.268151
  S     5.323602  5.047988 -0.525692
  S     5.570264  8.173373 -0.402829
  S     5.177468  5.015070  3.525824
  S     4.933684  9.043291  3.571846
