16  
    
  C     7.095170  6.005173  1.985241
  C     7.306405  9.758880  2.485189
  C     5.946405  5.468851  1.307223
  C     6.080190  9.443863  1.845440
  N     8.176088  6.220871  1.230548
  N     8.392955  9.718809  1.721088
  N     6.214329  5.139774  0.064969
  N     6.225606  9.161945  0.549602
  N     5.230598  5.817053  3.771930
  N     5.536970  9.713092  4.322898
  S     4.682234  4.993430  2.398430
  S     4.671236  9.597164  2.905081
  S     7.758685  5.652771 -0.296963
  S     7.810544  9.380788  0.151642
  S     6.758440  6.342164  3.654169
  S     7.127117 10.020974  4.199383
