16  
    
  C     7.368107  6.007983  2.200048
  C     7.817830  9.757214  2.248895
  C     6.188917  5.523401  1.505052
  C     6.558251  9.404822  1.629291
  N     8.369387  6.249734  1.385481
  N     8.772322  9.951218  1.371645
  N     6.291691  5.535040  0.168220
  N     6.602909  9.287309  0.308696
  N     5.629824  5.620473  4.070854
  N     6.251951  9.384842  4.249612
  S     4.884833  5.171336  2.645681
  S     5.307432  9.278289  2.887578
  S     7.911538  5.966006 -0.177393
  S     8.193392  9.590661 -0.141876
  S     7.238354  6.114002  3.922317
  S     7.858675  9.926382  3.945233
