16  
    
  C    10.537240  7.245438  2.754020
  C    10.295691 11.114329  2.700752
  C     9.236668  7.333760  2.146069
  C     9.056867 10.892963  2.060186
  N    11.537664  7.130992  1.899678
  N    11.299337 11.225184  1.853216
  N     9.219276  7.238499  0.826381
  N     9.122909 10.674257  0.755572
  N     8.783608  7.389346  4.737866
  N     8.567175 11.096955  4.645210
  S     7.945833  7.708367  3.330780
  S     7.709190 10.866904  3.211431
  S    10.796037  7.226078  0.394102
  S    10.714219 10.898820  0.367624
  S    10.451166  7.354213  4.480981
  S    10.163043 11.446966  4.399041
