16  
    
  C    12.905713  9.257613  3.446674
  C    12.898720 12.908958  3.523742
  C    11.804340  8.511922  2.843219
  C    11.642783 12.514539  2.895736
  N    13.913808  9.475106  2.604804
  N    13.930498 12.933014  2.669087
  N    11.915086  8.306107  1.516461
  N    11.778701 12.095890  1.624392
  N    10.992402  9.161353  5.238770
  N    11.156658 13.105309  5.379430
  S    10.327285  8.443527  3.916375
  S    10.273872 12.519755  4.014240
  S    13.443892  8.846000  1.093879
  S    13.354391 12.439023  1.161621
  S    12.596830  9.585144  5.127903
  S    12.863124 13.397796  5.171728
