16  
    
  C    12.807805  9.363643  3.451171
  C    12.834388 12.922109  3.491514
  C    11.698965  8.756654  2.789912
  C    11.557864 12.634150  2.922517
  N    13.890661  9.382242  2.731622
  N    13.859685 12.992119  2.668229
  N    11.860289  8.406508  1.520475
  N    11.601932 12.252554  1.644304
  N    11.050853  9.025685  5.322917
  N    11.094215 13.041669  5.466535
  S    10.387576  8.490829  3.864785
  S    10.326616 12.461006  4.139295
  S    13.440701  8.875778  1.196313
  S    13.217869 12.368200  1.256534
  S    12.614314  9.726921  5.096545
  S    12.689198 13.206321  5.210348
