16  
    
  C    12.088076  8.569497  3.281043
  C    12.149945 12.107698  3.240770
  C    10.788754  8.283807  2.760547
  C    10.927383 11.700186  2.630963
  N    13.014729  8.719482  2.355590
  N    13.166486 12.311680  2.365347
  N    10.762852  8.235142  1.435097
  N    10.983381 11.333587  1.345542
  N    10.346361  8.452615  5.287898
  N    10.287649 11.970701  5.049619
  S     9.498742  8.079995  3.899568
  S     9.571699 11.566278  3.627005
  S    12.297722  8.333946  0.903618
  S    12.478246 11.950301  0.884012
  S    12.001959  8.699803  5.044494
  S    11.852480 12.376819  4.989798
