16  
    
  C    10.967946  7.714300  3.120028
  C    11.353831 11.777078  2.902385
  C     9.748717  7.583761  2.391972
  C    10.194146 11.067300  2.397517
  N    12.115705  7.715526  2.411103
  N    12.285619 11.993824  1.981801
  N     9.913131  7.508436  1.051695
  N    10.196661 10.893778  1.086429
  N     9.064079  7.577253  4.891990
  N     9.530366 11.790224  4.806843
  S     8.386661  7.309349  3.422426
  S     8.905478 10.898072  3.501318
  S    11.575339  7.660388  0.827145
  S    11.682876 11.369390  0.517359
  S    10.717268  7.653618  4.890400
  S    11.179795 12.179212  4.549630
