16  
    
  C     4.551447  5.229803  1.751539
  C     4.236055  8.582698  1.565490
  C     3.355738  4.717353  1.121543
  C     3.019789  8.226607  0.874999
  N     5.596732  5.233952  0.891489
  N     5.253677  8.926114  0.772820
  N     3.423436  4.468360 -0.189590
  N     3.188104  8.055750 -0.433235
  N     2.666143  5.081501  3.509818
  N     2.453770  8.310677  3.330679
  S     1.928841  4.717247  2.073943
  S     1.698650  7.762915  1.906310
  S     4.958898  4.725917 -0.561369
  S     4.740949  8.603070 -0.754224
  S     4.310686  5.303705  3.474678
  S     4.033237  8.782321  3.276336
