16  
    
  C    12.028608  8.644422  3.328933
  C    11.999503 12.074442  3.247933
  C    10.760821  8.396749  2.731004
  C    10.628432 11.902845  2.719840
  N    13.028606  8.731317  2.449556
  N    12.861012 12.304877  2.245240
  N    10.810702  8.386582  1.396400
  N    10.490843 11.790376  1.401474
  N    10.307428  8.432335  5.246302
  N    10.284530 12.047424  5.133967
  S     9.464550  8.254000  3.814426
  S     9.351015 11.756664  3.839448
  S    12.357581  8.629731  0.954374
  S    12.040660 12.068309  0.823629
  S    11.874107  8.718209  5.132735
  S    11.955039 12.230993  5.023231
