16  
    
  C     6.197305  5.608722  2.074135
  C     6.079855  9.250011  1.608648
  C     4.854151  5.473418  1.523737
  C     4.862999  8.712402  1.050955
  N     7.170401  5.638430  1.161763
  N     7.034039  9.289362  0.689829
  N     4.922246  5.184474  0.228725
  N     4.891404  8.482511 -0.251547
  N     4.439593  5.870628  3.996330
  N     4.270304  9.297885  3.423053
  S     3.520359  5.612789  2.634708
  S     3.509653  8.558509  2.079940
  S     6.457258  5.334190 -0.304768
  S     6.417828  8.894649 -0.750321
  S     6.175450  5.931577  3.787554
  S     5.923801  9.396136  3.307327
