16  
    
  C     5.312486  5.496813  1.645904
  C     5.158148  9.018013  1.329637
  C     3.977406  5.209908  1.151085
  C     3.976855  8.491661  0.788062
  N     6.296657  5.503937  0.755143
  N     6.200304  8.939689  0.510352
  N     3.973011  4.913476 -0.127633
  N     4.055988  8.241479 -0.519565
  N     3.831790  5.530065  3.711637
  N     3.449827  8.933529  3.258421
  S     2.798448  5.038557  2.477870
  S     2.714649  8.225067  1.967266
  S     5.530803  5.111199 -0.699075
  S     5.626931  8.412661 -0.934296
  S     5.368873  5.842972  3.346394
  S     5.020351  9.395721  3.011487
