16  
    
  C    12.745290  9.256304  3.383270
  C    12.643894 13.024995  3.536874
  C    11.546241  8.832403  2.760904
  C    11.514355 12.459149  2.865059
  N    13.794787  9.332921  2.551043
  N    13.747171 13.272929  2.823994
  N    11.661897  8.445661  1.482207
  N    11.752499 12.227823  1.583494
  N    10.985663  9.029906  5.270367
  N    10.816888 12.559422  5.296859
  S    10.226368  8.584896  3.819756
  S    10.200844 12.077669  3.878710
  S    13.175579  8.842443  1.063205
  S    13.359429 12.587585  1.295945
  S    12.610520  9.492406  5.107565
  S    12.329321 13.225779  5.257236
