16  
    
  C     6.275895  5.703717  2.007219
  C     6.023508  9.132205  1.656821
  C     5.022916  5.497596  1.416269
  C     4.829965  8.699914  1.051045
  N     7.299682  5.758647  1.149366
  N     7.026508  9.276122  0.783151
  N     5.059571  5.158310  0.126462
  N     4.880781  8.612954 -0.276832
  N     4.559704  5.691138  3.983988
  N     4.327008  9.039620  3.653747
  S     3.798151  5.439335  2.591642
  S     3.518680  8.555778  2.205868
  S     6.637221  5.336969 -0.300444
  S     6.503498  8.924588 -0.697857
  S     6.176970  6.074799  3.722948
  S     5.938535  9.417794  3.353900
