16  
    
  C    12.027489  8.832895  3.439782
  C    11.803080 12.234745  3.273028
  C    10.847516  8.516650  2.722160
  C    10.500159 12.016474  2.720080
  N    13.110083  9.020734  2.712268
  N    12.789346 12.472810  2.419783
  N    11.017677  8.481351  1.386191
  N    10.549813 11.744849  1.396021
  N    10.223369  8.543298  5.210197
  N    10.328585 12.088236  5.293627
  S     9.433312  8.298087  3.792514
  S     9.336190 11.892828  4.022222
  S    12.678341  8.686934  1.188963
  S    12.117801 12.268377  0.932395
  S    11.837396  8.837904  5.136004
  S    11.905698 12.217614  5.003571
