16  
    
  C    10.191472  7.699256  2.616239
  C    10.570069 11.361521  2.953857
  C     9.041109  7.114975  2.049620
  C     9.409430 11.274680  2.160195
  N    11.248756  7.872252  1.769307
  N    11.700827 11.440153  2.227372
  N     9.190730  6.772160  0.756162
  N     9.588414 11.074115  0.851666
  N     8.380408  7.716048  4.424474
  N     8.515708 11.461640  4.583880
  S     7.689307  6.988647  3.149845
  S     7.940906 11.378337  3.059556
  S    10.640447  7.359393  0.329887
  S    11.247188 11.240954  0.676414
  S     9.942647  8.088452  4.283066
  S    10.180272 11.589084  4.661705
