16  
    
  C    11.949087  8.597949  3.266583
  C    11.963266 12.065953  3.163657
  C    10.675099  8.303860  2.679807
  C    10.620643 11.859854  2.554161
  N    12.966595  8.586762  2.398156
  N    12.994911 12.199800  2.348159
  N    10.687036  8.209676  1.342970
  N    10.744576 11.837567  1.241613
  N    10.421079  8.457642  5.209509
  N    10.392502 11.951556  5.125769
  S     9.475702  8.147447  3.958955
  S     9.396118 11.545587  3.830669
  S    12.268997  8.497835  0.893326
  S    12.412839 11.894557  0.837824
  S    12.037806  8.679643  4.960700
  S    11.940186 12.379819  4.902073
