16  
    
  C    12.631873  8.791143  3.539265
  C    12.221398 12.980324  3.684348
  C    11.448757  8.426783  2.864049
  C    11.093436 12.318396  3.099933
  N    13.568580  9.109645  2.680224
  N    13.262442 13.176739  2.893647
  N    11.495464  8.325239  1.535570
  N    11.274892 11.976255  1.828581
  N    10.880512  8.713930  5.305282
  N    10.522037 12.526831  5.598669
  S    10.128447  8.243300  3.981625
  S     9.935234 11.731405  4.252123
  S    13.003536  8.766654  1.132132
  S    12.799211 12.601883  1.407842
  S    12.471365  9.101626  5.252200
  S    12.037795 13.110096  5.427505
