16  
    
  C    12.606961  8.834211  3.514406
  C    12.212783 12.920060  3.663562
  C    11.411946  8.401352  2.812957
  C    11.053918 12.314224  3.083272
  N    13.560442  9.127190  2.667799
  N    13.253537 13.214239  2.865090
  N    11.506168  8.320494  1.501535
  N    11.290374 11.985114  1.824118
  N    10.892769  8.728585  5.322939
  N    10.517867 12.488069  5.598812
  S    10.083938  8.240883  3.956603
  S     9.909068 11.738852  4.264290
  S    13.022077  8.788588  1.131423
  S    12.789053 12.599528  1.368179
  S    12.479863  9.094390  5.240323
  S    12.057079 13.122119  5.400048
