16  
    
  C     3.500050  4.472706  1.490045
  C     3.501567  8.344418  1.189438
  C     2.408756  3.821831  0.828571
  C     2.240754  8.058814  0.614769
  N     4.568559  4.729772  0.761638
  N     4.428338  8.647611  0.282205
  N     2.520456  3.808431 -0.507550
  N     2.246889  7.865116 -0.704271
  N     1.793393  4.337578  3.319463
  N     1.970905  8.131629  3.218088
  S     1.118426  3.479696  2.030365
  S     1.011682  7.838763  1.876982
  S     4.134672  4.292846 -0.812139
  S     3.790078  8.319506 -1.217343
  S     3.379515  4.706586  3.204438
  S     3.547032  8.511177  2.924534
