16  
    
  C     3.803102  4.752899  1.598787
  C     3.814677  8.376283  1.686272
  C     2.505414  4.512675  0.977317
  C     2.655589  7.923355  1.017228
  N     4.853140  4.546505  0.840755
  N     4.910134  8.440498  0.943104
  N     2.599065  4.163881 -0.316875
  N     2.855110  7.576567 -0.225825
  N     2.076100  4.803218  3.563733
  N     1.893732  8.305544  3.461843
  S     1.241988  4.588879  2.211273
  S     1.207572  7.883000  2.043106
  S     4.302311  4.244483 -0.686791
  S     4.467418  7.925241 -0.557779
  S     3.729877  4.920493  3.332071
  S     3.472994  8.849313  3.362690
