16  
    
  C    10.092594  7.509779  2.526428
  C    10.373309 11.066274  2.679912
  C     8.818426  6.953140  1.987737
  C     9.066881 11.007787  2.016432
  N    11.083047  7.666669  1.641401
  N    11.410245 10.966633  1.864797
  N     8.859726  6.723696  0.681755
  N     9.196652 11.048043  0.687616
  N     8.330547  7.260083  4.457257
  N     8.588030 11.080716  4.527767
  S     7.590996  6.657975  3.126592
  S     7.791837 10.890301  3.124949
  S    10.418571  7.006845  0.216207
  S    10.807785 10.998164  0.323343
  S     9.959826  7.623662  4.277971
  S    10.273747 11.139188  4.384486
