16  
    
  C     4.638230  5.031932  1.987175
  C     4.679345  8.711530  1.437900
  C     3.419273  4.718946  1.281066
  C     3.496596  8.108579  0.782582
  N     5.661289  5.369282  1.164709
  N     5.748416  8.790075  0.640507
  N     3.573001  4.557144 -0.031163
  N     3.630729  7.944197 -0.533484
  N     2.626159  4.921797  3.703951
  N     2.874446  8.316397  3.236424
  S     2.014248  4.466785  2.213088
  S     2.132767  7.950668  1.818767
  S     5.129760  4.928401 -0.349579
  S     5.235214  8.360863 -0.875780
  S     4.304997  5.203969  3.707365
  S     4.446064  8.814435  3.129849
