16  
    
  C     7.597567  6.278773  2.244977
  C     7.679740 10.101867  2.423307
  C     6.338757  5.833037  1.734909
  C     6.541458  9.561313  1.757511
  N     8.583369  6.405458  1.361608
  N     8.781788 10.310351  1.722752
  N     6.304827  5.796647  0.410297
  N     6.791232  9.390642  0.442660
  N     6.027666  6.379067  4.240614
  N     6.048593  9.584880  4.289763
  S     5.068468  5.720857  2.927650
  S     5.231835  9.272260  2.858091
  S     7.889137  6.216131 -0.127867
  S     8.329580  9.932199  0.150932
  S     7.681346  6.525494  3.956784
  S     7.554993 10.291717  4.151969
