16  
    
  C     5.852380  5.468313  2.155601
  C     5.884341  9.061852  1.843090
  C     4.572588  5.395400  1.464294
  C     4.641253  8.723256  1.151887
  N     6.918875  5.475701  1.349259
  N     7.002385  9.058589  1.128072
  N     4.657122  5.151717  0.158716
  N     4.840979  8.602115 -0.152801
  N     4.013302  5.729534  4.004761
  N     3.956108  9.208881  3.560863
  S     3.210015  5.582471  2.507402
  S     3.226103  8.817813  2.157869
  S     6.259409  5.312049 -0.180309
  S     6.499185  8.822244 -0.444200
  S     5.624687  5.870999  3.786100
  S     5.660730  9.331522  3.511707
