16  
    
  C     7.981460  6.669305  2.632042
  C     8.646428 10.341920  2.738683
  C     6.916980  6.060245  1.900237
  C     7.468649  9.868177  2.094884
  N     9.156761  6.823524  2.025455
  N     9.729653 10.552602  2.003242
  N     7.190579  5.980943  0.597970
  N     7.602886  9.697383  0.761591
  N     6.148593  6.335291  4.376587
  N     6.889037 10.229186  4.613566
  S     5.452649  5.796392  2.963465
  S     6.099328  9.955237  3.204013
  S     8.821941  6.388206  0.413599
  S     9.191158 10.103436  0.426474
  S     7.788505  6.778466  4.363324
  S     8.489090 10.697285  4.434292
