16  
    
  C    11.517177  8.791479  3.211215
  C    11.399061 12.259141  3.285134
  C    10.361403  8.061195  2.715758
  C    10.242835 11.820172  2.540785
  N    12.464276  9.087916  2.311883
  N    12.413198 12.644818  2.538252
  N    10.494826  7.698241  1.454490
  N    10.373720 11.794109  1.234763
  N     9.891222  8.310074  5.222046
  N     9.478596 11.860524  5.024956
  S     9.095291  7.762479  3.813538
  S     8.938753 11.342968  3.538710
  S    11.920358  8.412397  0.870937
  S    11.968425 12.179083  0.916652
  S    11.429776  8.962728  4.920490
  S    11.074132 12.308153  5.027854
