16  
    
  C     6.849619  5.731442  1.963274
  C     7.221265  9.976297  2.411371
  C     5.767068  5.274178  1.134781
  C     5.976531  9.465066  1.805723
  N     8.044474  5.797256  1.382774
  N     8.184779 10.162062  1.535916
  N     6.166674  4.908421 -0.071563
  N     6.023660  9.372071  0.489851
  N     4.669831  6.042735  3.369787
  N     5.489388  9.844823  4.337049
  S     4.281720  5.200024  1.960097
  S     4.718919  9.290502  2.905189
  S     7.800610  5.206453 -0.143311
  S     7.641044  9.748988  0.076164
  S     6.341205  6.106001  3.583366
  S     7.089581 10.103363  4.158347
