16  
    
  C    11.872110  8.757236  3.382161
  C    11.562600 12.252449  3.265811
  C    10.615791  8.263249  2.900986
  C    10.478808 11.562361  2.579404
  N    12.833697  8.907049  2.498230
  N    12.631751 12.497148  2.474753
  N    10.585374  8.066664  1.603592
  N    10.691601 11.416941  1.271025
  N    10.181979  8.647707  5.376059
  N     9.726999 11.896389  4.939205
  S     9.317571  8.311718  4.055840
  S     9.054924 11.215033  3.638963
  S    12.114386  8.331454  1.077607
  S    12.153642 12.091462  0.915937
  S    11.800047  9.074673  5.088923
  S    11.132805 12.614759  4.911537
