16  
    
  C    10.741859  7.736662  3.098695
  C    10.614878 11.954261  3.114624
  C     9.475271  7.358254  2.507712
  C     9.415088 11.238052  2.734772
  N    11.686796  8.074155  2.229029
  N    11.520942 12.188307  2.153652
  N     9.465905  7.438520  1.185145
  N     9.331009 10.977076  1.432695
  N     9.091958  7.567362  5.084206
  N     9.197017 11.545535  5.266762
  S     8.284827  7.083029  3.724510
  S     8.307134 10.924306  3.999312
  S    11.014469  7.790842  0.730215
  S    10.777405 11.630385  0.781389
  S    10.731602  7.824857  4.783014
  S    10.646195 12.228721  4.813092
