16  
    
  C    10.827152  8.212995  2.935593
  C    10.829079 11.934624  3.048859
  C     9.589284  7.792446  2.282554
  C     9.639187 11.575084  2.316143
  N    11.830592  8.457260  2.095228
  N    11.942732 11.996895  2.290040
  N     9.727456  7.686911  0.950969
  N     9.846444 11.211335  1.034040
  N     9.034221  8.096467  4.741695
  N     8.897791 11.809982  4.780874
  S     8.245406  7.658294  3.412917
  S     8.263342 11.149860  3.383743
  S    11.363138  7.998037  0.587709
  S    11.448545 11.545801  0.744555
  S    10.659261  8.353321  4.620035
  S    10.500428 12.186007  4.764020
