16  
    
  C    12.063326  8.507903  3.643643
  C    12.010880 12.141112  3.317901
  C    10.864793  8.138747  2.887485
  C    10.838077 11.546827  2.700790
  N    13.139245  8.676338  2.893668
  N    12.956694 12.367919  2.384893
  N    11.085216  7.974478  1.610194
  N    10.793042 11.422319  1.353832
  N    10.176965  8.342516  5.347893
  N    10.236891 12.008060  5.278857
  S     9.479803  7.927581  3.871671
  S     9.530758 11.543521  3.792330
  S    12.639834  8.441128  1.300689
  S    12.405430 11.856751  0.939404
  S    11.791743  8.790495  5.334102
  S    11.920761 12.260157  5.056940
