16  
    
  C     6.140415  5.589904  2.095999
  C     6.067949  9.200617  1.577570
  C     4.832110  5.478548  1.500528
  C     4.845507  8.695365  1.025801
  N     7.142456  5.601731  1.216207
  N     7.061925  9.344023  0.695588
  N     4.829626  5.178158  0.200974
  N     4.910475  8.471632 -0.270580
  N     4.408227  5.869730  4.028183
  N     4.250157  9.281170  3.465393
  S     3.522726  5.667892  2.673445
  S     3.481692  8.604267  2.050512
  S     6.414882  5.348657 -0.248485
  S     6.435361  8.870870 -0.770202
  S     6.103588  5.894706  3.763637
  S     5.899692  9.418929  3.287328
