16  
    
  C     7.671936  6.336463  2.291608
  C     7.791450 10.000461  2.439764
  C     6.340634  6.017768  1.839962
  C     6.607152  9.597090  1.767589
  N     8.536074  6.535863  1.302405
  N     8.839829 10.186360  1.622108
  N     6.240709  5.791955  0.543807
  N     6.697165  9.570858  0.467208
  N     6.077948  6.335123  4.314030
  N     5.856285  9.860734  4.172658
  S     5.151926  5.971282  3.035697
  S     5.201742  9.388641  2.727040
  S     7.766971  6.153719 -0.111675
  S     8.311596  9.872424  0.079460
  S     7.637085  6.650817  4.010266
  S     7.424719 10.307604  4.158148
