16  
    
  C     8.316642  6.641970  2.420517
  C     8.416521 10.242339  2.333652
  C     7.061872  6.250508  1.744241
  C     7.114421  9.863144  1.745885
  N     9.352525  6.810968  1.625376
  N     9.453642 10.208563  1.492624
  N     7.265774  6.125949  0.425465
  N     7.184802  9.614355  0.453065
  N     6.663607  6.239319  4.340857
  N     6.823946 10.150436  4.313449
  S     5.785912  5.896040  2.914674
  S     5.912594  9.677385  3.011423
  S     8.808101  6.511820  0.099835
  S     8.758395  9.876335 -0.011184
  S     8.247530  6.765745  4.106482
  S     8.425217 10.530347  3.988686
