16  
    
  C     4.556367  5.149466  1.630988
  C     4.371368  8.453557  1.514847
  C     3.338526  4.617314  1.043902
  C     3.158730  8.021274  0.900119
  N     5.567341  5.235988  0.735374
  N     5.393653  8.664832  0.691590
  N     3.339198  4.602397 -0.291333
  N     3.273361  7.624582 -0.366919
  N     2.807656  4.826356  3.512643
  N     2.581230  8.553983  3.370044
  S     2.010972  4.536094  2.101488
  S     1.845478  7.936249  2.003786
  S     4.861444  4.849301 -0.741600
  S     4.853055  8.056204 -0.778342
  S     4.324215  5.498544  3.363355
  S     4.228039  8.882530  3.155294
