16  
    
  C     5.993353  5.094949  1.612653
  C     5.982616  9.148609  1.959984
  C     4.757308  4.738002  0.985197
  C     4.738074  8.744524  1.359880
  N     7.028472  5.217026  0.778924
  N     7.006294  9.219463  1.124634
  N     4.908716  4.461439 -0.309999
  N     4.855862  8.438647  0.070732
  N     4.180757  4.709774  3.536852
  N     4.211760  8.829996  3.878591
  S     3.434633  4.484827  2.048384
  S     3.391470  8.596753  2.419661
  S     6.454362  4.827644 -0.755740
  S     6.474894  8.752508 -0.354624
  S     5.810802  5.031874  3.383501
  S     5.849417  9.252736  3.660755
