16  
    
  C     8.545483  6.618913  2.369621
  C     8.332409 10.208278  2.533526
  C     7.249496  6.235035  1.757167
  C     7.189533  9.618877  1.793220
  N     9.510664  6.905182  1.492594
  N     9.421562 10.517051  1.845961
  N     7.418598  6.023793  0.430431
  N     7.516019  9.408560  0.497174
  N     7.000467  6.308280  4.335933
  N     6.398924 10.084221  4.256567
  S     6.055741  5.860564  2.998635
  S     5.782892  9.475971  2.829003
  S     8.888482  6.517076 -0.027907
  S     9.007389 10.089782  0.235718
  S     8.592881  6.799743  4.073583
  S     8.022074 10.576029  4.208380
