16  
    
  C    11.855804  8.826838  3.343091
  C    11.548409 12.258064  3.255988
  C    10.597198  8.368780  2.864913
  C    10.490555 11.589026  2.563371
  N    12.775464  8.816281  2.405078
  N    12.475955 12.663734  2.389100
  N    10.582286  7.940616  1.614689
  N    10.598274 11.395550  1.247952
  N    10.305251  8.569984  5.427218
  N     9.707283 11.794684  5.084961
  S     9.347320  8.246391  4.060370
  S     9.155961 11.277376  3.527015
  S    12.085005  8.289280  1.002273
  S    12.100067 12.017942  0.898897
  S    11.843571  9.124492  5.117850
  S    11.248995 12.618476  4.962947
