16  
    
  C    11.405712  8.831413  3.233411
  C    11.386788 12.325342  3.238392
  C    10.302210  8.022086  2.676237
  C    10.234673 11.838712  2.551569
  N    12.352794  9.090040  2.322302
  N    12.501305 12.486554  2.527721
  N    10.486866  7.665897  1.400084
  N    10.477812 11.778187  1.261613
  N     9.833282  8.368786  5.203707
  N     9.561940 11.777922  5.046597
  S     9.031878  7.763705  3.885780
  S     8.884284 11.339644  3.575533
  S    11.925741  8.279328  0.935491
  S    12.055360 12.209321  0.986783
  S    11.297442  9.065158  4.966357
  S    11.086866 12.455942  4.936006
