16  
    
  C    12.382022  9.010153  3.428752
  C    12.373111 12.798298  3.428092
  C    11.289974  8.549077  2.630802
  C    11.130143 12.262173  2.983371
  N    13.383056  9.511752  2.712758
  N    13.367971 12.856481  2.542704
  N    11.511058  8.598884  1.296980
  N    11.133685 12.033548  1.685467
  N    10.638788  8.441309  5.126324
  N    10.778149 12.657283  5.462213
  S     9.953762  7.985876  3.671280
  S     9.989437 11.890812  4.230764
  S    13.005907  9.243423  1.123773
  S    12.618084 12.461468  1.066578
  S    12.048871  9.236509  5.162044
  S    12.373334 13.073293  5.170056
