16  
    
  C     7.936422  6.360100  2.207572
  C     8.068831 10.200650  2.187188
  C     6.737319  5.859092  1.563134
  C     6.816949  9.794758  1.543320
  N     8.964008  6.521583  1.375208
  N     9.154947 10.299966  1.432346
  N     6.823677  5.890304  0.222355
  N     6.968747  9.681268  0.238893
  N     6.206917  5.949943  4.127582
  N     6.293069 10.043734  4.064515
  S     5.463916  5.471128  2.707010
  S     5.515577  9.616500  2.689673
  S     8.337066  6.287256 -0.165367
  S     8.494659 10.074771 -0.146455
  S     7.837312  6.243358  3.966287
  S     7.877980 10.543884  3.877887
