16  
    
  C     8.404850  6.609809  2.277191
  C     8.105756 10.237464  2.613998
  C     7.214917  6.106962  1.688201
  C     7.073439  9.595582  1.836583
  N     9.434180  6.756076  1.473705
  N     9.252410 10.472578  1.981330
  N     7.342665  5.825534  0.399383
  N     7.389382  9.372101  0.551102
  N     6.740792  6.453720  4.233473
  N     6.278213  9.744502  4.343489
  S     5.933752  6.051822  2.902550
  S     5.726184  9.140566  2.899930
  S     8.863957  6.227785 -0.008482
  S     8.956915  9.841239  0.423085
  S     8.251599  7.083188  3.945920
  S     7.759136 10.510415  4.275213
