16  
    
  C    12.754193  8.972464  3.802874
  C    12.568743 12.795880  3.987815
  C    11.560506  8.418501  3.228776
  C    11.514590 12.149822  3.258374
  N    13.733362  9.232955  2.918827
  N    13.635066 13.066302  3.223430
  N    11.622359  8.184394  1.930755
  N    11.704559 12.085028  1.940244
  N    10.993397  8.578938  5.747854
  N    10.647655 12.291007  5.636913
  S    10.217688  8.120372  4.296209
  S    10.030689 11.877968  4.144763
  S    13.086085  8.794983  1.441540
  S    13.231029 12.514465  1.663545
  S    12.588002  9.033257  5.657141
  S    12.295388 12.849130  5.694220
