16  
    
  C     4.784161  4.969267  2.119358
  C     4.759148  8.726457  1.597130
  C     3.605418  4.610560  1.370485
  C     3.520216  8.334287  0.930855
  N     5.846753  5.129705  1.332972
  N     5.707212  9.142221  0.751690
  N     3.729519  4.621853  0.051254
  N     3.614851  8.351738 -0.398723
  N     2.742368  4.766571  3.684544
  N     3.037800  8.251852  3.446412
  S     2.113269  4.576926  2.195768
  S     2.287167  7.860842  2.029827
  S     5.348494  4.825306 -0.224290
  S     5.138597  8.921460 -0.739023
  S     4.363913  5.150585  3.859193
  S     4.595302  8.840123  3.305664
