16  
    
  C     8.927403  7.145461  2.369229
  C     9.180131 10.832014  2.334007
  C     7.745615  6.780193  1.606133
  C     7.889547 10.543026  1.669901
  N    10.019775  7.416775  1.654618
  N    10.193590 10.955401  1.475149
  N     7.957871  6.899130  0.286835
  N     7.997263 10.360157  0.355618
  N     7.150632  6.566375  4.176976
  N     7.461903 10.631032  4.246885
  S     6.317635  6.398498  2.728885
  S     6.580237 10.457708  2.880288
  S     9.522530  7.356883  0.066900
  S     9.569705 10.644988 -0.022922
  S     8.685090  7.159418  4.069863
  S     9.082877 10.921926  4.044712
