16  
    
  C     4.387552  5.053477  1.182321
  C     4.343731  8.453782  1.505203
  C     3.126684  4.621030  0.612065
  C     3.137063  8.073851  0.714881
  N     5.383381  5.147031  0.291773
  N     5.414436  8.760089  0.794491
  N     3.155216  4.547284 -0.720294
  N     3.415322  7.908779 -0.570116
  N     2.705863  4.812854  3.114545
  N     2.424733  8.176122  3.164936
  S     1.814225  4.720303  1.736460
  S     1.781093  7.646977  1.679515
  S     4.719582  4.815523 -1.247152
  S     4.964867  8.413907 -0.824440
  S     4.326068  5.179048  2.929568
  S     4.071625  8.391768  3.204873
