16  
    
  C    12.008301  8.621191  3.409121
  C    11.831842 12.078145  3.196354
  C    10.756806  8.051490  2.905360
  C    10.553813 11.718140  2.645266
  N    12.891040  8.860911  2.450284
  N    12.819054 12.169268  2.298538
  N    10.727999  7.781701  1.592979
  N    10.568658 11.608521  1.316913
  N    10.287788  8.501729  5.441599
  N     9.974474 11.924888  5.162534
  S     9.509632  7.925148  4.098770
  S     9.157979 11.500482  3.672641
  S    12.215116  8.271657  1.037429
  S    11.995757 12.037979  0.791108
  S    11.878804  9.007583  5.106902
  S    11.612663 12.359810  4.893720
