16  
    
  C    11.000464  7.715295  3.173110
  C    11.484797 11.745513  2.935820
  C     9.794689  7.557159  2.389254
  C    10.267057 11.121098  2.406232
  N    12.113168  7.760995  2.439761
  N    12.389960 12.023277  1.985346
  N    10.049859  7.501291  1.085201
  N    10.325217 10.807521  1.114659
  N     9.015933  7.523656  4.847481
  N     9.716660 11.641024  4.848357
  S     8.307563  7.400206  3.302180
  S     8.936883 10.906540  3.607057
  S    11.664033  7.623127  0.855061
  S    11.768350 11.399355  0.580417
  S    10.662503  7.720676  4.845842
  S    11.210024 12.277308  4.602153
