16  
    
  C    11.957789  8.668957  3.438203
  C    11.806009 12.027674  3.181808
  C    10.756036  8.053486  2.933897
  C    10.503224 11.679342  2.600995
  N    12.907076  8.899798  2.550875
  N    12.789575 12.119746  2.300555
  N    10.816912  7.820354  1.620316
  N    10.479291 11.685161  1.281056
  N    10.363900  8.437210  5.390418
  N    10.106372 11.874226  5.106408
  S     9.478107  7.893250  4.086865
  S     9.236882 11.547990  3.775948
  S    12.328158  8.258076  1.107794
  S    12.127665 12.003753  0.815959
  S    11.879695  8.942793  5.122877
  S    11.679861 12.341784  4.918359
