16  
    
  C     6.777822  5.903831  2.351000
  C     7.012567  9.731888  2.341414
  C     5.542707  5.297394  1.876426
  C     5.778788  9.287730  1.731323
  N     7.525760  6.446085  1.388721
  N     7.994792 10.000723  1.466213
  N     5.532492  5.190636  0.562831
  N     5.795512  9.298132  0.415855
  N     5.240517  5.502581  4.425670
  N     5.177909  9.704369  4.245226
  S     4.375367  4.803544  3.080799
  S     4.408930  9.221773  2.791052
  S     6.855310  5.973379 -0.071013
  S     7.298458  9.690679 -0.092129
  S     6.774618  6.081450  4.134862
  S     6.843966  9.892536  4.081818
