16  
    
  C    11.366038  8.510913  3.361374
  C    11.363810 12.414619  3.302764
  C    10.248504  7.874484  2.735539
  C    10.229837 11.740910  2.721427
  N    12.429735  8.649813  2.583752
  N    12.397858 12.529023  2.483188
  N    10.369763  7.567934  1.460218
  N    10.460699 11.299145  1.486124
  N     9.517931  8.531649  5.154150
  N     9.610151 12.482051  5.164843
  S     8.850070  7.746929  3.853265
  S     8.946755 11.641239  3.821250
  S    11.923649  8.047388  1.101671
  S    11.978062 11.818771  1.058415
  S    11.055857  9.061161  4.998214
  S    11.303580 12.744823  5.016540
