16  
    
  C     7.374650  5.961942  2.237700
  C     7.778230  9.662897  2.313551
  C     6.160797  5.655640  1.510532
  C     6.545521  9.355956  1.676437
  N     8.430780  6.229349  1.457853
  N     8.799411  9.823900  1.483626
  N     6.287058  5.451458  0.206478
  N     6.590877  9.244182  0.350979
  N     5.478032  5.617584  3.927845
  N     5.994663  9.677474  4.160908
  S     4.830311  5.210619  2.523460
  S     5.175285  9.275489  2.836050
  S     7.877482  5.925408 -0.100739
  S     8.090009  9.631638 -0.082953
  S     7.079142  6.032179  3.901270
  S     7.654053  9.770223  4.022848
