16  
    
  C     8.713562  7.334564  2.639927
  C     8.984037 11.088215  2.180791
  C     7.561313  6.674137  2.150515
  C     7.799796 10.666543  1.517761
  N     9.662550  7.606250  1.725051
  N    10.031645 11.415731  1.417182
  N     7.534722  6.436428  0.846084
  N     7.949569 10.539242  0.201221
  N     7.012292  6.826607  4.660580
  N     7.234489 10.381738  3.981507
  S     6.297127  6.219001  3.259917
  S     6.475205 10.223265  2.534068
  S     8.970303  7.048625  0.228773
  S     9.456677 11.014662 -0.196389
  S     8.571387  7.393030  4.443600
  S     8.809102 10.938184  3.954167
