16  
    
  C     9.202751  7.151284  2.566074
  C     8.856029 11.098616  2.343088
  C     7.972152  6.565360  2.041703
  C     7.733557 10.394611  1.754792
  N    10.135154  7.282710  1.637340
  N     9.851708 11.368021  1.505624
  N     7.926567  6.268306  0.755576
  N     7.847470 10.144418  0.449029
  N     7.546498  7.028229  4.511386
  N     7.214557 10.483658  4.235396
  S     6.750769  6.301018  3.199724
  S     6.410769 10.158999  2.808553
  S     9.444163  6.634799  0.201581
  S     9.311281 10.693410 -0.017750
  S     9.131292  7.375609  4.296356
  S     8.702662 11.316733  4.071761
