16  
    
  C     8.665116  7.293872  2.514795
  C     9.103668 10.762136  2.095013
  C     7.559904  6.635507  1.847725
  C     7.813553 10.492884  1.442807
  N     9.661597  7.693061  1.732442
  N    10.153653 10.877339  1.298833
  N     7.691834  6.719956  0.522276
  N     7.952128 10.530666  0.117772
  N     7.028114  6.661544  4.420930
  N     7.324328 10.519583  3.989126
  S     6.231145  6.252306  2.992552
  S     6.475152 10.392812  2.550258
  S     9.121737  7.467528  0.204063
  S     9.567575 10.848722 -0.214517
  S     8.587461  7.235786  4.241912
  S     8.956252 10.917466  3.825398
