16  
    
  C     5.107808  4.916063  1.703753
  C     4.998381  8.713959  1.804796
  C     3.763566  4.761401  1.267094
  C     3.677675  8.393438  1.253043
  N     5.983197  5.075333  0.698884
  N     5.992183  8.709238  0.932421
  N     3.560566  4.843002 -0.037069
  N     3.734111  8.066645 -0.030641
  N     3.583512  4.746409  3.805347
  N     3.342381  8.678365  3.825836
  S     2.572261  4.632151  2.503512
  S     2.455932  8.358876  2.490895
  S     5.041512  4.960097 -0.726127
  S     5.307837  8.273187 -0.547916
  S     5.192053  4.853934  3.500853
  S     4.924838  9.091850  3.497309
