16  
    
  C     7.707237  6.716145  2.401562
  C     7.812240 10.103885  2.032225
  C     6.565468  6.139576  1.742977
  C     6.543769  9.894396  1.423328
  N     8.836157  6.643617  1.685101
  N     8.870492 10.001323  1.219072
  N     6.813974  5.880566  0.441736
  N     6.615572  9.715147  0.106117
  N     5.865653  6.610827  4.245597
  N     6.151941 10.283341  3.972857
  S     5.104118  6.110728  2.798438
  S     5.240678  9.919237  2.611736
  S     8.405321  6.143092  0.160533
  S     8.299653  9.869843 -0.281902
  S     7.486472  7.037491  4.140512
  S     7.764388 10.536201  3.720479
