16  
    
  C     6.705352  5.792065  2.023243
  C     6.681570  9.523418  2.118705
  C     5.440803  5.450334  1.465441
  C     5.417173  9.127715  1.612026
  N     7.688020  5.843465  1.122903
  N     7.640245  9.754959  1.246797
  N     5.464304  5.440114  0.142841
  N     5.386083  8.996819  0.294459
  N     5.010954  5.732976  3.933801
  N     5.087444  9.297280  4.171426
  S     4.082595  5.365989  2.572365
  S     4.183431  9.083249  2.819111
  S     7.041961  5.584451 -0.392957
  S     6.928035  9.369384 -0.247960
  S     6.660358  5.956625  3.775903
  S     6.676177  9.831590  3.818825
