16  
    
  C     8.164367  6.449070  2.272896
  C     7.995726 10.150189  2.360244
  C     6.947850  5.957921  1.650610
  C     6.820972  9.585895  1.740242
  N     9.199789  6.581350  1.453087
  N     9.030917 10.385111  1.550670
  N     7.105097  5.759183  0.357553
  N     6.995751  9.338107  0.427880
  N     6.394836  6.295395  4.175550
  N     6.311960  9.896184  4.256450
  S     5.558279  5.888908  2.813890
  S     5.476920  9.418350  2.894764
  S     8.671404  6.131060 -0.062698
  S     8.515816  9.806572  0.058140
  S     7.998331  6.716991  4.007185
  S     7.921528 10.305394  4.057504
