16  
    
  C    12.736545  9.128778  3.396531
  C    12.778559 12.691836  3.495185
  C    11.519433  8.660517  2.838877
  C    11.624965 12.257722  2.789802
  N    13.710704  9.110145  2.490979
  N    13.789619 13.076695  2.737902
  N    11.468369  8.470376  1.510484
  N    11.834823 12.090309  1.497438
  N    11.094924  8.924493  5.442668
  N    10.880018 12.466825  5.244946
  S    10.268319  8.455216  4.021161
  S    10.239267 12.033587  3.774993
  S    13.053107  8.816015  1.037544
  S    13.312148 12.675374  1.158891
  S    12.682475  9.466702  5.076182
  S    12.367800 13.111012  5.120821
