16  
    
  C    11.578816  8.743477  3.212353
  C    11.347371 12.316626  3.298836
  C    10.410421  8.046470  2.647973
  C    10.246871 11.744074  2.576284
  N    12.495637  9.065954  2.324118
  N    12.388275 12.621130  2.518401
  N    10.496915  7.740166  1.360545
  N    10.388323 11.741786  1.254260
  N     9.967009  8.302969  5.204361
  N     9.496816 11.881964  4.951659
  S     9.141025  7.764893  3.809529
  S     8.928095 11.356970  3.544932
  S    11.905260  8.461525  0.877837
  S    11.931130 12.207166  0.905779
  S    11.461887  8.921448  4.934331
  S    11.078841 12.263532  5.078026
