16  
    
  C     3.532812  4.613763  1.547225
  C     3.687413  8.392466  1.436936
  C     2.413341  3.936439  0.981047
  C     2.437912  8.061453  0.824642
  N     4.464696  4.938602  0.658749
  N     4.733356  8.585184  0.639043
  N     2.482880  3.666568 -0.320569
  N     2.510386  8.124045 -0.487751
  N     2.012967  3.872108  3.512473
  N     1.936947  8.187610  3.348535
  S     1.220307  3.384940  2.077344
  S     1.128142  7.639746  1.916055
  S     3.981808  4.271889 -0.777554
  S     4.096158  8.452541 -0.890843
  S     3.476566  4.618688  3.323747
  S     3.530525  8.583496  3.157187
