16  
    
  C    12.394697  9.200205  3.406544
  C    12.186171 12.650838  3.481398
  C    11.183915  8.672865  2.826009
  C    11.044233 12.053531  2.805586
  N    13.345948  9.300658  2.480062
  N    13.301349 12.777943  2.722667
  N    11.239757  8.430255  1.524941
  N    11.243134 11.844416  1.495960
  N    10.574557  8.919692  5.295445
  N    10.226617 12.547976  5.256831
  S     9.871883  8.399760  3.907281
  S     9.634947 12.050975  3.713168
  S    12.761455  8.730473  1.053071
  S    12.803891 12.366982  1.199494
  S    12.183202  9.421261  5.099866
  S    11.837388 12.950351  5.185121
