16  
    
  C     7.495817  6.104695  2.188145
  C     7.958198  9.899035  2.224018
  C     6.365842  5.451979  1.619529
  C     6.681362  9.485557  1.731707
  N     8.468676  6.332640  1.296133
  N     8.884021  9.966555  1.294446
  N     6.362206  5.408709  0.298828
  N     6.631470  9.290799  0.428727
  N     5.716026  5.782192  4.052151
  N     6.350474  9.391857  4.260729
  S     5.036776  5.155975  2.642652
  S     5.475585  9.169830  2.863593
  S     7.825556  6.012460 -0.186665
  S     8.152883  9.659640 -0.152257
  S     7.375028  6.155072  3.914048
  S     7.878576 10.108762  3.969707
