16  
    
  C     5.970734  4.793927  1.818522
  C     5.808342  9.217483  1.973441
  C     4.808955  4.536851  1.028308
  C     4.669031  8.594366  1.363743
  N     7.051669  4.962023  1.043299
  N     6.847363  9.341825  1.155139
  N     5.038225  4.410877 -0.272468
  N     4.736382  8.473256  0.040551
  N     3.915152  4.913345  3.403545
  N     4.135389  8.961802  3.841171
  S     3.339780  4.232949  1.984643
  S     3.405577  8.370501  2.517406
  S     6.606899  4.810386 -0.547549
  S     6.317105  8.953199 -0.324695
  S     5.575559  5.077536  3.551461
  S     5.638939  9.583093  3.637984
