16  
    
  C     9.202059  6.926606  2.751642
  C     9.657368 10.915415  2.661646
  C     8.037182  6.380512  2.108096
  C     8.573309 10.181887  2.078489
  N    10.240797  7.194971  1.944556
  N    10.625572 11.295467  1.819517
  N     8.150038  6.342476  0.802512
  N     8.664363 10.087420  0.770134
  N     7.484951  6.355009  4.610479
  N     8.131265 10.083636  4.610125
  S     6.741395  6.078347  3.186927
  S     7.369933  9.612326  3.218598
  S     9.690483  6.973860  0.399158
  S    10.092776 10.862107  0.288809
  S     9.016512  6.982513  4.504472
  S     9.530541 10.916323  4.435374
