16  
    
  C     4.273223  5.028153  1.121191
  C     4.424057  8.387417  1.420154
  C     2.997447  4.811905  0.487787
  C     3.249417  7.863335  0.718517
  N     5.341288  5.041756  0.345562
  N     5.431325  8.658944  0.597619
  N     3.123155  4.555475 -0.834866
  N     3.418974  7.758594 -0.592693
  N     2.727624  4.695873  3.062728
  N     2.502635  8.262293  3.104754
  S     1.745894  4.691263  1.747147
  S     1.868760  7.694170  1.699948
  S     4.791401  4.811130 -1.144947
  S     4.934513  8.307079 -0.892088
  S     4.298597  5.223222  2.786700
  S     4.151166  8.376348  3.131411
