16  
    
  C     9.800655  7.417099  2.460599
  C    10.406300 11.223780  2.582115
  C     8.619463  6.825798  1.896234
  C     9.177760 10.882360  1.978028
  N    10.856279  7.542478  1.676438
  N    11.426781 11.269569  1.762786
  N     8.698949  6.583095  0.588297
  N     9.215994 10.849712  0.662666
  N     8.260545  7.189028  4.458126
  N     8.634850 11.084436  4.478065
  S     7.436500  6.559127  3.209650
  S     7.811881 10.902989  3.090718
  S    10.298614  7.068639  0.174591
  S    10.794237 11.102897  0.195019
  S     9.747967  7.869828  4.152039
  S    10.281607 11.388213  4.338408
