16  
    
  C     9.961937  7.661746  2.999221
  C    10.592964 11.647223  3.020464
  C     8.829783  7.236074  2.241366
  C     9.379843 11.066344  2.528794
  N    11.008245  7.962901  2.271262
  N    11.486045 11.908104  2.076464
  N     8.998058  7.128226  0.954947
  N     9.349390 10.683633  1.260813
  N     8.143735  7.034619  4.644390
  N     9.030957 11.380832  5.092232
  S     7.438390  6.824963  3.230703
  S     8.144929 10.870181  3.783413
  S    10.606051  7.647385  0.689446
  S    10.835283 11.183162  0.677347
  S     9.675272  7.560882  4.665149
  S    10.553377 11.982130  4.724113
