16  
    
  C    12.138823  8.934440  3.528394
  C    11.960192 12.418880  3.379776
  C    11.009091  8.497722  2.762933
  C    10.637082 12.100670  2.836808
  N    13.199656  9.036173  2.755857
  N    12.917767 12.567744  2.441221
  N    11.223248  8.346994  1.471456
  N    10.581589 12.115233  1.500107
  N    10.231263  8.575675  5.205423
  N    10.226109 12.035696  5.344184
  S     9.528002  8.344500  3.703998
  S     9.342645 11.868427  3.913327
  S    12.740908  8.818191  1.165278
  S    12.186812 12.211964  1.009744
  S    11.784126  9.012968  5.277817
  S    11.939635 12.399374  5.123090
