16  
    
  C    12.364828  9.075405  3.784532
  C    12.591210 12.848678  3.554394
  C    11.305560  8.369721  3.100850
  C    11.304891 12.500380  2.962252
  N    13.294752  9.414743  2.877257
  N    13.609591 12.890425  2.706319
  N    11.395677  8.327261  1.756780
  N    11.358496 12.369960  1.655389
  N    10.539840  8.476850  5.616353
  N    10.823882 12.649433  5.456439
  S     9.954338  7.980356  4.101423
  S    10.047304 12.231777  4.018159
  S    12.795886  8.985864  1.334680
  S    12.909762 12.686879  1.184107
  S    12.088549  9.274553  5.528068
  S    12.494673 12.899073  5.291869
