16  
    
  C     4.547476  5.108967  2.008884
  C     4.689584  8.644233  1.454072
  C     3.404605  4.661415  1.238543
  C     3.531799  8.184401  0.783753
  N     5.655152  5.314514  1.306664
  N     5.724063  8.935053  0.692307
  N     3.629115  4.622349 -0.060574
  N     3.666801  8.009759 -0.511608
  N     2.666589  5.015822  3.693480
  N     2.893416  8.344642  3.285422
  S     1.988359  4.459588  2.251420
  S     2.184154  7.902656  1.798602
  S     5.248710  4.894598 -0.254882
  S     5.210307  8.463650 -0.867974
  S     4.350968  5.160736  3.712734
  S     4.508813  8.801417  3.161516
