16  
    
  C     9.975100  7.518954  2.493258
  C    10.359898 11.041126  2.650219
  C     8.764995  6.988691  1.954448
  C     9.120879 11.069012  1.975928
  N    11.008999  7.622853  1.634035
  N    11.435806 11.050222  1.883493
  N     8.823041  6.709348  0.658095
  N     9.182064 11.019646  0.664163
  N     8.306280  7.226704  4.492847
  N     8.611087 11.141622  4.539840
  S     7.532733  6.591626  3.159481
  S     7.790414 10.863955  3.103156
  S    10.404157  7.011073  0.200960
  S    10.812737 11.017189  0.284671
  S     9.917956  7.691208  4.197982
  S    10.295633 11.199014  4.360047
