16  
    
  C    10.454053  7.226975  2.803917
  C    10.271049 11.136635  2.732405
  C     9.182761  7.393138  2.153354
  C     9.014743 10.793179  2.135206
  N    11.463177  7.115978  1.974258
  N    11.328422 11.109404  1.915524
  N     9.267604  7.389419  0.847602
  N     9.019223 10.718630  0.810005
  N     8.791812  7.313863  4.679764
  N     8.510065 11.027291  4.621790
  S     7.914672  7.634128  3.327982
  S     7.678036 10.687367  3.259192
  S    10.889363  7.157194  0.455589
  S    10.646484 10.898523  0.401213
  S    10.460237  7.236538  4.533527
  S    10.154704 11.366873  4.483753
