16  
    
  C    12.676998  8.870032  3.629764
  C    12.437541 12.772305  3.941542
  C    11.400651  8.459219  3.003070
  C    11.271297 12.221649  3.217367
  N    13.687955  8.975525  2.783060
  N    13.385283 13.157740  3.085116
  N    11.566457  8.291376  1.718564
  N    11.412598 12.056467  1.900800
  N    10.963089  8.535519  5.514617
  N    10.524682 12.485316  5.637994
  S    10.119185  8.185849  4.167735
  S     9.899154 11.756632  4.221577
  S    13.071225  8.683309  1.237291
  S    12.972568 12.598384  1.558807
  S    12.540379  9.132438  5.359969
  S    12.064109 13.137445  5.587178
