16  
    
  C    11.855619  8.828502  3.350590
  C    11.554189 12.244513  3.255563
  C    10.600388  8.366131  2.870790
  C    10.488159 11.589718  2.561865
  N    12.776569  8.819582  2.408434
  N    12.478779 12.660972  2.389628
  N    10.582866  7.946993  1.617412
  N    10.593989 11.394037  1.251329
  N    10.303534  8.572853  5.426684
  N     9.702671 11.795141  5.081118
  S     9.344882  8.250760  4.057359
  S     9.154820 11.274286  3.528072
  S    12.085398  8.290326  1.003899
  S    12.104840 12.021598  0.899379
  S    11.840846  9.122197  5.115626
  S    11.244070 12.623272  4.965294
