16  
    
  C     9.212263  6.933452  2.753483
  C     9.657641 10.890500  2.652707
  C     8.059441  6.385079  2.118261
  C     8.580797 10.200246  2.104090
  N    10.240927  7.208386  1.925352
  N    10.620656 11.297406  1.822504
  N     8.143305  6.326246  0.796882
  N     8.651946 10.064454  0.763921
  N     7.470403  6.341712  4.589092
  N     8.149864 10.076187  4.623912
  S     6.730502  6.086642  3.169052
  S     7.376091  9.611851  3.228424
  S     9.680220  6.956172  0.377277
  S    10.095575 10.860042  0.302725
  S     9.001187  6.970423  4.498453
  S     9.529014 10.922531  4.440678
