16  
    
  C     6.566984  5.746258  2.076717
  C     6.429318  9.436766  1.901708
  C     5.360688  5.408252  1.433355
  C     5.317540  8.908364  1.182347
  N     7.582484  6.008080  1.276432
  N     7.519420  9.658579  1.178050
  N     5.449472  5.216824  0.126690
  N     5.487001  8.775475 -0.128255
  N     4.814151  5.699765  3.963048
  N     4.696642  9.111618  3.743145
  S     4.146483  5.195096  2.581500
  S     4.020312  8.452895  2.288152
  S     7.048607  5.606936 -0.234435
  S     7.063244  9.221550 -0.386564
  S     6.422707  6.069707  3.787617
  S     6.317199  9.488658  3.605849
