16  
    
  C    12.762881  9.246496  3.420226
  C    12.648012 13.072584  3.548909
  C    11.569057  8.828908  2.744723
  C    11.539882 12.448051  2.879075
  N    13.776547  9.362431  2.571825
  N    13.756384 13.256475  2.811205
  N    11.672797  8.426091  1.498591
  N    11.728531 12.215899  1.587455
  N    10.993203  9.069585  5.244011
  N    10.815396 12.565469  5.308981
  S    10.242282  8.600297  3.811498
  S    10.214370 12.092666  3.891714
  S    13.179321  8.855715  1.056004
  S    13.340398 12.589165  1.324796
  S    12.589617  9.485697  5.118174
  S    12.326999 13.213649  5.255602
