16  
    
  C     5.362067  5.329872  1.769049
  C     5.138546  8.895909  1.719768
  C     4.146674  5.176121  1.028619
  C     3.943436  8.437857  1.099627
  N     6.449520  5.549773  1.009217
  N     6.161649  9.184159  0.902012
  N     4.356435  5.067175 -0.279757
  N     3.956127  8.463070 -0.234548
  N     3.548339  5.364389  3.505674
  N     3.371085  8.517230  3.599906
  S     2.699342  5.220477  2.089657
  S     2.570034  8.339279  2.192043
  S     5.994356  5.265255 -0.552990
  S     5.514856  8.965549 -0.631680
  S     5.122314  5.658985  3.447456
  S     5.005144  8.887231  3.466002
