16  
    
  C     8.796528  6.934288  2.200135
  C     9.005623 10.495190  2.408363
  C     7.658782  6.364741  1.575469
  C     7.779865 10.063779  1.854108
  N     9.885416  7.139385  1.474035
  N    10.023278 10.629829  1.579385
  N     7.811976  6.365140  0.243847
  N     7.875860  9.864032  0.536716
  N     7.142469  6.740164  4.082208
  N     7.292773 10.280359  4.384909
  S     6.263500  6.239635  2.695393
  S     6.438720 10.056480  2.963266
  S     9.427372  6.838732 -0.064835
  S     9.461641 10.158174  0.155984
  S     8.699792  7.230858  3.889624
  S     8.894056 10.696303  4.162235
