16  
    
  C     5.301549  5.609360  1.597408
  C     5.265280  8.948583  1.466728
  C     4.059549  5.175393  1.091538
  C     4.020511  8.523393  0.816580
  N     6.306505  5.545973  0.726383
  N     6.314847  9.003579  0.651571
  N     4.038546  4.990138 -0.227373
  N     4.141190  8.158644 -0.457162
  N     3.744812  5.526683  3.702456
  N     3.432285  8.871452  3.265273
  S     2.905091  4.988374  2.404221
  S     2.694832  8.215335  1.893296
  S     5.625324  5.271840 -0.712011
  S     5.750691  8.476379 -0.840306
  S     5.411413  5.722250  3.318303
  S     5.018537  9.426525  3.133736
