16  
    
  C     8.566595  6.859210  2.367603
  C     8.958822 10.199678  2.723196
  C     7.346342  6.461795  1.618385
  C     7.655065  9.967409  2.090989
  N     9.599733  7.161204  1.586945
  N     9.982478 10.370946  1.916382
  N     7.635726  6.259282  0.330110
  N     7.729661  9.972924  0.775609
  N     6.683919  6.509029  4.101441
  N     7.194552 10.299149  4.559564
  S     6.025410  5.984640  2.655289
  S     6.379521  9.869715  3.199905
  S     9.187542  6.644908  0.044582
  S     9.328198 10.185058  0.348729
  S     8.316333  7.016325  4.062356
  S     8.808834 10.563553  4.380783
