16  
    
  C     3.472374  4.663604  1.528893
  C     3.684360  8.347533  1.408022
  C     2.406957  3.893279  0.974448
  C     2.428598  8.104898  0.799492
  N     4.470431  4.893113  0.671688
  N     4.715442  8.613440  0.621632
  N     2.537691  3.666502 -0.315481
  N     2.496218  8.106278 -0.529331
  N     2.011996  3.853212  3.482829
  N     1.910214  8.199176  3.334127
  S     1.200161  3.383335  2.109463
  S     1.114555  7.637441  1.927206
  S     4.003427  4.273084 -0.775878
  S     4.075577  8.449802 -0.923333
  S     3.485629  4.601754  3.284432
  S     3.518256  8.604165  3.132691
