16  
    
  C     7.366222  5.989595  2.180807
  C     7.781614  9.703978  2.249661
  C     6.145745  5.609167  1.485445
  C     6.482393  9.342229  1.658032
  N     8.435298  6.232074  1.434350
  N     8.814959  9.862703  1.428645
  N     6.315510  5.507835  0.162006
  N     6.576421  9.240574  0.335421
  N     5.542586  5.605762  4.022016
  N     6.111435  9.590581  4.220229
  S     4.824322  5.192070  2.580565
  S     5.221241  9.285537  2.863357
  S     7.888439  5.933903 -0.125796
  S     8.159440  9.632666 -0.101796
  S     7.126253  6.055439  3.911952
  S     7.714106  9.801028  3.986368
