16  
    
  C    12.386321  9.114889  3.354965
  C    12.273629 12.778502  3.420602
  C    11.162523  8.646026  2.779200
  C    11.153857 12.137194  2.818901
  N    13.322026  9.234109  2.449697
  N    13.344717 12.956185  2.635153
  N    11.244376  8.303806  1.494198
  N    11.362892 11.773331  1.569392
  N    10.785711  8.955726  5.372326
  N    10.317453 12.652434  5.152160
  S     9.893186  8.558985  4.000457
  S     9.670341 12.104237  3.722977
  S    12.721954  8.771809  0.962152
  S    12.911717 12.236891  1.158139
  S    12.386825  9.571337  5.029357
  S    11.911775 13.041946  5.180830
