16  
    
  C     7.812308  6.416200  2.142380
  C     8.037601 10.535831  2.160943
  C     6.654310  5.859813  1.520794
  C     6.913507  9.916690  1.549123
  N     8.834490  6.617860  1.340405
  N     9.062087 10.787884  1.371376
  N     6.699659  5.837866  0.198237
  N     7.054753  9.737696  0.266977
  N     6.144828  5.827896  3.994202
  N     6.407649 10.196407  4.084522
  S     5.312329  5.531557  2.596696
  S     5.605103  9.662938  2.715284
  S     8.335551  6.276326 -0.175653
  S     8.639549 10.228051 -0.140223
  S     7.777984  6.378063  3.865943
  S     7.886008 10.906840  3.872293
