16  
    
  C    12.333311  9.165416  3.394966
  C    12.168474 12.585929  3.484624
  C    11.112694  8.713330  2.822575
  C    11.010159 12.028409  2.794323
  N    13.366134  9.296229  2.550629
  N    13.243741 12.746934  2.744100
  N    11.287082  8.416185  1.523545
  N    11.178932 11.944839  1.484379
  N    10.515569  8.925926  5.349403
  N    10.223683 12.484001  5.229851
  S     9.828666  8.355241  3.887405
  S     9.606779 12.021538  3.772947
  S    12.797402  8.748198  1.056074
  S    12.778930 12.378590  1.231022
  S    12.145217  9.383339  5.107716
  S    11.838157 12.915046  5.129553
