16  
    
  C     8.079156  6.306356  2.265688
  C     8.099982 10.097272  2.234118
  C     6.852020  5.934862  1.646826
  C     6.844646  9.780283  1.657060
  N     9.045969  6.561869  1.398048
  N     9.086507 10.188586  1.359365
  N     6.856026  5.839826  0.350014
  N     6.849558  9.736028  0.324910
  N     6.316527  6.067841  4.110983
  N     6.313258  9.883282  4.129173
  S     5.506958  5.624086  2.694709
  S     5.531441  9.534164  2.691692
  S     8.418617  6.241950 -0.106416
  S     8.430271  9.914263 -0.132815
  S     7.889326  6.370278  4.016639
  S     7.866777 10.497214  3.977184
