16  
    
  C    11.840308  8.776625  3.324559
  C    11.499470 12.452837  3.131180
  C    10.590577  8.237313  2.845300
  C    10.408365 11.699389  2.576153
  N    12.791919  8.823166  2.419136
  N    12.559854 12.673377  2.344197
  N    10.562451  7.930383  1.546433
  N    10.633476 11.338134  1.322378
  N    10.337645  8.568790  5.406582
  N     9.849862 11.853860  4.963965
  S     9.407330  8.151264  4.133947
  S     9.092195 11.313556  3.662850
  S    12.096493  8.250987  0.978129
  S    12.104692 12.035014  0.889205
  S    11.869289  9.123457  5.044688
  S    11.325604 12.471022  4.880919
