16  
    
  C     5.483330  5.459434  1.652367
  C     5.277034  8.935176  1.586107
  C     4.219656  5.101719  1.075314
  C     4.152735  8.367518  0.916727
  N     6.393953  5.763884  0.741792
  N     6.347201  9.102032  0.812149
  N     4.157373  5.044073 -0.227989
  N     4.340023  8.145331 -0.363419
  N     3.719665  5.312751  3.563151
  N     3.397626  8.758565  3.359097
  S     2.876687  5.006676  2.200971
  S     2.728990  8.335116  1.896218
  S     5.700161  5.391096 -0.780294
  S     5.919700  8.614770 -0.715775
  S     5.363340  5.684262  3.424951
  S     4.932973  9.279264  3.246595
