16  
    
  C     9.064670  6.997300  2.418110
  C     9.176179 10.831122  2.551632
  C     7.842835  6.762923  1.644081
  C     7.928242 10.429648  1.892863
  N    10.085606  7.326399  1.622782
  N    10.150072 11.092810  1.683225
  N     7.953288  6.679836  0.311928
  N     8.028998 10.272140  0.551646
  N     7.166590  6.743113  4.111129
  N     7.438132 10.554660  4.404253
  S     6.483697  6.505540  2.606533
  S     6.587012 10.447502  3.008056
  S     9.541994  7.102336  0.026979
  S     9.509241 10.759794  0.128849
  S     8.790133  7.084017  4.127207
  S     9.012544 11.155460  4.253423
