16  
    
  C     9.266285  7.064610  2.515074
  C     8.924315 10.997456  2.325792
  C     8.069784  6.483932  2.058442
  C     7.757438 10.401959  1.774916
  N    10.180432  7.163049  1.550069
  N     9.866038 11.229915  1.422672
  N     7.999524  6.319086  0.757682
  N     7.815664 10.140229  0.456737
  N     7.511990  6.968734  4.437218
  N     7.229479 10.494359  4.246392
  S     6.747694  6.323413  3.119168
  S     6.407956 10.141880  2.804237
  S     9.454649  6.683129  0.165902
  S     9.372549 10.633397 -0.011812
  S     9.163814  7.375929  4.276099
  S     8.672594 11.309318  4.056653
