16  
    
  C     5.761129  5.570930  1.798107
  C     5.890661  8.974293  2.120032
  C     4.521288  5.261075  1.137062
  C     4.693380  8.656510  1.405378
  N     6.818368  5.512523  1.013943
  N     6.974379  9.039732  1.383903
  N     4.601300  4.911674 -0.152062
  N     4.795473  8.543989  0.074822
  N     4.008166  5.540516  3.648538
  N     4.155012  8.775659  3.941323
  S     3.193040  5.100344  2.263985
  S     3.354851  8.529070  2.530455
  S     6.256785  5.002484 -0.470109
  S     6.450710  8.707464 -0.194103
  S     5.702970  5.700676  3.544139
  S     5.764012  9.049987  3.853623
