16  
    
  C    11.761340  8.605900  3.196146
  C    11.339015 12.137154  3.375435
  C    10.534983  8.217659  2.622918
  C    10.205862 11.556407  2.640598
  N    12.737902  8.778388  2.315826
  N    12.306797 12.582091  2.594150
  N    10.521685  8.209741  1.297922
  N    10.367663 11.509833  1.324619
  N    10.207493  8.067191  5.114074
  N     9.560905 11.657544  5.216296
  S     9.332171  7.742616  3.781622
  S     8.874864 11.296362  3.715540
  S    12.063257  8.633402  0.809112
  S    11.938856 12.150277  1.066594
  S    11.743048  8.641364  4.902592
  S    11.123324 12.286789  5.139244
