16  
    
  C     4.176875  4.862124  1.655510
  C     4.085256  8.312608  1.528211
  C     2.924836  4.474140  1.010938
  C     2.860457  7.967139  0.821917
  N     5.209030  4.796228  0.781358
  N     5.095853  8.590599  0.724479
  N     2.979643  4.390993 -0.306507
  N     3.047773  7.645267 -0.468247
  N     2.375877  4.724578  3.453255
  N     2.200303  8.358893  3.260405
  S     1.541172  4.359782  2.097516
  S     1.451576  7.945670  1.856083
  S     4.546950  4.403226 -0.697765
  S     4.616318  8.075545 -0.820709
  S     4.015680  5.003568  3.361498
  S     3.848963  8.649344  3.222990
