16  
    
  C     8.006625  6.632486  2.692875
  C     8.708369 10.264945  2.756065
  C     6.838410  6.197966  1.925105
  C     7.469918  9.848626  2.118749
  N     9.075403  6.849692  1.925567
  N     9.683642 10.456948  1.854986
  N     7.148159  5.966314  0.642100
  N     7.555897  9.711715  0.807683
  N     6.136735  6.299403  4.405972
  N     6.909743 10.186260  4.578775
  S     5.471005  5.819531  2.922483
  S     6.086899  9.899018  3.155883
  S     8.736400  6.333053  0.438254
  S     9.115939 10.057493  0.387053
  S     7.699589  6.774395  4.379345
  S     8.470320 10.761373  4.378959
