16  
    
  C    10.963965  7.720306  3.118462
  C    11.378540 11.764843  2.901709
  C     9.757950  7.589819  2.393911
  C    10.204219 11.070417  2.414924
  N    12.129201  7.710834  2.429187
  N    12.300764 12.004891  1.969689
  N     9.921363  7.502270  1.046758
  N    10.200057 10.890784  1.100988
  N     9.057578  7.569923  4.903187
  N     9.541610 11.780471  4.818931
  S     8.379942  7.318464  3.404486
  S     8.907903 10.897358  3.510615
  S    11.584576  7.658701  0.826235
  S    11.696860 11.371991  0.521514
  S    10.710003  7.657708  4.884672
  S    11.180572 12.187567  4.551262
