16  
    
  C     9.674916  7.582721  2.805183
  C     9.880106 11.204232  2.741234
  C     8.558390  7.037967  2.115907
  C     8.662403 10.820090  2.162632
  N    10.799777  7.805180  2.116583
  N    10.943993 11.322934  1.942604
  N     8.844669  6.876432  0.821412
  N     8.728951 10.700176  0.823897
  N     7.840730  7.539714  4.534894
  N     8.177425 11.144191  4.610999
  S     7.214325  6.758683  3.196608
  S     7.328294 10.878043  3.250707
  S    10.404084  7.450021  0.581470
  S    10.295783 10.990778  0.400133
  S     9.429248  7.925025  4.511650
  S     9.847825 11.195923  4.489975
