16  
    
  C    10.921858  8.119819  2.972732
  C    10.918136 11.591782  2.752105
  C     9.718376  7.466407  2.536070
  C     9.665863 11.222192  2.167234
  N    11.877934  8.292995  2.055512
  N    11.878718 11.920249  1.907728
  N     9.707783  7.123045  1.257967
  N     9.748138 11.068876  0.865090
  N     9.523233  7.596789  5.166002
  N     9.236258 11.411127  4.685252
  S     8.674606  7.054460  3.841707
  S     8.389217 10.936998  3.347260
  S    11.139414  7.714981  0.651011
  S    11.344148 11.443337  0.381714
  S    11.013704  8.324205  4.730673
  S    10.802749 11.737187  4.459222
