16  
    
  C     8.385037  6.687166  2.389165
  C     8.386114 10.323968  2.320639
  C     7.189354  6.156885  1.779370
  C     7.135710  9.930201  1.763864
  N     9.408802  6.799762  1.559229
  N     9.402913 10.238340  1.442747
  N     7.239580  6.107124  0.456984
  N     7.197721  9.678650  0.454511
  N     6.759575  6.197628  4.287150
  N     6.743547 10.148924  4.316652
  S     5.861812  5.906956  2.937155
  S     5.921108  9.613231  2.967510
  S     8.858570  6.552439  0.023461
  S     8.817811  9.840544 -0.002174
  S     8.334954  6.778934  4.140627
  S     8.323341 10.537056  4.086601
