16  
    
  C     8.105981  6.549600  2.562106
  C     8.549314 10.241776  2.361347
  C     6.923771  6.191003  1.866008
  C     7.282276  9.830394  1.868889
  N     9.155566  6.746933  1.784127
  N     9.474017 10.306438  1.400468
  N     7.051072  5.961873  0.555478
  N     7.252143  9.489744  0.587997
  N     6.240128  6.314517  4.307162
  N     6.907564 10.410652  4.357013
  S     5.513444  5.956950  2.869537
  S     6.025142  9.750429  3.068282
  S     8.662488  6.436833  0.229607
  S     8.760094  9.910210  0.012279
  S     7.856380  6.772556  4.252724
  S     8.543646 10.482592  4.105104
