16  
    
  C     7.893871  6.276482  2.134711
  C     8.077115 10.626634  2.177948
  C     6.687557  5.926303  1.502270
  C     6.978792  9.981939  1.553308
  N     8.864367  6.631473  1.288402
  N     9.097745 10.827363  1.352224
  N     6.763673  5.727903  0.180929
  N     7.124657  9.574972  0.322002
  N     6.196508  5.705615  4.058637
  N     6.314359 10.119491  4.068358
  S     5.401947  5.550696  2.601030
  S     5.627006  9.699618  2.604310
  S     8.221906  6.283382 -0.243077
  S     8.592470 10.195575 -0.136122
  S     7.696632  6.336623  3.915163
  S     7.859498 10.782270  3.928973
