16  
    
  C     5.316186  5.444757  1.659404
  C     5.151788  9.032476  1.314414
  C     3.985542  5.208783  1.178362
  C     3.954610  8.466668  0.775370
  N     6.284457  5.509967  0.743281
  N     6.193228  8.934400  0.491599
  N     3.963853  4.896773 -0.123522
  N     4.034641  8.241972 -0.545789
  N     3.817513  5.506490  3.713025
  N     3.448934  8.934269  3.261288
  S     2.787535  5.062060  2.483363
  S     2.717511  8.239770  1.984927
  S     5.507335  5.075191 -0.686878
  S     5.600012  8.407504 -0.948592
  S     5.353453  5.872337  3.367247
  S     5.020362  9.379334  2.993539
