16  
    
  C    10.282342  7.647259  2.616336
  C    10.516930 11.411918  2.827346
  C     9.038661  7.213646  2.069573
  C     9.307465 11.270030  2.072396
  N    11.304831  7.722752  1.736007
  N    11.681748 11.264182  2.182563
  N     9.065645  7.032796  0.750305
  N     9.514689 11.173260  0.774391
  N     8.537742  7.719830  4.508879
  N     8.571486 11.351250  4.533368
  S     7.723939  7.118727  3.116750
  S     7.855451 11.442944  3.023232
  S    10.676346  7.260212  0.262204
  S    11.169417 11.162867  0.538629
  S    10.193932  8.038388  4.334828
  S    10.221871 11.629725  4.553407
