16  
    
  C     3.444736  4.688395  1.524604
  C     3.682665  8.329882  1.411865
  C     2.392247  3.864205  0.965129
  C     2.403969  8.117943  0.775782
  N     4.477819  4.863266  0.688367
  N     4.694744  8.632148  0.597559
  N     2.578904  3.658113 -0.324493
  N     2.485323  8.090388 -0.564973
  N     2.008525  3.840700  3.466145
  N     1.895710  8.204895  3.316996
  S     1.185823  3.384656  2.133509
  S     1.112633  7.643233  1.935767
  S     4.018892  4.277249 -0.774847
  S     4.059983  8.446599 -0.950944
  S     3.490627  4.591668  3.250610
  S     3.506244  8.615714  3.115096
