16  
    
  C     8.053918  6.352543  2.263688
  C     8.012522 10.170997  2.268624
  C     6.852452  5.907248  1.611082
  C     6.765831  9.766065  1.652489
  N     9.103469  6.534502  1.495413
  N     9.067064 10.205390  1.480124
  N     6.966421  5.753083  0.310246
  N     6.852448  9.521846  0.329497
  N     6.324073  6.170144  4.166695
  N     6.338303  9.867645  4.222243
  S     5.550194  5.776184  2.772667
  S     5.515181  9.484304  2.821453
  S     8.551098  6.227027 -0.034557
  S     8.481774  9.858612 -0.071547
  S     7.980209  6.529828  3.965233
  S     7.883343 10.380308  3.993166
