16  
    
  C     8.177357  6.526308  2.266752
  C     8.003449 10.128252  2.376899
  C     7.022247  5.958766  1.692434
  C     6.870783  9.515394  1.765209
  N     9.250858  6.595309  1.453606
  N     9.048860 10.436618  1.589345
  N     7.122105  5.777670  0.352726
  N     7.014121  9.287758  0.472129
  N     6.374722  6.317749  4.163435
  N     6.306151  9.905284  4.252807
  S     5.605523  5.923587  2.798440
  S     5.502435  9.400847  2.893997
  S     8.663342  6.089207 -0.047973
  S     8.517021  9.799207  0.088079
  S     8.010311  6.770891  4.009152
  S     7.906133 10.299173  4.107065
