16  
    
  C    11.951389  8.427614  3.297797
  C    11.587006 11.947660  3.534156
  C    10.682521  8.238274  2.636865
  C    10.437182 11.446042  2.876251
  N    13.015780  8.611888  2.459638
  N    12.525447 12.383433  2.695509
  N    10.779541  8.215830  1.302164
  N    10.538401 11.344221  1.566506
  N    10.045895  8.218520  5.150909
  N     9.706307 11.692261  5.358811
  S     9.283225  8.199760  3.709269
  S     9.062169 11.214856  3.866378
  S    12.330384  8.471951  0.944846
  S    11.958688 11.958198  1.165176
  S    11.720293  8.500868  5.031654
  S    11.372312 12.063764  5.238811
