16  
    
  C     8.599163  6.654902  2.353901
  C     8.229250 10.383590  2.660594
  C     7.296275  6.239236  1.786133
  C     7.164016  9.756159  1.870273
  N     9.509388  6.804949  1.383926
  N     9.352262 10.521252  1.926853
  N     7.364461  5.920554  0.493986
  N     7.508862  9.419536  0.633212
  N     6.825140  6.405569  4.273408
  N     6.279213  9.783716  4.267701
  S     6.029634  5.923107  2.896424
  S     5.784225  9.225184  2.764331
  S     8.846447  6.340889 -0.056312
  S     9.031692  9.905480  0.399102
  S     8.466937  6.998110  4.074503
  S     7.766343 10.546830  4.322900
