16  
    
  C     4.519112  4.944370  1.220705
  C     4.280245  8.531047  1.550305
  C     3.232592  4.655305  0.693176
  C     3.149059  8.090521  0.742361
  N     5.426587  5.222134  0.252822
  N     5.356454  8.784048  0.808975
  N     3.147703  4.491602 -0.633982
  N     3.393278  8.113795 -0.579282
  N     2.670357  4.908880  3.209242
  N     2.347258  7.936727  3.205234
  S     1.907179  4.709250  1.760562
  S     1.718528  7.683344  1.724473
  S     4.653073  4.825545 -1.185929
  S     5.003738  8.527649 -0.757206
  S     4.306131  5.138580  3.034466
  S     3.945641  8.465979  3.277569
