16  
    
  C     9.114305  6.996341  2.343605
  C     9.054007 11.044846  2.704376
  C     7.890677  6.695656  1.656735
  C     7.895456 10.533271  2.081942
  N    10.175513  7.137210  1.575300
  N    10.100356 11.252294  1.904991
  N     8.024274  6.456872  0.354296
  N     7.996188 10.374818  0.783081
  N     7.285857  6.836966  4.190387
  N     7.348312 10.745829  4.638501
  S     6.502432  6.484846  2.750016
  S     6.582377 10.305131  3.236699
  S     9.656749  6.757535 -0.003968
  S     9.531798 10.767959  0.363571
  S     8.917003  7.104566  4.062104
  S     8.916551 11.293409  4.410480
