16  
    
  C     5.907816  5.289003  1.696782
  C     6.048928  8.811913  2.138719
  C     4.642552  4.847464  1.126944
  C     4.745534  8.602505  1.484083
  N     6.939874  5.268971  0.839730
  N     7.094506  8.946743  1.323876
  N     4.642712  4.746389 -0.197842
  N     4.849679  8.500225  0.171106
  N     4.126036  5.273905  3.582199
  N     4.213166  8.745707  3.929074
  S     3.312308  4.857755  2.254994
  S     3.355011  8.560273  2.522731
  S     6.220323  5.029113 -0.683718
  S     6.460008  8.814815 -0.247995
  S     5.701165  5.543865  3.395833
  S     5.816102  9.108103  3.839734
