16  
    
  C     5.082208  5.078012  1.897553
  C     5.132517  8.654133  1.927512
  C     3.772342  5.034238  1.307172
  C     3.921791  8.280838  1.240459
  N     6.103354  5.133737  1.058531
  N     6.222823  8.575158  1.153746
  N     3.820870  4.840321 -0.005282
  N     4.123083  8.014429 -0.045874
  N     3.487553  4.834778  3.830472
  N     3.238430  8.812877  3.650619
  S     2.485273  4.852089  2.537134
  S     2.508459  8.457688  2.203604
  S     5.436870  5.009345 -0.475953
  S     5.701904  8.211166 -0.344085
  S     5.113222  5.063002  3.619844
  S     4.868805  8.932694  3.594962
