16  
    
  C    12.372733  9.023299  3.769689
  C    12.576357 12.855684  3.543813
  C    11.280947  8.392586  3.109702
  C    11.334729 12.467725  2.952251
  N    13.318972  9.413093  2.890045
  N    13.626578 12.835696  2.729153
  N    11.354505  8.307148  1.776638
  N    11.398575 12.408347  1.645984
  N    10.505577  8.500432  5.649514
  N    10.858089 12.600218  5.448485
  S     9.947459  7.984060  4.132899
  S    10.011337 12.233576  4.018270
  S    12.801441  8.947992  1.358556
  S    12.926686 12.715685  1.181210
  S    12.109215  9.285651  5.538145
  S    12.497229 12.918746  5.302757
