16  
    
  C     5.164307  5.375893  1.986305
  C     5.111555  8.633855  1.595070
  C     3.879672  4.973195  1.410270
  C     3.843768  8.476728  0.923579
  N     6.202188  5.087162  1.215517
  N     6.161749  8.659662  0.770150
  N     3.950704  4.577219  0.148258
  N     4.016304  8.200930 -0.373322
  N     3.263167  5.684144  3.805533
  N     3.325516  8.578101  3.444128
  S     2.463389  5.160152  2.352563
  S     2.513712  8.378273  2.007470
  S     5.534179  4.660978 -0.302837
  S     5.592361  8.335371 -0.711127
  S     4.945673  5.713585  3.693811
  S     4.974950  8.894053  3.261399
