16  
    
  C    11.014286  8.201714  2.939254
  C    10.930053 11.540592  2.917876
  C     9.925263  7.425422  2.534729
  C     9.686337 11.077519  2.319390
  N    11.895283  8.494202  1.986488
  N    11.919436 11.831242  2.039884
  N     9.954947  7.107284  1.247033
  N     9.718121 11.178589  0.984589
  N     9.548793  7.933502  5.072573
  N     9.113290 11.306345  4.841854
  S     8.773364  7.125234  3.769457
  S     8.346293 10.892124  3.411411
  S    11.258324  7.906765  0.608543
  S    11.208087 11.607828  0.553986
  S    10.951782  8.691379  4.598470
  S    10.725739 11.742481  4.628247
