16  
    
  C     5.845974  5.582108  2.187184
  C     5.925611  9.166338  1.726882
  C     4.551840  5.553776  1.467794
  C     4.686690  8.917739  0.979147
  N     6.890630  5.513742  1.386581
  N     7.037005  9.089311  0.994980
  N     4.642776  5.370455  0.141020
  N     4.865358  8.737123 -0.334236
  N     4.099991  5.946378  4.042125
  N     3.947526  9.242397  3.489743
  S     3.202107  5.592817  2.618113
  S     3.344722  8.777647  2.027037
  S     6.309225  5.258136 -0.163902
  S     6.485973  8.744766 -0.593735
  S     5.770107  5.823016  3.923072
  S     5.681398  9.470738  3.446242
