16  
    
  C    12.682481  9.124262  3.556717
  C    12.750507 12.669162  3.468038
  C    11.432986  8.603679  3.048415
  C    11.565094 12.176126  2.834347
  N    13.610871  9.440362  2.662636
  N    13.783988 12.885253  2.673837
  N    11.559238  8.257470  1.780802
  N    11.655142 12.185078  1.522102
  N    11.218350  8.805858  5.607774
  N    11.144161 12.328567  5.361373
  S    10.270374  8.283588  4.371745
  S    10.271729 11.879390  3.996820
  S    12.988692  8.892571  1.264504
  S    13.234441 12.450025  1.112223
  S    12.811402  9.219749  5.330098
  S    12.723637 12.734649  5.188034
