16  
    
  C     8.439498  6.675742  2.307487
  C     8.108702 10.291873  2.635069
  C     7.228420  6.073468  1.711522
  C     7.068274  9.628061  1.825158
  N     9.460589  6.746870  1.479192
  N     9.275231 10.469953  1.980723
  N     7.334103  5.843162  0.406932
  N     7.395265  9.384365  0.554719
  N     6.788097  6.458378  4.244909
  N     6.286710  9.741239  4.325700
  S     5.952692  6.035416  2.884394
  S     5.743400  9.145590  2.886207
  S     8.851328  6.249142 -0.019599
  S     8.989264  9.844975  0.426193
  S     8.282595  7.071778  3.968917
  S     7.751488 10.517582  4.288758
