16  
    
  C     6.550371  5.857525  2.081252
  C     6.157831  9.212927  1.855629
  C     5.404076  5.243373  1.428938
  C     4.933425  8.814564  1.170854
  N     7.602266  5.982071  1.261429
  N     7.239105  9.436996  1.078007
  N     5.475081  5.087455  0.100119
  N     5.091790  8.667268 -0.136577
  N     4.619933  5.726815  3.848677
  N     4.367726  8.988829  3.653364
  S     4.021696  5.140116  2.467818
  S     3.613075  8.529648  2.253476
  S     7.034542  5.573817 -0.257191
  S     6.684501  8.963819 -0.469640
  S     6.265236  6.054875  3.785092
  S     5.916850  9.321334  3.593711
