16  
    
  C     8.035682  6.575945  2.549020
  C     8.523492 10.278785  2.367473
  C     6.891431  6.094846  1.862865
  C     7.251586  9.844644  1.891012
  N     9.113837  6.721064  1.798292
  N     9.484360 10.345994  1.435760
  N     7.067630  5.972229  0.553710
  N     7.283828  9.540350  0.617788
  N     6.241351  6.315444  4.321448
  N     6.917165 10.420933  4.347114
  S     5.501467  5.972719  2.893505
  S     6.026800  9.735481  3.093850
  S     8.662241  6.437431  0.290362
  S     8.803285  9.889962  0.047505
  S     7.802848  6.773058  4.228827
  S     8.560183 10.487036  4.102378
