16  
    
  C     5.190951  5.142488  2.043843
  C     5.156234  8.508342  1.927539
  C     3.903054  4.934556  1.390512
  C     3.997371  8.355376  1.146337
  N     6.214704  5.142073  1.181574
  N     6.287449  8.580744  1.239168
  N     3.944986  4.842552  0.072427
  N     4.281370  8.154188 -0.138986
  N     3.305150  5.168703  3.838593
  N     3.187487  8.955626  3.526377
  S     2.561888  4.924255  2.406350
  S     2.505204  8.437246  2.060824
  S     5.529449  4.883397 -0.362812
  S     5.880480  8.285387 -0.326485
  S     4.982953  5.214179  3.797787
  S     4.849409  8.785109  3.621881
