16  
    
  C     6.004096  5.664516  2.160022
  C     5.973951  9.213330  1.592735
  C     4.673636  5.571201  1.578045
  C     4.750799  8.899119  0.909745
  N     7.024365  5.469898  1.329540
  N     7.073995  9.205310  0.856107
  N     4.672060  5.391069  0.269969
  N     4.907699  8.563569 -0.376083
  N     4.246634  5.847888  4.072515
  N     4.141632  9.013343  3.421007
  S     3.300139  5.702917  2.646201
  S     3.359904  8.784481  2.012270
  S     6.279269  5.287156 -0.182867
  S     6.505232  8.789509 -0.693066
  S     5.884947  5.837261  3.916959
  S     5.781430  9.532901  3.249496
