16  
    
  C    10.813900  8.331622  3.288429
  C    10.694393 11.874727  3.250983
  C     9.683513  7.678934  2.676262
  C     9.554926 11.255835  2.651803
  N    11.812232  8.495204  2.451869
  N    11.688303 12.145630  2.399631
  N     9.840411  7.332157  1.396980
  N     9.577136 11.200748  1.312055
  N     9.132213  7.909188  5.242125
  N     9.071045 11.456148  5.180924
  S     8.344104  7.490254  3.774772
  S     8.242425 11.067314  3.796748
  S    11.346313  8.000439  0.934372
  S    11.077106 11.721192  0.890484
  S    10.649514  8.650194  4.977240
  S    10.602670 12.155771  5.004476
