16  
    
  C     8.139511  6.546028  2.572104
  C     8.570052 10.227904  2.364102
  C     6.916525  6.218057  1.858325
  C     7.282925  9.815467  1.867141
  N     9.181643  6.761021  1.775301
  N     9.476892 10.297296  1.403198
  N     7.056839  5.967141  0.555694
  N     7.236815  9.474455  0.563241
  N     6.243032  6.314407  4.308766
  N     6.900103 10.401411  4.360249
  S     5.521874  5.949997  2.857708
  S     6.024938  9.757890  3.059708
  S     8.659632  6.432841  0.202371
  S     8.740793  9.914627 -0.007543
  S     7.878314  6.772169  4.265668
  S     8.537145 10.483325  4.104706
