16  
    
  C     7.380576  5.967438  2.220174
  C     7.787856  9.687209  2.274837
  C     6.150074  5.649776  1.493895
  C     6.517124  9.347830  1.660240
  N     8.439854  6.235501  1.447908
  N     8.811533  9.842019  1.468104
  N     6.294306  5.471800  0.179408
  N     6.588008  9.239643  0.338674
  N     5.504902  5.607962  3.963887
  N     6.049428  9.635240  4.180264
  S     4.828979  5.200769  2.559723
  S     5.199202  9.281337  2.857686
  S     7.881930  5.929621 -0.111410
  S     8.120004  9.633032 -0.093241
  S     7.101093  6.042284  3.901568
  S     7.683109  9.783007  4.003018
