16  
    
  C     6.558569  5.770772  1.992059
  C     6.632778  9.419715  1.892211
  C     5.286432  5.425439  1.423107
  C     5.459646  8.849174  1.254314
  N     7.546654  5.937988  1.111853
  N     7.605591  9.633440  1.010923
  N     5.297017  5.187015  0.106777
  N     5.517939  8.717121 -0.075213
  N     4.945747  5.756785  4.007474
  N     4.864081  8.932672  3.801901
  S     4.106485  5.379542  2.616883
  S     4.111627  8.729111  2.334683
  S     6.854662  5.508777 -0.335777
  S     7.001675  9.327016 -0.492538
  S     6.506300  6.077025  3.721697
  S     6.445890  9.671516  3.617674
