16  
    
  C     9.539040  7.648588  2.626299
  C    10.139946 11.302704  2.593825
  C     8.473575  6.838505  2.103896
  C     8.916991 10.910872  1.987665
  N    10.538049  7.843624  1.780677
  N    11.155881 11.388893  1.749535
  N     8.680924  6.431731  0.850594
  N     8.921470 10.756656  0.671915
  N     7.855298  7.355416  4.558789
  N     8.509460 11.019641  4.535683
  S     7.131180  6.574857  3.252208
  S     7.627089 10.721062  3.160790
  S    10.185568  6.998360  0.428402
  S    10.490450 11.044281  0.239812
  S     9.346302  7.956045  4.277206
  S    10.068785 11.610868  4.298802
