16  
    
  C    11.876771  8.781849  3.383467
  C    11.580841 12.230804  3.265113
  C    10.612499  8.269655  2.909057
  C    10.468969 11.568176  2.582814
  N    12.830213  8.900454  2.491328
  N    12.607293 12.526983  2.453426
  N    10.584233  8.058512  1.614258
  N    10.664129 11.405256  1.267603
  N    10.196331  8.632719  5.378018
  N     9.726617 11.874862  4.945252
  S     9.322611  8.306328  4.054232
  S     9.071213 11.222835  3.625388
  S    12.105192  8.320230  1.065072
  S    12.152651 12.086086  0.909897
  S    11.805894  9.080531  5.084744
  S    11.142267 12.624557  4.929859
