16  
    
  C    11.429865  8.845655  3.231723
  C    11.397963 12.292801  3.253290
  C    10.328075  8.032384  2.682659
  C    10.236529 11.862078  2.549751
  N    12.353499  9.084040  2.314659
  N    12.496343 12.529875  2.500795
  N    10.504339  7.679392  1.428333
  N    10.451739 11.793493  1.246821
  N     9.829634  8.350012  5.196651
  N     9.526478 11.790142  5.078103
  S     9.036842  7.764182  3.878856
  S     8.892178 11.331921  3.562897
  S    11.924729  8.301457  0.915996
  S    12.043040 12.200404  0.983794
  S    11.326882  9.045104  4.955205
  S    11.084904 12.426244  4.938244
