16  
    
  C     3.793556  4.631112  1.621119
  C     3.776755  8.488478  1.659315
  C     2.520978  4.557397  0.966018
  C     2.627130  7.863103  1.098000
  N     4.765230  4.692806  0.687938
  N     4.874721  8.463954  0.893441
  N     2.520155  4.425838 -0.345045
  N     2.748919  7.482902 -0.186026
  N     1.922793  4.692109  3.479276
  N     1.984015  8.414961  3.555236
  S     1.195690  4.398316  1.969933
  S     1.225410  7.924537  2.151947
  S     4.053529  4.533864 -0.856111
  S     4.332647  7.826444 -0.592222
  S     3.545696  4.905282  3.375390
  S     3.589417  8.765818  3.377375
