16  
    
  C     6.734843  6.009309  2.345125
  C     7.037278  9.721458  2.323681
  C     5.601004  5.258455  1.861348
  C     5.812211  9.351460  1.695426
  N     7.567085  6.485048  1.412759
  N     8.007908 10.024085  1.470338
  N     5.523726  5.211364  0.535874
  N     5.842940  9.321446  0.353414
  N     5.231690  5.453312  4.417957
  N     5.250766  9.645542  4.258554
  S     4.421432  4.769566  3.126969
  S     4.398016  9.261898  2.767539
  S     6.869387  5.996708 -0.031180
  S     7.360514  9.656610 -0.081546
  S     6.757740  6.094184  4.109895
  S     6.898063  9.880894  4.065514
