16  
    
  C    10.342242  7.622270  2.613737
  C    10.471090 11.353913  2.784019
  C     9.043139  7.373651  1.985822
  C     9.255216 11.338399  2.005066
  N    11.370669  7.552279  1.736548
  N    11.566215 11.262208  2.004817
  N     9.097294  7.162803  0.644529
  N     9.453370 11.100955  0.689494
  N     8.657335  7.754834  4.525669
  N     8.578118 11.264482  4.485257
  S     7.816869  7.235733  3.240643
  S     7.845680 11.439565  3.043622
  S    10.690299  7.210550  0.272564
  S    11.085397 11.075129  0.478539
  S    10.284192  7.910800  4.328005
  S    10.236774 11.631244  4.475872
