16  
    
  C    11.384392  8.811477  3.225582
  C    11.380970 12.346404  3.241475
  C    10.285484  8.019802  2.679113
  C    10.232914 11.820109  2.555149
  N    12.354169  9.092576  2.333571
  N    12.501584 12.459054  2.555857
  N    10.466271  7.654223  1.386677
  N    10.493809 11.761363  1.262283
  N     9.831223  8.381159  5.212027
  N     9.591278 11.771870  5.020439
  S     9.030162  7.762631  3.887767
  S     8.881199 11.348088  3.584334
  S    11.928779  8.265235  0.949321
  S    12.062893 12.214254  0.984952
  S    11.277737  9.080736  4.972057
  S    11.087797 12.478343  4.937639
