16  
    
  C     9.528605  7.588611  2.570808
  C    10.162800 11.395183  2.572698
  C     8.427203  6.757583  2.081792
  C     8.889282 10.892400  1.986819
  N    10.549634  7.889730  1.747894
  N    11.177801 11.433374  1.737301
  N     8.661445  6.390853  0.819651
  N     8.977975 10.755333  0.670589
  N     7.835672  7.429813  4.506502
  N     8.564906 11.077496  4.513532
  S     7.148834  6.559737  3.277039
  S     7.685151 10.717110  3.153620
  S    10.192362  6.994641  0.394330
  S    10.545489 11.036097  0.198979
  S     9.385107  7.927427  4.262461
  S    10.089369 11.603032  4.282469
