16  
    
  C    11.304714  8.534896  3.354448
  C    11.472223 12.227976  3.282521
  C    10.185261  7.914221  2.723687
  C    10.190343 11.738972  2.819747
  N    12.381546  8.616590  2.573111
  N    12.431201 12.343185  2.355415
  N    10.442495  7.492221  1.457187
  N    10.290207 11.294593  1.567233
  N     9.518144  8.375863  5.208817
  N     9.759734 12.300793  5.354655
  S     8.767903  7.809638  3.744015
  S     8.879141 11.781816  4.016166
  S    11.966526  7.928243  1.133795
  S    11.820376 11.625820  1.043352
  S    11.118971  8.869687  5.029509
  S    11.323675 12.791016  4.937875
