16  
    
  C     9.171746  6.947930  2.400244
  C     8.941887 10.794750  2.325181
  C     7.954065  6.378881  1.828052
  C     7.709505 10.278289  1.713019
  N    10.169688  7.073667  1.535662
  N     9.953906 10.904733  1.485721
  N     8.074403  6.299489  0.489310
  N     7.854487 10.100925  0.401600
  N     7.540784  6.861551  4.363384
  N     7.162348 10.740954  4.180443
  S     6.696523  6.392362  3.073000
  S     6.430772 10.023573  2.812459
  S     9.620046  6.773477  0.067337
  S     9.463659 10.521899  0.026910
  S     9.126005  7.302428  4.062638
  S     8.772149 11.162768  4.007811
