16  
    
  C    12.075471  8.634738  3.589413
  C    12.195159 12.193820  3.337034
  C    10.895936  8.266805  2.832564
  C    10.970096 11.733713  2.664749
  N    13.161342  8.716373  2.833510
  N    13.245798 12.339258  2.498530
  N    11.072073  8.033230  1.525928
  N    11.131791 11.500401  1.374381
  N    10.130950  8.306080  5.310610
  N    10.282009 11.917846  5.138963
  S     9.511962  8.033612  3.778082
  S     9.691393 11.247714  3.706463
  S    12.648140  8.396648  1.243220
  S    12.729236 11.775349  1.016966
  S    11.788887  8.756487  5.298192
  S    11.831601 12.510113  5.092035
