16  
    
  C    12.428565  9.101971  3.357468
  C    12.236709 12.812190  3.396232
  C    11.150242  8.665179  2.839188
  C    11.067916 12.244223  2.680386
  N    13.373884  9.198734  2.451796
  N    13.333297 12.837758  2.638750
  N    11.178157  8.387800  1.550619
  N    11.364154 11.782923  1.457257
  N    10.798973  9.187141  5.360509
  N    10.588267 12.561167  5.207534
  S     9.926303  8.663300  4.102005
  S     9.759977 12.004319  3.887661
  S    12.715872  8.646569  1.018767
  S    12.968184 12.211589  1.144369
  S    12.399730  9.561301  5.002264
  S    12.087905 13.170974  5.051453
