16  
    
  C     6.849357  5.742461  1.593999
  C     7.265110 10.041907  2.476725
  C     5.664393  5.179103  0.943680
  C     5.985862  9.521616  1.963676
  N     7.883700  5.801096  0.755400
  N     8.223308 10.051357  1.520545
  N     5.919277  4.667764 -0.261850
  N     6.003193  9.161736  0.672872
  N     4.946937  5.751572  3.346363
  N     5.642027  9.680154  4.447706
  S     4.307563  4.946015  2.053082
  S     4.729561  9.480537  3.121190
  S     7.471680  5.113374 -0.694023
  S     7.586898  9.550580  0.119853
  S     6.543791  6.395031  3.197332
  S     7.174681 10.293984  4.230559
