16  
    
  C     6.693652  5.935512  2.326203
  C     6.919685  9.703498  2.352086
  C     5.542783  5.256815  1.798407
  C     5.705743  9.325768  1.729069
  N     7.580856  6.272585  1.399340
  N     7.879238  9.925928  1.441299
  N     5.433050  5.174143  0.481648
  N     5.680240  9.180774  0.410274
  N     5.161903  5.507611  4.346093
  N     5.166194  9.746127  4.191060
  S     4.382894  4.972866  3.027352
  S     4.389157  9.140936  2.868190
  S     6.822222  5.899908 -0.036117
  S     7.197913  9.727306 -0.031508
  S     6.763864  6.032282  4.085139
  S     6.756232  9.926603  4.092640
