16  
    
  C     4.529824  5.014221  1.703408
  C     4.078333  8.789761  1.644148
  C     3.237501  4.852774  1.075261
  C     3.065416  8.245234  0.812896
  N     5.550760  5.041270  0.800783
  N     5.200325  9.134877  1.025140
  N     3.283745  4.572448 -0.227191
  N     3.296312  8.326717 -0.500414
  N     2.701643  4.982527  3.529700
  N     2.216067  8.092122  3.210017
  S     1.904877  4.645652  2.086121
  S     1.645934  7.688678  1.680027
  S     4.791141  4.819793 -0.690233
  S     4.847941  8.917528 -0.610976
  S     4.386516  5.283882  3.459558
  S     3.826940  8.444974  3.318479
