16  
    
  C     6.017320  5.588629  2.167872
  C     5.967956  9.231470  1.580949
  C     4.660021  5.584776  1.559074
  C     4.734176  8.830137  0.908187
  N     7.036179  5.506778  1.302715
  N     7.055240  9.214010  0.828230
  N     4.696232  5.369603  0.253478
  N     4.902037  8.530189 -0.378223
  N     4.252245  5.829072  4.089738
  N     4.162606  9.003809  3.457578
  S     3.300742  5.718647  2.648234
  S     3.375947  8.786114  2.007906
  S     6.295620  5.290356 -0.201523
  S     6.522852  8.807905 -0.713329
  S     5.938629  5.852405  3.930257
  S     5.801503  9.528435  3.236097
