16  
    
  C     7.854697  6.394369  2.158297
  C     8.055468 10.594913  2.193640
  C     6.640890  5.858540  1.502227
  C     6.904552  9.935507  1.541719
  N     8.854269  6.618453  1.304821
  N     9.092970 10.819304  1.397444
  N     6.744047  5.801432  0.183306
  N     7.125154  9.668319  0.235662
  N     6.175799  5.769389  4.046698
  N     6.357229 10.156764  4.079041
  S     5.346530  5.541502  2.581323
  S     5.618043  9.679780  2.676723
  S     8.275401  6.272811 -0.201521
  S     8.607958 10.208797 -0.143923
  S     7.748423  6.362072  3.886801
  S     7.883008 10.867251  3.902263
