16  
    
  C     9.833491  7.395046  2.521355
  C    10.414145 11.229136  2.635976
  C     8.646092  6.766522  1.938277
  C     9.151371 10.886144  1.974061
  N    10.811426  7.561074  1.648565
  N    11.413325 11.366296  1.762605
  N     8.671586  6.556664  0.611742
  N     9.214596 10.759907  0.640627
  N     8.201590  7.212638  4.487802
  N     8.657651 11.065612  4.501886
  S     7.406256  6.559109  3.184664
  S     7.821968 10.908947  3.063563
  S    10.242037  7.072545  0.173620
  S    10.767530 11.116278  0.176548
  S     9.687801  7.898164  4.143066
  S    10.278486 11.440374  4.314564
