16  
    
  C    10.925092  7.759283  3.146264
  C    11.437353 11.877104  2.990725
  C     9.811912  7.503234  2.336414
  C    10.297912 11.175417  2.421579
  N    12.096053  7.860585  2.498268
  N    12.408920 12.054327  2.101831
  N    10.054781  7.389953  1.022970
  N    10.414574 10.776503  1.140984
  N     8.976915  7.636539  4.825193
  N     9.876982 11.472120  4.968916
  S     8.348365  7.459326  3.242217
  S     9.072851 10.904694  3.616044
  S    11.696587  7.606723  0.876181
  S    11.942455 11.402260  0.720482
  S    10.619072  7.872949  4.853459
  S    11.301515 12.330176  4.634391
