16  
    
  C    12.781651  8.959396  3.829543
  C    12.548456 12.753953  3.992817
  C    11.533715  8.482944  3.240178
  C    11.483806 12.119377  3.238428
  N    13.729026  9.238116  2.915325
  N    13.584664 13.051720  3.220060
  N    11.609173  8.158928  1.950379
  N    11.668007 12.046893  1.934316
  N    11.033295  8.544210  5.675825
  N    10.666851 12.278260  5.644498
  S    10.183004  8.132690  4.297204
  S     9.988919 11.890359  4.146683
  S    13.108509  8.754167  1.405018
  S    13.217402 12.561659  1.692629
  S    12.560992  9.023235  5.602032
  S    12.256195 12.921199  5.699146
