16  
    
  C     4.522328  5.142475  2.028026
  C     4.710765  8.625511  1.475637
  C     3.412092  4.658535  1.232954
  C     3.516792  8.206318  0.786126
  N     5.651408  5.276760  1.343268
  N     5.706747  8.967929  0.677559
  N     3.638614  4.621668 -0.073875
  N     3.695965  8.031706 -0.511944
  N     2.692697  5.030682  3.693018
  N     2.898243  8.351930  3.286085
  S     1.981892  4.462729  2.267405
  S     2.194257  7.887631  1.808308
  S     5.290107  4.894059 -0.235873
  S     5.206977  8.500164 -0.864665
  S     4.352218  5.149422  3.709719
  S     4.522726  8.799740  3.179800
