16  
    
  C     4.558597  5.186763  1.644177
  C     4.417654  8.466010  1.492604
  C     3.305074  4.801125  1.042594
  C     3.225897  7.924806  0.890767
  N     5.518834  5.263121  0.737109
  N     5.455263  8.541446  0.672682
  N     3.323591  4.504869 -0.245193
  N     3.372906  7.672055 -0.409529
  N     2.768254  4.865754  3.560056
  N     2.619390  8.693834  3.265609
  S     2.027020  4.472842  2.124414
  S     1.888396  7.892442  2.026984
  S     4.883364  4.878723 -0.802610
  S     4.918219  8.034931 -0.814301
  S     4.336411  5.442533  3.422507
  S     4.218095  8.887867  3.196355
