16  
    
  C     4.042943  4.678118  1.719408
  C     3.899382  8.397120  1.676827
  C     2.736653  4.331856  1.147219
  C     2.696371  8.045526  0.933202
  N     5.050559  4.600343  0.862991
  N     4.973567  8.448767  0.916028
  N     2.756210  4.050607 -0.146262
  N     2.919334  7.801489 -0.335673
  N     2.199863  4.827223  3.553122
  N     2.015807  8.287363  3.366531
  S     1.360699  4.494934  2.146562
  S     1.280774  7.809587  1.913768
  S     4.336551  4.257566 -0.609624
  S     4.526268  7.980384 -0.577063
  S     3.867767  4.953152  3.426918
  S     3.581745  8.806207  3.331209
