16  
    
  C    11.890481  8.434133  3.224333
  C    11.411819 12.087285  3.516731
  C    10.646843  8.196930  2.558547
  C    10.288838 11.495605  2.789194
  N    12.900980  8.704159  2.411167
  N    12.415000 12.359314  2.709749
  N    10.733058  8.147079  1.213959
  N    10.450457 11.448218  1.463481
  N    10.161087  8.068517  5.141183
  N     9.693732 11.696285  5.325414
  S     9.346090  8.110198  3.729015
  S     8.991864 11.104172  3.959454
  S    12.266245  8.604744  0.893386
  S    11.996744 12.013580  1.168572
  S    11.842684  8.428171  4.970467
  S    11.274810 12.220880  5.250960
