16  
    
  C    10.992584  8.092042  3.068601
  C    11.543849 11.769025  3.197509
  C     9.823578  7.469607  2.630668
  C    10.355862 11.419379  2.441262
  N    11.923462  8.239469  2.151932
  N    12.639526 11.745074  2.430353
  N     9.877480  7.115443  1.357000
  N    10.535072 11.251523  1.124592
  N     9.445240  8.062642  5.093154
  N     9.585419 11.422010  4.943592
  S     8.635148  7.369989  3.847137
  S     8.913277 11.227238  3.396385
  S    11.311551  7.636893  0.787134
  S    12.142636 11.407729  0.908663
  S    11.022125  8.456794  4.792929
  S    11.226810 11.913605  4.886601
