16  
    
  C     7.497841  6.174606  2.157186
  C     7.880454  9.882753  2.293064
  C     6.353982  5.530129  1.579511
  C     6.669983  9.321391  1.754437
  N     8.506745  6.433985  1.310358
  N     8.820386 10.218323  1.410395
  N     6.457048  5.456398  0.261202
  N     6.717803  9.293616  0.411988
  N     5.868501  5.713695  4.153015
  N     6.229941  9.701540  4.283379
  S     5.113385  5.304381  2.749088
  S     5.458255  9.045796  2.982407
  S     7.981749  6.044250 -0.170354
  S     8.272978  9.864306 -0.068788
  S     7.463510  6.238311  3.854781
  S     7.841338 10.156162  3.994175
