16  
    
  C    12.192171  8.928267  3.511530
  C    12.029408 12.578649  3.458129
  C    11.041038  8.476886  2.777473
  C    10.790519 12.214030  2.780876
  N    13.250966  9.244640  2.774242
  N    13.056568 12.429721  2.628138
  N    11.304674  8.394715  1.454990
  N    10.838703 12.141798  1.437778
  N    10.344015  8.751155  5.282197
  N    10.206522 12.159220  5.368501
  S     9.643295  8.342610  3.760826
  S     9.481017 11.858195  3.890660
  S    12.849102  8.839257  1.215207
  S    12.486964 12.339063  1.078369
  S    11.937220  9.218083  5.156135
  S    11.854012 12.699612  5.199642
