16  
    
  C     7.954599  6.351158  2.201982
  C     8.080986 10.178348  2.190256
  C     6.766872  5.881778  1.568401
  C     6.834561  9.800377  1.565300
  N     8.981046  6.531176  1.374519
  N     9.160160 10.280524  1.429737
  N     6.834979  5.893942  0.242139
  N     6.945962  9.696966  0.247164
  N     6.187152  5.958880  4.126181
  N     6.294549 10.024636  4.072359
  S     5.464216  5.478689  2.709131
  S     5.509112  9.605073  2.683183
  S     8.337748  6.278610 -0.171077
  S     8.479419 10.056180 -0.150325
  S     7.849658  6.251296  3.985230
  S     7.877705 10.542951  3.885383
