16  
    
  C    12.531798  8.966159  3.404476
  C    12.245167 12.873548  3.653758
  C    11.340033  8.399606  2.792412
  C    11.114933 12.196019  3.048986
  N    13.602264  9.188492  2.637509
  N    13.168753 13.235035  2.787301
  N    11.485509  8.276304  1.454694
  N    11.266652 12.002720  1.727092
  N    10.814419  8.705604  5.384911
  N    10.604248 12.405335  5.610584
  S     9.982032  8.238979  3.899603
  S     9.820259 11.772714  4.244896
  S    13.096187  8.855749  1.118252
  S    12.744561 12.598253  1.303809
  S    12.490175  9.066292  5.163623
  S    12.099030 13.147016  5.334548
