16  
    
  C    10.979560  7.732633  3.104937
  C    11.102202 11.723860  2.720101
  C     9.678241  7.372969  2.532703
  C     9.895052 11.124638  2.181507
  N    11.926046  7.917310  2.206641
  N    12.095497 11.949526  1.849043
  N     9.734068  7.287929  1.217161
  N     9.978061 10.951283  0.868576
  N     9.340258  7.622825  5.043432
  N     9.420901 11.407955  4.744743
  S     8.481981  7.136102  3.729236
  S     8.567756 11.001736  3.370095
  S    11.226754  7.774698  0.732332
  S    11.497851 11.353776  0.416161
  S    10.915869  7.806986  4.860941
  S    10.943802 12.010973  4.432460
