16  
    
  C    11.899326  8.702296  3.441547
  C    11.749674 11.978614  3.209172
  C    10.726631  8.124672  2.867062
  C    10.489354 11.772461  2.532887
  N    12.956221  8.826353  2.635729
  N    12.752224 12.221275  2.393930
  N    10.884997  7.769837  1.574474
  N    10.581988 11.711898  1.201812
  N    10.294487  8.372475  5.439482
  N    10.207236 11.866302  5.198179
  S     9.471272  7.874992  4.058820
  S     9.310978 11.564624  3.823421
  S    12.441338  8.304952  1.181096
  S    12.181101 11.916338  0.856090
  S    11.918237  8.903736  5.184608
  S    11.778950 12.299376  4.904807
