16  
    
  C     7.336735  6.029466  2.195803
  C     7.802479  9.742219  2.239226
  C     6.184442  5.502790  1.496862
  C     6.561175  9.396241  1.635741
  N     8.369962  6.230844  1.380839
  N     8.745944  9.931655  1.371344
  N     6.313087  5.560341  0.160585
  N     6.581428  9.275367  0.312543
  N     5.623848  5.613924  4.096814
  N     6.232746  9.416704  4.276787
  S     4.858799  5.173706  2.631692
  S     5.285643  9.283266  2.879585
  S     7.916180  5.959084 -0.176184
  S     8.209094  9.601378 -0.133501
  S     7.222222  6.105237  3.926421
  S     7.838020  9.899802  3.944079
