16  
    
  C     9.319065  6.725509  2.436418
  C     9.223842 10.732857  2.947786
  C     8.105105  6.322810  1.758376
  C     7.956752 10.493717  2.306042
  N    10.343402  6.697298  1.561892
  N    10.243213 10.632620  2.115627
  N     8.224157  5.814344  0.528890
  N     8.027516 10.059316  1.027758
  N     7.354917  6.874828  4.169583
  N     7.384900 10.869154  4.794938
  S     6.715936  6.325655  2.769073
  S     6.580412 10.685887  3.351115
  S     9.832601  5.992232  0.151569
  S     9.712905 10.037993  0.694281
  S     8.979324  7.235871  4.116070
  S     9.036025 11.096016  4.654965
