16  
    
  C     6.403662  5.839014  2.013774
  C     6.112575  9.188966  1.770765
  C     5.147945  5.344754  1.407059
  C     4.846205  8.845964  1.124025
  N     7.465502  5.834860  1.211287
  N     7.128715  9.278745  0.938704
  N     5.271831  5.166882  0.093066
  N     4.960890  8.596225 -0.181233
  N     4.663637  5.629453  3.870654
  N     4.402828  8.846569  3.607797
  S     3.772019  5.236768  2.556867
  S     3.533793  8.568041  2.203455
  S     6.887243  5.433152 -0.289784
  S     6.527613  8.937418 -0.569914
  S     6.290892  6.160519  3.726600
  S     5.918339  9.398207  3.493714
