16  
    
  C     9.872206  7.763413  2.824510
  C     9.864385 11.151315  2.866770
  C     8.729337  7.275420  2.146258
  C     8.666636 10.835863  2.188178
  N    10.907063  7.972310  2.006177
  N    10.920656 11.217099  2.060772
  N     8.870505  7.130422  0.831985
  N     8.730998 10.772173  0.858127
  N     7.951173  7.425204  4.534743
  N     8.131548 10.778707  4.692756
  S     7.291681  7.068080  3.095789
  S     7.262991 10.839926  3.291678
  S    10.426046  7.542111  0.466628
  S    10.342062 11.023425  0.554459
  S     9.561727  7.756977  4.552795
  S     9.695783 11.357983  4.633020
