16  
    
  C    12.036337  8.537086  3.615763
  C    12.080400 11.958896  3.352778
  C    10.888737  8.116739  2.824102
  C    10.846964 11.541185  2.699207
  N    13.162753  8.712438  2.937132
  N    13.093293 12.277823  2.529258
  N    11.109914  8.058493  1.518533
  N    11.066421 11.343906  1.387775
  N    10.159370  8.355534  5.368513
  N    10.340458 11.979901  5.131199
  S     9.454026  7.977105  3.887297
  S     9.473444 11.456842  3.875853
  S    12.742685  8.451935  1.357045
  S    12.520851 11.941842  0.980783
  S    11.754061  8.738075  5.293375
  S    11.925845 12.384723  4.995202
