16  
    
  C     4.541309  5.035341  1.689555
  C     4.090923  8.771384  1.645613
  C     3.246588  4.850902  1.057276
  C     3.053294  8.267375  0.809929
  N     5.542802  5.023230  0.777226
  N     5.194970  9.138910  1.013224
  N     3.275657  4.577490 -0.248959
  N     3.298861  8.328599 -0.506072
  N     2.700921  5.005519  3.520393
  N     2.225535  8.079662  3.213910
  S     1.903232  4.629750  2.083073
  S     1.650374  7.689128  1.684925
  S     4.780555  4.823587 -0.706630
  S     4.859626  8.916542 -0.605611
  S     4.386203  5.271529  3.460168
  S     3.805313  8.438760  3.321263
