16  
    
  C     9.180991  6.924542  2.370074
  C     8.984749 10.693402  2.356097
  C     7.956607  6.520574  1.776346
  C     7.798335 10.260233  1.695981
  N    10.181762  7.180860  1.551021
  N    10.003279 10.909290  1.519122
  N     8.008913  6.292727  0.471300
  N     7.891861 10.083601  0.390739
  N     7.541573  6.833346  4.320537
  N     7.158607 10.756942  4.127465
  S     6.640454  6.367611  2.956658
  S     6.431780 10.013489  2.818754
  S     9.587159  6.717918  0.032554
  S     9.429131 10.452040  0.011390
  S     9.108430  7.278705  4.044109
  S     8.791000 11.095357  4.043367
