16  
    
  C    12.813032  9.247075  3.394291
  C    12.657555 12.979841  3.615534
  C    11.668449  8.587891  2.795304
  C    11.482929 12.475847  2.945155
  N    13.805174  9.496834  2.539071
  N    13.735373 13.157605  2.853739
  N    11.771957  8.446516  1.482516
  N    11.769209 12.096421  1.719071
  N    10.890673  9.280663  5.261452
  N    10.868592 12.617265  5.408849
  S    10.196818  8.654490  3.863352
  S    10.158654 12.151459  3.948055
  S    13.301566  8.952556  1.078451
  S    13.270411 12.612588  1.296283
  S    12.567643  9.486595  5.152132
  S    12.455075 13.222976  5.341376
