16  
    
  C     9.780108  7.646297  2.690643
  C     9.808804 11.247831  2.951513
  C     8.578195  7.142921  2.032911
  C     8.667258 10.627337  2.256802
  N    10.843431  7.818940  1.891173
  N    10.868306 11.484769  2.155842
  N     8.708617  6.975096  0.705050
  N     8.867093 10.454783  0.962654
  N     8.077090  7.271381  4.555524
  N     8.052235 10.643968  4.736932
  S     7.255873  6.992348  3.151028
  S     7.350823 10.269008  3.296763
  S    10.281724  7.439940  0.318219
  S    10.413469 11.004888  0.615060
  S     9.652081  7.658810  4.453178
  S     9.543987 11.364417  4.664040
