16  
    
  C    11.339886  8.727719  3.276316
  C    11.461865 12.227686  3.316277
  C    10.242816  8.014838  2.762877
  C    10.306780 11.750615  2.584640
  N    12.371250  8.865853  2.457539
  N    12.500853 12.556161  2.525916
  N    10.415125  7.656809  1.483530
  N    10.526091 11.587037  1.267319
  N     9.668263  8.455338  5.215412
  N     9.596126 11.824001  5.144854
  S     8.960850  7.702500  3.892643
  S     8.962863 11.491038  3.583290
  S    11.893497  8.187111  1.035366
  S    12.084634 12.119917  1.018095
  S    11.158238  9.186027  4.925996
  S    11.087000 12.669101  5.001490
