16  
    
  C    10.655744  8.391972  3.117819
  C    10.805326 11.760264  3.194058
  C     9.499430  7.806869  2.518573
  C     9.602842 11.396643  2.458780
  N    11.696787  8.546595  2.346714
  N    11.849460 12.010289  2.407030
  N     9.632651  7.498199  1.239836
  N     9.729666 11.132387  1.149813
  N     9.066343  8.095660  5.030576
  N     8.827908 11.742631  4.900599
  S     8.220547  7.618633  3.690866
  S     8.188035 11.259399  3.443933
  S    11.213240  8.048227  0.802621
  S    11.379639 11.564584  0.869724
  S    10.506428  8.757999  4.809188
  S    10.449802 12.057148  4.867205
