16  
    
  C     6.000055  4.782750  1.711444
  C     5.941130  9.155882  1.963558
  C     4.796524  4.549789  0.982462
  C     4.754936  8.634205  1.370928
  N     7.052199  5.116499  0.976520
  N     6.952187  9.228995  1.111391
  N     5.006130  4.480011 -0.323705
  N     4.801362  8.465296  0.058181
  N     4.064934  4.759610  3.458191
  N     4.185675  8.858025  3.866084
  S     3.395147  4.359010  1.958813
  S     3.363124  8.500264  2.410167
  S     6.583576  4.809395 -0.570122
  S     6.401966  8.856811 -0.400758
  S     5.743204  5.003782  3.352537
  S     5.727617  9.508837  3.668199
