16  
    
  C    10.336088  7.135997  2.773304
  C    10.291130 10.972830  2.823907
  C     9.047728  7.110624  2.048468
  C     9.026597 10.840051  2.129562
  N    11.379699  7.204320  1.976112
  N    11.319860 11.146542  2.016104
  N     9.119244  7.169177  0.730899
  N     9.112486 10.676395  0.811399
  N     8.565231  7.428023  4.589561
  N     8.505435 10.796062  4.649547
  S     7.736864  7.107495  3.207046
  S     7.692056 10.860327  3.231919
  S    10.799408  7.190260  0.412250
  S    10.713070 10.959869  0.428743
  S    10.241757  7.368886  4.446279
  S    10.191152 11.004607  4.506425
