16  
    
  C     3.503706  4.725328  1.488391
  C     3.549390  8.329218  1.288255
  C     2.365214  4.113833  0.879177
  C     2.298453  8.106991  0.686794
  N     4.551468  4.865925  0.661433
  N     4.546102  8.422507  0.427291
  N     2.445445  3.753741 -0.396554
  N     2.276674  8.108959 -0.643284
  N     1.662956  4.174095  3.278416
  N     1.865064  8.094576  3.226802
  S     0.989456  3.760770  1.824873
  S     1.058061  7.792864  1.851878
  S     3.946162  4.344422 -0.839200
  S     3.886812  8.301664 -1.087218
  S     3.128717  4.975199  3.256019
  S     3.442645  8.626706  3.062079
