16  
    
  C    12.423113  8.890404  3.710891
  C    12.506465 12.822353  3.443172
  C    11.143892  8.431407  3.171029
  C    11.317693 12.243824  2.842356
  N    13.422514  9.021733  2.850744
  N    13.479414 13.072648  2.581197
  N    11.243109  8.012520  1.919767
  N    11.369510 12.110912  1.501226
  N    10.633527  8.930413  5.682215
  N    10.765386 12.681431  5.348798
  S     9.813978  8.482663  4.195543
  S    10.013438 12.155627  4.030146
  S    12.761469  8.518406  1.405232
  S    12.964077 12.512395  1.132507
  S    12.233243  9.349415  5.390136
  S    12.393222 12.788782  5.154736
