16  
    
  C     3.497078  4.770016  1.481587
  C     3.565966  8.279193  1.300082
  C     2.375232  4.085329  0.886744
  C     2.269601  8.142554  0.687520
  N     4.581474  4.821529  0.697473
  N     4.543467  8.430325  0.403505
  N     2.455038  3.756131 -0.398149
  N     2.265969  8.103569 -0.627876
  N     1.695386  4.192053  3.297275
  N     1.868084  8.108352  3.242710
  S     1.007398  3.724729  1.839399
  S     1.070520  7.793174  1.831231
  S     3.960497  4.331256 -0.841254
  S     3.859030  8.303208 -1.098262
  S     3.147378  4.933276  3.237153
  S     3.453838  8.625132  3.036485
