16  
    
  C     9.235105  6.844365  2.372002
  C     9.053740 11.076978  2.907993
  C     7.973269  6.524296  1.755723
  C     7.888200 10.567544  2.303168
  N    10.287497  6.845720  1.546316
  N    10.096764 11.201565  2.097758
  N     8.070638  6.139981  0.488661
  N     8.002693 10.243842  1.022819
  N     7.412619  6.840195  4.193711
  N     7.359478 10.810533  4.802708
  S     6.607284  6.338306  2.814633
  S     6.560822 10.327243  3.423759
  S     9.614758  6.386416  0.063249
  S     9.483365 10.670744  0.615409
  S     9.022484  7.300729  4.043068
  S     8.924360 11.382390  4.612649
