16  
    
  C     6.880691  5.603890  1.797707
  C     7.199417 10.018563  2.448182
  C     5.719864  5.141788  1.048235
  C     5.979418  9.497531  1.895359
  N     8.022380  5.783478  1.100637
  N     8.216359 10.138452  1.574044
  N     6.059446  4.714588 -0.165566
  N     6.049979  9.251743  0.578694
  N     4.745139  6.030125  3.268214
  N     5.621819  9.752714  4.413066
  S     4.232627  5.076654  1.968264
  S     4.642808  9.344041  3.061917
  S     7.646138  5.137484 -0.410438
  S     7.622958  9.712304  0.111230
  S     6.398903  6.206068  3.361996
  S     7.153859 10.233573  4.162002
