16  
    
  C     7.656577  6.277113  2.201965
  C     7.806852 10.111998  2.437038
  C     6.398103  5.873526  1.646498
  C     6.654621  9.474536  1.791596
  N     8.648567  6.441513  1.337400
  N     8.785784 10.526455  1.620358
  N     6.398552  5.782015  0.329901
  N     6.813568  9.311972  0.504248
  N     5.942838  6.146278  4.220573
  N     6.090886  9.508316  4.347348
  S     5.174861  5.561713  2.827023
  S     5.330204  9.198793  2.886690
  S     7.916570  6.102738 -0.175166
  S     8.274555  9.893919  0.088230
  S     7.531908  6.396295  3.972091
  S     7.609426 10.209970  4.191040
