16  
    
  C     8.630337  7.222278  2.543705
  C     9.033073 10.790784  2.110408
  C     7.541324  6.582770  1.879284
  C     7.838933 10.540872  1.405334
  N     9.634727  7.688327  1.800109
  N    10.141718 10.978190  1.373031
  N     7.622059  6.627828  0.532372
  N     7.982041 10.508352  0.074281
  N     7.046999  6.628880  4.435416
  N     7.327860 10.487937  3.960478
  S     6.229070  6.287884  3.034168
  S     6.469196 10.374129  2.549950
  S     9.083248  7.436627  0.249324
  S     9.536262 10.882404 -0.216283
  S     8.608450  7.297246  4.253985
  S     8.930354 10.915906  3.823564
