16  
    
  C    12.020017  8.833808  3.440892
  C    11.801154 12.227205  3.261234
  C    10.844299  8.513100  2.723765
  C    10.499693 12.009728  2.717313
  N    13.106570  9.014991  2.705319
  N    12.790382 12.470316  2.414540
  N    11.018695  8.487129  1.387012
  N    10.544344 11.736608  1.398250
  N    10.234077  8.543282  5.207277
  N    10.322615 12.089556  5.292035
  S     9.428555  8.296366  3.794973
  S     9.340969 11.892897  4.023739
  S    12.672443  8.683243  1.187193
  S    12.116162 12.268800  0.931615
  S    11.837273  8.832206  5.131740
  S    11.903872 12.213274  5.001012
