16  
    
  C    12.796380  9.245739  3.386389
  C    12.647477 13.010253  3.598931
  C    11.656873  8.602166  2.802696
  C    11.496393 12.478718  2.944574
  N    13.807159  9.487367  2.529022
  N    13.737944 13.161914  2.842196
  N    11.750644  8.445588  1.496462
  N    11.768538 12.109805  1.709161
  N    10.897141  9.257788  5.235820
  N    10.861693 12.614586  5.411819
  S    10.212795  8.656342  3.858085
  S    10.174478 12.142901  3.931110
  S    13.290535  8.942981  1.073170
  S    13.271324 12.610961  1.312004
  S    12.561572  9.481479  5.157315
  S    12.433379 13.217178  5.327336
