16  
    
  C     9.163944  6.782345  2.580383
  C     9.678572 10.770811  2.780613
  C     7.977212  6.405225  1.860429
  C     8.473027 10.188590  2.219641
  N    10.201511  7.077535  1.805541
  N    10.619252 11.031018  1.887899
  N     8.153935  6.278257  0.528867
  N     8.523753 10.046955  0.865598
  N     7.340416  6.521990  4.396694
  N     8.079494 10.286952  4.800748
  S     6.646703  5.969137  3.016524
  S     7.294896  9.774041  3.424425
  S     9.743674  6.755003  0.250475
  S     9.985996 10.630664  0.370548
  S     9.008057  6.767113  4.253627
  S     9.587972 10.937101  4.494997
