16  
    
  C     9.786296  7.671929  2.866400
  C     9.892289 11.121191  2.804391
  C     8.658595  7.169751  2.131062
  C     8.640641 10.906268  2.185909
  N    10.858737  7.933718  2.116421
  N    10.925972 11.287557  1.965643
  N     8.848666  6.999547  0.824155
  N     8.705518 10.691938  0.847513
  N     7.813242  7.610460  4.520145
  N     8.130006 10.909372  4.746201
  S     7.280212  6.868663  3.099721
  S     7.289347 10.906249  3.278238
  S    10.406815  7.504623  0.543590
  S    10.310825 10.988762  0.454876
  S     9.502965  7.832340  4.599811
  S     9.757141 11.251815  4.535947
