16  
    
  C     4.268918  5.039792  1.112241
  C     4.437576  8.355649  1.417029
  C     2.999262  4.794619  0.500440
  C     3.243398  7.867371  0.711073
  N     5.341071  5.036592  0.355518
  N     5.434379  8.661266  0.589875
  N     3.115652  4.576019 -0.829557
  N     3.423667  7.744639 -0.595999
  N     2.725519  4.689197  3.058345
  N     2.518156  8.259757  3.106065
  S     1.749725  4.690889  1.745594
  S     1.867638  7.697411  1.705475
  S     4.794744  4.803979 -1.150626
  S     4.934766  8.297512 -0.909144
  S     4.284057  5.223829  2.785181
  S     4.153823  8.383328  3.130747
