16  
    
  C     8.607848  7.292770  2.673454
  C     8.885940 11.040339  2.225370
  C     7.475600  6.518236  2.140565
  C     7.735901 10.534322  1.519261
  N     9.617594  7.505753  1.849431
  N     9.948715 11.397772  1.511802
  N     7.519636  6.348640  0.818374
  N     7.898955 10.627793  0.206417
  N     7.115482  6.992092  4.664562
  N     7.235310 10.416835  4.103030
  S     6.369677  6.180034  3.429019
  S     6.467443 10.115845  2.651617
  S     9.083051  6.872780  0.408215
  S     9.403377 11.156935 -0.066709
  S     8.711080  7.511779  4.355084
  S     8.788214 11.093806  3.972920
