16  
    
  C     3.667709  4.653661  1.594721
  C     3.833656  8.325873  1.685785
  C     2.447366  4.092091  0.983476
  C     2.581841  7.962194  1.050029
  N     4.598748  5.010766  0.731124
  N     4.814246  8.530267  0.832740
  N     2.433992  4.071721 -0.349376
  N     2.652317  7.834187 -0.252049
  N     1.874952  4.330072  3.465345
  N     2.147071  8.032574  3.590093
  S     1.196847  3.717709  2.063236
  S     1.313032  7.874773  2.171539
  S     3.977693  4.636484 -0.779457
  S     4.237552  8.212282 -0.651495
  S     3.486099  4.787303  3.346225
  S     3.776820  8.411240  3.412817
