16  
    
  C    10.151880  7.415171  2.620053
  C    10.384457 11.001933  2.703332
  C     8.942412  6.957973  2.029764
  C     9.127690 10.968304  2.039074
  N    11.076142  7.596222  1.676130
  N    11.436400 10.943126  1.863031
  N     8.974725  6.699126  0.719270
  N     9.156392 10.991780  0.691583
  N     8.399805  7.316617  4.451250
  N     8.603649 10.933345  4.579015
  S     7.633928  6.771587  3.107222
  S     7.733335 10.936391  3.145366
  S    10.480294  7.063619  0.222890
  S    10.782738 10.989688  0.354402
  S    10.023096  7.548765  4.360866
  S    10.231149 11.090010  4.446918
