16  
    
  C     3.502652  4.453501  1.493192
  C     3.535931  8.481893  1.288919
  C     2.352429  3.863892  0.862177
  C     2.366945  7.960619  0.715339
  N     4.517324  4.878729  0.728443
  N     4.554096  8.649467  0.468599
  N     2.581454  3.528614 -0.407660
  N     2.388485  7.996512 -0.621855
  N     2.041987  3.857006  3.532413
  N     1.929950  8.221213  3.267103
  S     1.147660  3.416190  2.127882
  S     1.127233  7.725966  1.892234
  S     4.087418  4.306877 -0.759501
  S     3.973638  8.422637 -1.058239
  S     3.471929  4.597486  3.190857
  S     3.470251  8.608186  3.072339
