16  
    
  C     9.932893  7.662080  2.680452
  C     9.891117 11.344032  3.002202
  C     8.666604  7.348337  2.039499
  C     8.774591 10.677841  2.307730
  N    10.910497  7.675499  1.783379
  N    10.936763 11.585442  2.170393
  N     8.660091  7.231878  0.704870
  N     8.960629 10.501251  0.984460
  N     8.194611  7.415374  4.528356
  N     8.053122 10.895046  4.721541
  S     7.351199  7.182370  3.132243
  S     7.376312 10.425400  3.281004
  S    10.238876  7.542906  0.238251
  S    10.478730 11.120951  0.678944
  S     9.798428  7.759436  4.431748
  S     9.607198 11.435777  4.670757
