16  
    
  C     6.923749  5.761215  2.086543
  C     7.266466  9.921957  2.418831
  C     5.846635  5.374795  1.203777
  C     6.039423  9.508448  1.780450
  N     8.109720  5.861254  1.494891
  N     8.257261 10.157279  1.558973
  N     6.193771  5.000124 -0.022214
  N     6.087828  9.388641  0.457865
  N     4.697507  5.904599  3.440510
  N     5.439102  9.760543  4.221804
  S     4.275933  5.249603  1.960298
  S     4.666665  9.288584  2.859250
  S     7.813871  5.260535 -0.059191
  S     7.601352  9.739424  0.019286
  S     6.304666  6.105257  3.644217
  S     7.089773 10.077789  4.159807
