16  
    
  C     9.414710  7.037336  2.975068
  C     9.582722 10.810639  2.611627
  C     8.286814  6.449559  2.277532
  C     8.368784 10.292762  1.979930
  N    10.414532  7.457868  2.182886
  N    10.578797 11.122910  1.759722
  N     8.406904  6.521234  0.957825
  N     8.462762 10.337081  0.656898
  N     7.715894  6.431104  4.753053
  N     7.948992 10.354857  4.490784
  S     6.987111  6.006644  3.305393
  S     7.133848  9.971682  3.119088
  S     9.898252  7.147569  0.642396
  S     9.962697 10.844748  0.224156
  S     9.253557  6.945010  4.706539
  S     9.521269 10.888502  4.350180
