16  
    
  C     6.710465  5.810608  2.223228
  C     6.779312  9.737796  2.311869
  C     5.394676  5.427092  1.702439
  C     5.496577  9.267111  1.743506
  N     7.646907  6.109223  1.307007
  N     7.706963  9.973480  1.407750
  N     5.443446  5.323635  0.377658
  N     5.531951  9.194769  0.409727
  N     5.109200  5.514263  4.268445
  N     5.170351  9.532950  4.264506
  S     4.154616  5.136004  2.956126
  S     4.239155  9.091206  2.962301
  S     6.965060  5.745091 -0.169848
  S     7.132748  9.568807 -0.038204
  S     6.748157  6.009882  3.966173
  S     6.753864  9.913295  4.012063
