16  
    
  C     7.430975  5.947593  2.181680
  C     7.859883  9.816134  2.205848
  C     6.197921  5.586250  1.528911
  C     6.574240  9.426645  1.658062
  N     8.443529  6.316657  1.378215
  N     8.875365  9.978929  1.358931
  N     6.278155  5.452722  0.213918
  N     6.633611  9.304714  0.330512
  N     5.677358  5.672901  4.009193
  N     6.340831  9.345824  4.173090
  S     4.965651  5.164597  2.657438
  S     5.363777  9.253927  2.890135
  S     7.858049  5.980150 -0.154046
  S     8.147273  9.581231 -0.145850
  S     7.259677  6.124708  3.909570
  S     7.874280  9.988462  3.967126
