16  
    
  C     4.270329  4.841531  1.596045
  C     4.146037  8.397150  1.449052
  C     2.989220  4.653819  0.984321
  C     2.920027  7.842301  0.814955
  N     5.272416  4.848732  0.726525
  N     5.172877  8.534859  0.643222
  N     2.994189  4.317427 -0.280826
  N     3.078736  7.682797 -0.484857
  N     2.388155  4.675847  3.422941
  N     2.301723  8.344371  3.253700
  S     1.670643  4.422989  1.949922
  S     1.523682  7.950946  1.808869
  S     4.550201  4.519136 -0.788708
  S     4.635310  8.086256 -0.866775
  S     4.020990  5.004586  3.330706
  S     3.970848  8.637187  3.145071
