16  
    
  C     5.625487  5.447661  1.885675
  C     5.384048  8.875009  1.764525
  C     4.344521  4.982084  1.417827
  C     4.234255  8.378139  1.029275
  N     6.560586  5.545566  0.950444
  N     6.421194  9.144934  0.991415
  N     4.207556  4.901259  0.097000
  N     4.468739  8.197923 -0.265082
  N     4.067094  5.155514  3.960426
  N     3.427641  8.891420  3.424433
  S     3.147331  4.772292  2.641910
  S     2.879703  8.082135  2.083809
  S     5.703826  5.311383 -0.517925
  S     6.060173  8.712321 -0.567197
  S     5.637549  5.477978  3.680088
  S     5.124218  9.172100  3.462807
