16  
    
  C    10.983100  7.732207  3.145965
  C    11.443117 11.725764  2.891332
  C     9.776988  7.593496  2.377449
  C    10.235989 11.094947  2.437437
  N    12.138289  7.709520  2.464005
  N    12.343453 12.030878  1.939959
  N     9.959575  7.492914  1.052670
  N    10.220935 10.868882  1.130312
  N     9.044706  7.550894  4.927103
  N     9.590496 11.740638  4.837511
  S     8.353986  7.345156  3.355022
  S     8.910984 10.896964  3.545578
  S    11.610550  7.650212  0.826397
  S    11.732603 11.382419  0.542866
  S    10.689306  7.672958  4.863181
  S    11.183023 12.216595  4.565616
