16  
    
  C    11.367497  8.329757  3.337469
  C    11.439410 12.025084  3.324845
  C    10.177480  7.872019  2.718592
  C    10.103918 11.732151  2.852944
  N    12.498115  8.350004  2.595812
  N    12.323116 12.023138  2.330245
  N    10.363322  7.522504  1.434568
  N    10.014552 11.374454  1.578967
  N     9.423994  8.319072  5.140398
  N     9.889361 12.065658  5.418698
  S     8.720686  7.803695  3.683717
  S     8.899581 11.840735  4.072552
  S    11.935479  7.852845  1.078325
  S    11.567937 11.419375  1.022479
  S    11.119043  8.629127  5.058918
  S    11.433754 12.610774  4.950579
