16  
    
  C     7.021177  5.884437  1.798412
  C     7.266068  9.826073  2.486399
  C     5.897599  5.185536  1.238900
  C     6.010945  9.436948  1.916444
  N     7.929994  6.218830  0.881848
  N     8.298872  9.828107  1.644967
  N     6.073149  4.801204 -0.010392
  N     6.084415  9.199452  0.604441
  N     5.227344  5.834616  3.666914
  N     5.540394  9.911610  4.376020
  S     4.594248  4.993413  2.350537
  S     4.696550  9.562147  2.990793
  S     7.474053  5.507917 -0.547591
  S     7.671131  9.388961  0.172954
  S     6.717252  6.406761  3.400480
  S     7.134109 10.178714  4.174797
