16  
    
  C    12.761039  8.819965  3.849718
  C    12.617757 12.778916  3.865967
  C    11.485708  8.379108  3.253652
  C    11.475257 12.247740  3.116805
  N    13.696042  9.263664  3.031563
  N    13.712815 12.902136  3.138937
  N    11.556498  8.338354  1.929608
  N    11.748246 12.038261  1.833057
  N    11.120515  8.591886  5.743610
  N    10.749402 12.370392  5.623796
  S    10.269871  8.072904  4.420661
  S    10.166678 11.844390  4.200146
  S    13.103527  8.934830  1.520773
  S    13.305206 12.526372  1.589534
  S    12.600146  9.120343  5.539973
  S    12.399043 12.659347  5.601807
