16  
    
  C     5.606685  5.432061  1.954692
  C     5.615396  8.966248  1.899750
  C     4.476862  4.651919  1.460449
  C     4.422552  8.509964  1.273738
  N     6.540550  5.683675  1.047950
  N     6.625416  9.226912  1.092403
  N     4.515190  4.414088  0.147603
  N     4.512429  8.383654 -0.041683
  N     4.036547  4.971192  3.901220
  N     3.942055  8.499745  3.830891
  S     3.250475  4.314018  2.607422
  S     3.150677  8.068061  2.397420
  S     5.948326  5.032607 -0.403303
  S     6.110669  8.910261 -0.453834
  S     5.508361  5.705335  3.703129
  S     5.437084  9.118643  3.586935
