16  
    
  C    12.874674  9.001239  3.479419
  C    12.744840 12.790955  3.437112
  C    11.563827  8.518727  2.971842
  C    11.569012 12.244039  2.772499
  N    13.690952  9.327324  2.473149
  N    13.805000 12.973512  2.650789
  N    11.516495  8.343013  1.662328
  N    11.775172 12.067073  1.473461
  N    11.089480  9.068958  5.422859
  N    11.022709 12.360248  5.254989
  S    10.258889  8.375632  4.179513
  S    10.239167 11.955543  3.839911
  S    12.946444  8.859398  1.071218
  S    13.293500 12.552615  1.044316
  S    12.734784  9.325087  5.203595
  S    12.559763 12.929278  5.193615
