16  
    
  C     7.325108  6.017062  2.226378
  C     7.764563  9.605366  2.347561
  C     6.178961  5.525817  1.528101
  C     6.461915  9.333293  1.742112
  N     8.391234  6.194024  1.460130
  N     8.736513  9.789839  1.464841
  N     6.348120  5.463854  0.222896
  N     6.520225  9.275765  0.428042
  N     5.435050  5.664431  3.946911
  N     5.905210  9.761787  4.195780
  S     4.790025  5.234233  2.402403
  S     5.119097  9.264845  2.735280
  S     7.873399  5.910258 -0.087585
  S     8.085235  9.622835 -0.041228
  S     7.039931  6.020757  3.951450
  S     7.574214  9.760128  4.096928
