16  
    
  C     6.722028  5.831526  2.014695
  C     6.708759  9.531622  2.144075
  C     5.443446  5.442128  1.490929
  C     5.433056  9.156277  1.627660
  N     7.717938  5.845389  1.131297
  N     7.649733  9.791855  1.259723
  N     5.458284  5.451594  0.165657
  N     5.394745  9.005790  0.304263
  N     5.034745  5.709936  3.954820
  N     5.102321  9.290055  4.141988
  S     4.074244  5.356026  2.579117
  S     4.175314  9.084846  2.830148
  S     7.032497  5.582649 -0.375588
  S     6.914977  9.364087 -0.230557
  S     6.661068  5.958464  3.793324
  S     6.689535  9.837047  3.854258
