16  
    
  C    11.239883  8.186567  3.226378
  C    11.468081 11.631231  3.265819
  C    10.026414  7.805936  2.626241
  C    10.122184 11.390200  2.740506
  N    12.285810  8.139579  2.384758
  N    12.448359 11.725850  2.336010
  N    10.083262  7.476309  1.347254
  N    10.144876 11.338808  1.418504
  N     9.481902  8.207104  5.095657
  N     9.729094 11.885909  5.146241
  S     8.695437  7.630620  3.779340
  S     8.789551 11.675534  3.824857
  S    11.645769  7.706315  0.910846
  S    11.718910 11.472828  0.921446
  S    11.132270  8.464893  4.940742
  S    11.344638 11.971311  4.997746
