16  
    
  C     3.564968  4.673226  1.525619
  C     3.809272  8.349139  1.669575
  C     2.350003  4.394974  0.862119
  C     2.593200  7.888768  1.092754
  N     4.603774  5.014928  0.787272
  N     4.879406  8.301498  0.890006
  N     2.563065  4.315388 -0.445519
  N     2.632848  7.730721 -0.232901
  N     2.004804  4.329266  3.448139
  N     2.153777  8.299530  3.594838
  S     1.050149  4.219612  2.037624
  S     1.304617  7.876923  2.213294
  S     4.130064  4.655809 -0.748276
  S     4.220501  7.942544 -0.629256
  S     3.565539  4.875086  3.200515
  S     3.744367  8.694538  3.391067
