16  
    
  C     9.976936  7.588367  2.670136
  C     9.882897 11.262516  3.003614
  C     8.687725  7.365762  2.054227
  C     8.694258 10.813305  2.254363
  N    10.994135  7.740869  1.804211
  N    10.931303 11.548535  2.211441
  N     8.713657  7.300070  0.719177
  N     8.936710 10.628093  0.938807
  N     8.149911  7.359090  4.601807
  N     7.975056 11.099523  4.715645
  S     7.353812  7.209959  3.124423
  S     7.380383 10.501678  3.286299
  S    10.269532  7.554510  0.277773
  S    10.490122 11.109831  0.623291
  S     9.756949  7.777812  4.421668
  S     9.639985 11.396340  4.698695
