16  
    
  C    11.377811  8.397089  3.374857
  C    11.420970 12.120765  3.299544
  C    10.186169  7.891785  2.703378
  C    10.124381 11.709490  2.847519
  N    12.416320  8.458870  2.551363
  N    12.362004 12.012338  2.358293
  N    10.418073  7.529231  1.467645
  N    10.036162 11.302016  1.574618
  N     9.476054  8.304090  5.166069
  N     9.939007 12.059801  5.315209
  S     8.761328  7.831590  3.688398
  S     8.940456 11.852295  4.064285
  S    11.955533  7.839452  1.089033
  S    11.582868 11.480592  1.037197
  S    11.080333  8.666470  5.064048
  S    11.393466 12.724567  5.008212
