16  
    
  C     9.583731  7.647039  2.698494
  C    10.131475 11.189534  2.632202
  C     8.437344  6.934317  2.103882
  C     8.816716 10.869156  2.043519
  N    10.633005  7.785502  1.892645
  N    11.108065 11.319769  1.755917
  N     8.684872  6.471736  0.887097
  N     8.868503 10.745051  0.744080
  N     7.843799  7.211807  4.603082
  N     8.427452 10.995937  4.587788
  S     7.181121  6.629692  3.167170
  S     7.526352 10.761483  3.184385
  S    10.167359  7.046963  0.444344
  S    10.430645 11.067976  0.267792
  S     9.319548  8.051231  4.411761
  S     9.993387 11.545707  4.339660
