16  
    
  C     6.724112  6.035084  2.353832
  C     7.045935  9.723599  2.320345
  C     5.609451  5.251825  1.860127
  C     5.801364  9.367095  1.684090
  N     7.572888  6.488502  1.419961
  N     8.008811 10.022550  1.463973
  N     5.521522  5.214326  0.523224
  N     5.846533  9.320532  0.346683
  N     5.228927  5.440104  4.414664
  N     5.264206  9.627399  4.248065
  S     4.437589  4.766214  3.134652
  S     4.402184  9.272138  2.766690
  S     6.872538  6.001654 -0.021152
  S     7.380084  9.651284 -0.076657
  S     6.752425  6.096812  4.101209
  S     6.909374  9.878086  4.060874
