16  
    
  C     4.739767  4.952048  1.944999
  C     4.719946  8.909401  1.680662
  C     3.519404  4.624251  1.238327
  C     3.447968  8.584497  1.094860
  N     5.842879  5.016186  1.207172
  N     5.668869  9.230816  0.794689
  N     3.735951  4.553258 -0.083165
  N     3.433093  8.522340 -0.236817
  N     2.991525  4.797342  3.769883
  N     3.127921  8.210356  3.658280
  S     2.120112  4.425045  2.423240
  S     2.257739  8.009388  2.249113
  S     5.384449  4.775942 -0.329893
  S     4.986458  9.020042 -0.706690
  S     4.621152  4.991947  3.649437
  S     4.627875  8.849100  3.436498
