16  
    
  C    10.820637  8.360269  3.284321
  C    10.695234 11.891807  3.255033
  C     9.672281  7.690391  2.660930
  C     9.551548 11.290900  2.632759
  N    11.802507  8.520505  2.426777
  N    11.683872 12.103619  2.412651
  N     9.836000  7.356185  1.389613
  N     9.617393 11.237263  1.301158
  N     9.077166  7.950030  5.244795
  N     9.069430 11.479095  5.167572
  S     8.353463  7.497083  3.773667
  S     8.245910 11.066574  3.792274
  S    11.322805  7.995955  0.951721
  S    11.101539 11.698231  0.892720
  S    10.634384  8.675125  4.982982
  S    10.572864 12.137583  4.982987
