16  
    
  C     5.054789  5.358368  1.884440
  C     5.110994  8.719777  1.440476
  C     3.819031  4.960224  1.298023
  C     3.823498  8.311029  0.876241
  N     6.098084  5.354921  1.057733
  N     6.083955  8.797584  0.538539
  N     3.901308  4.591349  0.018668
  N     3.912314  8.093019 -0.438528
  N     3.376952  5.807648  3.773261
  N     3.400591  8.823649  3.375730
  S     2.518384  5.226869  2.458455
  S     2.534549  8.340158  2.046747
  S     5.533619  4.663191 -0.327190
  S     5.417613  8.395258 -0.932305
  S     5.028265  5.763231  3.575698
  S     5.042209  8.984293  3.175552
