16  
    
  C     5.704632  5.173129  1.940407
  C     5.709656  9.105898  1.991171
  C     4.561811  4.500678  1.351691
  C     4.512954  8.483284  1.421782
  N     6.698336  5.440256  1.105964
  N     6.646024  9.469280  1.111971
  N     4.694665  4.271699  0.050496
  N     4.605938  8.334901  0.101864
  N     3.942585  4.899086  3.861678
  N     3.978682  8.753727  3.975765
  S     3.246975  4.210943  2.420980
  S     3.288479  8.102987  2.638408
  S     6.181156  4.892823 -0.376774
  S     5.990621  9.016591 -0.370014
  S     5.496273  5.558332  3.635217
  S     5.605578  9.264778  3.703363
