16  
    
  C     4.889848  4.790942  1.620523
  C     4.863575  8.722717  1.777572
  C     3.557277  4.564014  1.157834
  C     3.533082  8.378583  1.274021
  N     5.826433  4.940365  0.701883
  N     5.741866  8.991112  0.824002
  N     3.466034  4.653556 -0.185031
  N     3.429376  8.220211 -0.033815
  N     3.591750  4.685845  3.761305
  N     3.265325  8.680189  3.826256
  S     2.512387  4.423163  2.550487
  S     2.322550  8.294169  2.493703
  S     5.036662  4.813291 -0.718238
  S     4.954911  8.633013 -0.650173
  S     5.150306  4.786168  3.309255
  S     4.901806  8.978935  3.518179
