16  
    
  C    10.800897  8.368189  3.269233
  C    10.704058 11.893973  3.260950
  C     9.667208  7.709127  2.667482
  C     9.512914 11.360247  2.623795
  N    11.812547  8.573445  2.402174
  N    11.699197 12.068003  2.408984
  N     9.822165  7.400058  1.379089
  N     9.636998 11.254741  1.306833
  N     9.035523  8.008750  5.206933
  N     9.046728 11.513284  5.151324
  S     8.363133  7.501422  3.775492
  S     8.251987 11.062562  3.782541
  S    11.289329  7.980324  0.967839
  S    11.148208 11.677349  0.893260
  S    10.609387  8.696044  4.990714
  S    10.542594 12.113814  4.951424
