16  
    
  C    10.534593  7.310440  2.732446
  C    10.336771 11.318603  2.670050
  C     9.229432  7.325177  2.135428
  C     9.120354 10.947251  2.023708
  N    11.477710  7.288552  1.832771
  N    11.380932 11.295402  1.890185
  N     9.123566  7.296226  0.817480
  N     9.181047 10.700675  0.731148
  N     8.851750  7.612064  4.645276
  N     8.589130 11.236500  4.527456
  S     7.940357  7.590109  3.248038
  S     7.742974 11.094173  3.124777
  S    10.732417  7.200821  0.310031
  S    10.786847 10.913431  0.315907
  S    10.457376  7.500686  4.494358
  S    10.220361 11.461335  4.395992
