16  
    
  C     5.993764  5.086137  1.609889
  C     5.981302  9.153560  1.954923
  C     4.757720  4.748409  0.987118
  C     4.742825  8.740706  1.363712
  N     7.024361  5.222246  0.774001
  N     7.009988  9.213971  1.122124
  N     4.909540  4.462869 -0.306113
  N     4.860269  8.441845  0.072589
  N     4.184462  4.715816  3.546472
  N     4.207154  8.830448  3.876194
  S     3.436205  4.487247  2.050050
  S     3.387252  8.597458  2.425140
  S     6.448421  4.829649 -0.756074
  S     6.478076  8.751965 -0.354055
  S     5.808572  5.036272  3.378652
  S     5.852998  9.245905  3.662688
