16  
    
  C    12.026239  8.590430  3.331965
  C    11.966605 12.127974  3.227007
  C    10.777256  8.320522  2.734527
  C    10.664359 11.940310  2.669737
  N    13.036441  8.723378  2.430621
  N    12.867830 12.210540  2.265065
  N    10.774464  8.395376  1.404243
  N    10.507788 11.786883  1.379839
  N    10.310091  8.422474  5.221801
  N    10.308631 12.034479  5.171363
  S     9.461281  8.245363  3.840808
  S     9.383456 11.720364  3.829000
  S    12.314888  8.608609  0.920261
  S    12.071022 12.046812  0.823083
  S    11.893323  8.712340  5.101466
  S    11.932814 12.246360  4.988378
