16  
    
  C     4.972332  4.872138  1.775356
  C     4.687831  8.852423  1.727059
  C     3.642549  4.598253  1.248077
  C     3.411226  8.494397  1.202155
  N     5.893942  4.886300  0.796328
  N     5.604388  9.234181  0.855773
  N     3.562932  4.440012 -0.061944
  N     3.338235  8.429132 -0.117097
  N     3.299670  4.457011  3.727969
  N     3.190719  8.517685  3.775853
  S     2.365932  4.449412  2.376535
  S     2.200030  8.195907  2.431217
  S     5.031767  4.744262 -0.637752
  S     4.883321  8.941149 -0.648314
  S     4.856020  4.892720  3.556596
  S     4.798717  8.848999  3.468911
