16  
    
  C     9.251469  6.840033  2.386885
  C     9.078920 11.050101  2.926993
  C     8.000003  6.519210  1.763928
  C     7.894195 10.560059  2.330264
  N    10.289468  6.834287  1.527318
  N    10.096326 11.192465  2.091294
  N     8.081900  6.113746  0.496087
  N     7.997011 10.220792  1.031384
  N     7.398100  6.860303  4.193988
  N     7.371509 10.812666  4.808175
  S     6.617865  6.328735  2.818713
  S     6.560345 10.341380  3.433817
  S     9.606425  6.361405  0.067148
  S     9.485197 10.664692  0.626792
  S     9.020024  7.301934  4.048137
  S     8.920484 11.379135  4.620467
