16  
    
  C     7.634016  6.273765  2.277308
  C     7.759528 10.042267  2.477336
  C     6.328546  5.869154  1.739245
  C     6.575175  9.585967  1.711473
  N     8.550498  6.461680  1.353548
  N     8.799830 10.258849  1.698408
  N     6.310428  5.817022  0.415128
  N     6.733559  9.478980  0.407107
  N     6.028042  6.383488  4.294574
  N     5.923485  9.693978  4.261372
  S     5.100586  5.836774  2.976318
  S     5.215660  9.312316  2.805776
  S     7.799420  6.197280 -0.106152
  S     8.314954  9.900717  0.139578
  S     7.697049  6.591492  3.981184
  S     7.513995 10.317806  4.155904
