16  
    
  C     7.647766  6.526075  2.287235
  C     7.810456 10.022649  2.452862
  C     6.363491  6.028858  1.851042
  C     6.602031  9.639746  1.720023
  N     8.584630  6.552223  1.320717
  N     8.876939 10.136738  1.662007
  N     6.240030  5.793405  0.547114
  N     6.738698  9.561497  0.380240
  N     6.091292  6.328660  4.394234
  N     5.798011  9.948392  4.139552
  S     5.104801  6.033513  3.053238
  S     5.164726  9.459751  2.681172
  S     7.750890  6.106358 -0.097363
  S     8.272379  9.862171  0.045137
  S     7.670235  6.700017  4.033764
  S     7.431280 10.293766  4.130779
