16  
    
  C     8.937985  6.980954  2.246065
  C     9.002597 10.552894  2.421271
  C     7.722138  6.573581  1.574594
  C     7.780151 10.090266  1.798766
  N     9.956792  7.225297  1.444319
  N    10.008708 10.716567  1.622254
  N     7.900446  6.329237  0.268671
  N     7.898469  9.809474  0.496930
  N     7.192697  6.711145  4.123138
  N     7.294436 10.388609  4.269021
  S     6.424544  6.303082  2.747342
  S     6.425426 10.098278  2.877350
  S     9.458528  6.740419 -0.094329
  S     9.462863 10.233957  0.056550
  S     8.797199  7.225542  3.926585
  S     8.905019 10.782983  4.117707
