16  
    
  C     7.680340  6.384447  2.290028
  C     7.807904 10.007956  2.449137
  C     6.339768  6.019548  1.840586
  C     6.610160  9.602730  1.750232
  N     8.547569  6.540935  1.306185
  N     8.846460 10.172560  1.633068
  N     6.230160  5.791503  0.558552
  N     6.708808  9.575206  0.455929
  N     6.096354  6.333646  4.340009
  N     5.846360  9.886669  4.165002
  S     5.144054  5.988797  3.037888
  S     5.193012  9.405662  2.715225
  S     7.763369  6.143125 -0.111606
  S     8.299481  9.868056  0.066945
  S     7.634680  6.660800  4.016406
  S     7.418587 10.303989  4.152074
