16  
    
  C    11.781072  8.695447  3.456269
  C    11.506495 12.157470  3.277839
  C    10.566008  8.284433  2.854928
  C    10.382170 11.643131  2.522573
  N    12.797957  8.778595  2.607526
  N    12.585037 12.475667  2.547198
  N    10.652472  8.041480  1.555552
  N    10.633707 11.441223  1.236020
  N    10.116779  8.692048  5.398735
  N     9.573019 11.984884  4.991444
  S     9.278504  8.324225  4.027903
  S     9.057446 11.237613  3.555221
  S    12.218040  8.464106  1.065483
  S    12.256619 12.035701  1.025269
  S    11.749863  9.046871  5.191712
  S    11.195084 12.550643  4.897768
