16  
    
  C    10.918507  8.140410  2.951696
  C    10.885653 11.610212  2.784864
  C     9.744756  7.472796  2.521004
  C     9.648890 11.190600  2.148713
  N    11.831637  8.307506  2.021363
  N    11.840993 11.896387  1.936892
  N     9.734085  7.130389  1.235960
  N     9.756237 11.095408  0.829792
  N     9.540287  7.645201  5.188532
  N     9.197899 11.466300  4.703963
  S     8.694705  7.045510  3.842332
  S     8.395775 10.915997  3.351727
  S    11.155640  7.722379  0.643235
  S    11.321141 11.453484  0.389376
  S    11.014491  8.374630  4.734590
  S    10.810832 11.705089  4.487218
