16  
    
  C     4.534331  5.014880  1.638531
  C     4.318240  8.644694  1.488822
  C     3.288222  4.681861  1.031076
  C     3.116844  7.980321  0.933480
  N     5.536267  5.216983  0.798235
  N     5.345221  8.685042  0.630992
  N     3.344217  4.539149 -0.294403
  N     3.268589  7.699386 -0.359049
  N     2.826401  4.842870  3.530128
  N     2.632259  8.427243  3.398669
  S     1.959574  4.579476  2.124581
  S     1.771526  7.955313  2.002717
  S     4.955347  4.865235 -0.682598
  S     4.797656  8.103064 -0.763859
  S     4.335153  5.502636  3.249852
  S     4.201762  8.874073  3.185205
