16  
    
  C    11.349082  8.760599  3.247811
  C    11.374654 12.311890  3.309886
  C    10.234727  8.011142  2.686084
  C    10.264665 11.787321  2.525884
  N    12.320659  9.013354  2.405416
  N    12.504240 12.443734  2.629844
  N    10.382151  7.635257  1.440079
  N    10.506647 11.645467  1.233614
  N     9.729794  8.401828  5.251488
  N     9.670733 11.771189  5.000889
  S     9.023771  7.747563  3.887641
  S     8.904244 11.409517  3.595090
  S    11.942140  8.221933  0.996581
  S    12.084776 12.202942  0.988925
  S    11.220591  9.146616  4.941415
  S    11.090511 12.586789  4.974013
