16  
    
  C    11.970180  8.635252  3.398939
  C    11.809610 12.050898  3.204272
  C    10.754625  8.051189  2.905218
  C    10.508755 11.733957  2.614989
  N    12.868235  8.800142  2.422987
  N    12.780901 12.251017  2.305862
  N    10.712431  7.766841  1.586156
  N    10.548698 11.582596  1.322687
  N    10.291139  8.530314  5.442608
  N     9.970412 11.946817  5.110876
  S     9.508758  7.934348  4.098539
  S     9.170650 11.490176  3.664111
  S    12.192312  8.291435  1.015238
  S    11.996310 12.032334  0.794297
  S    11.885728  9.029319  5.106165
  S    11.581822 12.362744  4.906935
