16  
    
  C    12.734423  9.199509  3.684390
  C    12.831122 12.496754  3.536899
  C    11.549558  8.572577  3.214250
  C    11.587347 12.165604  2.922819
  N    13.660663  9.395831  2.768804
  N    13.843329 12.697003  2.693824
  N    11.474631  8.445461  1.924809
  N    11.625862 12.058822  1.604838
  N    11.220892  8.525618  5.762493
  N    11.047680 12.280156  5.492946
  S    10.302607  8.216212  4.349605
  S    10.294114 11.881508  4.034749
  S    12.954147  8.849886  1.312608
  S    13.198569 12.570822  1.184421
  S    12.744151  9.239504  5.436954
  S    12.654617 12.730869  5.325858
