16  
    
  C     5.189702  5.149886  2.039475
  C     5.155216  8.502598  1.932061
  C     3.905394  4.927595  1.388741
  C     3.995253  8.358381  1.147331
  N     6.210730  5.145821  1.177352
  N     6.287083  8.584556  1.240570
  N     3.941097  4.853266  0.066211
  N     4.279358  8.145928 -0.138223
  N     3.300522  5.161070  3.844683
  N     3.186717  8.957565  3.531727
  S     2.566900  4.921595  2.406981
  S     2.501876  8.437643  2.064478
  S     5.523569  4.883189 -0.364782
  S     5.880236  8.283386 -0.329268
  S     4.985733  5.207076  3.796087
  S     4.851300  8.788003  3.625621
