16  
    
  C     4.435246  4.920691  1.482188
  C     4.155427  8.698486  1.695395
  C     3.149618  4.722665  0.863824
  C     3.072896  8.206890  0.800186
  N     5.435589  5.146434  0.667169
  N     5.272382  9.013536  1.033470
  N     3.223967  4.678502 -0.465068
  N     3.322265  8.353080 -0.489200
  N     2.727963  5.110970  3.448349
  N     2.238949  7.812378  3.246337
  S     1.892427  4.577036  2.144791
  S     1.619906  7.747099  1.644632
  S     4.831753  4.817906 -0.872620
  S     4.890631  8.847508 -0.648733
  S     4.378417  5.152443  3.189909
  S     3.775320  8.500723  3.375685
