16  
    
  C    12.085512  8.593177  3.628089
  C    12.117615 12.096224  3.360700
  C    10.911656  8.224846  2.858381
  C    10.946114 11.514267  2.715719
  N    13.147112  8.768066  2.845861
  N    13.204021 12.201439  2.570954
  N    11.129617  8.107184  1.554252
  N    11.035810 11.443742  1.387919
  N    10.123670  8.333397  5.282272
  N    10.310644 11.947245  5.217705
  S     9.454566  8.007518  3.832781
  S     9.638573 11.329645  3.760041
  S    12.742882  8.389174  1.314140
  S    12.646593 11.891781  1.028519
  S    11.749577  8.721832  5.321039
  S    11.871293 12.488002  5.010350
