16  
    
  C     5.119360  5.078879  1.926978
  C     5.132135  8.648734  1.912197
  C     3.786913  5.039126  1.327695
  C     3.948109  8.255420  1.227443
  N     6.120063  5.170590  1.066655
  N     6.265411  8.562455  1.189429
  N     3.840040  4.866497 -0.000149
  N     4.127205  8.029067 -0.075820
  N     3.457886  4.912199  3.880158
  N     3.217728  8.857783  3.607312
  S     2.521767  4.861471  2.490483
  S     2.498694  8.463770  2.182182
  S     5.462009  4.971060 -0.445405
  S     5.773774  8.231030 -0.342472
  S     5.066239  5.082315  3.669705
  S     4.861136  8.891327  3.627758
