16  
    
  C    11.839648  8.786655  3.328213
  C    11.492408 12.452384  3.138137
  C    10.577406  8.257158  2.841447
  C    10.425294 11.674601  2.574360
  N    12.798821  8.819867  2.410623
  N    12.552790 12.674386  2.351550
  N    10.562515  7.922746  1.544786
  N    10.636851 11.350210  1.316903
  N    10.326216  8.561728  5.402698
  N     9.844268 11.844315  4.971501
  S     9.405339  8.161388  4.130882
  S     9.101156 11.313212  3.647060
  S    12.092660  8.253731  0.977733
  S    12.096207 12.028883  0.891041
  S    11.870611  9.127580  5.059373
  S    11.315170 12.483753  4.890574
