16  
    
  C     5.840596  5.006030  1.858755
  C     5.809769  9.305889  1.994573
  C     4.715999  4.459138  1.117642
  C     4.589056  8.687739  1.406344
  N     6.963935  5.141953  1.140498
  N     6.762070  9.560141  1.096136
  N     4.931470  4.417387 -0.199917
  N     4.744508  8.395738  0.113171
  N     3.952180  4.811386  3.501508
  N     4.082891  8.850453  3.923318
  S     3.294284  4.273129  2.087943
  S     3.333079  8.272651  2.588022
  S     6.537808  4.719981 -0.376008
  S     6.189736  8.953086 -0.351174
  S     5.512252  5.171266  3.501014
  S     5.624368  9.581158  3.727004
