16  
    
  C     9.107641  7.182983  2.285287
  C     9.038050 10.675317  2.360879
  C     7.954462  6.605443  1.733617
  C     7.870908 10.155136  1.777243
  N    10.085370  7.175004  1.368352
  N    10.031745 10.772967  1.466948
  N     7.965445  6.337790  0.428926
  N     7.891358  9.921851  0.489254
  N     7.347488  6.741241  4.173957
  N     7.178931 10.658870  4.218930
  S     6.602561  6.345101  2.775641
  S     6.464552 10.068525  2.806157
  S     9.487654  6.652350 -0.066804
  S     9.447679 10.368508 -0.007957
  S     8.969404  7.222224  4.088305
  S     8.794541 10.920969  4.082336
