16  
    
  C     6.439266  5.714717  2.064703
  C     6.092264  9.260637  1.813205
  C     5.243912  5.387129  1.383821
  C     4.919332  8.815255  1.169050
  N     7.454983  5.939643  1.235803
  N     7.131549  9.310257  0.971438
  N     5.385393  5.117495  0.080070
  N     4.994348  8.643118 -0.140692
  N     4.676031  5.703696  3.928465
  N     4.302546  8.869056  3.666626
  S     3.938726  5.187750  2.487643
  S     3.579347  8.552597  2.172777
  S     6.949366  5.484567 -0.272172
  S     6.582571  8.936439 -0.520612
  S     6.256162  6.123724  3.738829
  S     5.962111  9.372443  3.565835
