16  
    
  C     6.827843  5.760931  1.569488
  C     7.249287 10.044022  2.456928
  C     5.654360  5.182539  0.954433
  C     5.984926  9.524238  1.973154
  N     7.878312  5.808627  0.732380
  N     8.228320 10.035367  1.522387
  N     5.922128  4.679158 -0.250218
  N     6.012095  9.161213  0.680454
  N     4.954015  5.750264  3.364644
  N     5.626223  9.678031  4.448817
  S     4.317823  4.940433  2.072991
  S     4.720061  9.484024  3.132605
  S     7.473112  5.119399 -0.702483
  S     7.594866  9.544479  0.120445
  S     6.552840  6.390487  3.180509
  S     7.190513 10.297103  4.221969
