16  
    
  C    10.520994  7.357726  2.731976
  C    10.374304 11.316299  2.691389
  C     9.172026  7.358000  2.112642
  C     9.107108 11.052418  2.024335
  N    11.497827  7.331099  1.806923
  N    11.399974 11.318602  1.850907
  N     9.122742  7.303475  0.762038
  N     9.258410 10.725535  0.739384
  N     8.854267  7.689977  4.588164
  N     8.605863 11.269501  4.511160
  S     7.898870  7.530125  3.242942
  S     7.743721 11.164606  3.085146
  S    10.709721  7.193556  0.304819
  S    10.819088 10.923679  0.316147
  S    10.481802  7.553947  4.483434
  S    10.231555 11.474495  4.401535
