16  
    
  C    10.797099  7.837176  3.115778
  C    10.614218 12.023943  3.147352
  C     9.542825  7.449954  2.547477
  C     9.435529 11.234449  2.697353
  N    11.729052  8.093145  2.236131
  N    11.490773 12.261819  2.193688
  N     9.494110  7.435897  1.224738
  N     9.355470 11.014081  1.396781
  N     9.133106  7.616842  5.148516
  N     9.163358 11.599863  5.237833
  S     8.315126  7.094045  3.725329
  S     8.305990 10.926252  4.016982
  S    11.082179  7.797037  0.723599
  S    10.800637 11.635360  0.794473
  S    10.760026  7.871508  4.800299
  S    10.684679 12.186399  4.840197
