16  
    
  C     5.085034  5.324157  1.911830
  C     5.101002  8.751217  1.456973
  C     3.805758  5.012965  1.289947
  C     3.828102  8.294398  0.885061
  N     6.100666  5.331755  1.064898
  N     6.117140  8.760106  0.589886
  N     3.915687  4.572738  0.034446
  N     3.889383  8.105924 -0.441529
  N     3.344407  5.801741  3.732277
  N     3.408168  8.786295  3.385187
  S     2.530310  5.216775  2.460415
  S     2.509925  8.342570  2.040399
  S     5.531040  4.651609 -0.308174
  S     5.445945  8.386550 -0.907328
  S     4.992894  5.749875  3.605743
  S     5.040142  8.966713  3.204428
