16  
    
  C     5.120835  4.853885  1.752575
  C     4.994987  8.753100  1.808601
  C     3.742206  4.829075  1.270225
  C     3.768656  8.322849  1.274342
  N     5.972005  5.134086  0.775856
  N     6.014898  8.650061  0.940600
  N     3.573725  4.855605 -0.047020
  N     3.829202  8.078894 -0.040721
  N     3.571198  4.692073  3.806991
  N     3.368940  8.679850  3.778622
  S     2.609097  4.704905  2.522820
  S     2.443587  8.376073  2.445651
  S     5.113784  4.988400 -0.685293
  S     5.382862  8.220312 -0.512677
  S     5.164130  4.909376  3.507626
  S     4.927612  9.099564  3.547449
