16  
    
  C    12.073252  8.541795  3.332151
  C    11.922208 12.188792  3.201847
  C    10.764417  8.284694  2.723358
  C    10.623801 11.935239  2.673276
  N    13.032262  8.722517  2.435022
  N    12.892646 12.135536  2.281793
  N    10.723795  8.383133  1.400008
  N    10.567046 11.804803  1.349285
  N    10.289497  8.415904  5.224627
  N    10.321674 12.023629  5.230617
  S     9.449142  8.232677  3.862084
  S     9.417672 11.690925  3.822533
  S    12.292627  8.590391  0.901872
  S    12.108016 12.026680  0.817154
  S    11.928666  8.710758  5.060443
  S    11.913992 12.257326  4.945192
