16  
    
  C     9.070861  7.160830  2.257183
  C     9.055344 10.623127  2.368354
  C     7.831790  6.621501  1.651405
  C     7.797861 10.149659  1.768022
  N    10.074025  7.208870  1.385557
  N    10.042427 10.739339  1.477513
  N     7.909971  6.310638  0.372048
  N     7.945427  9.833663  0.464757
  N     7.317347  6.735521  4.185077
  N     7.204245 10.556806  4.251540
  S     6.571589  6.337540  2.737404
  S     6.451534 10.090800  2.826478
  S     9.472921  6.666407 -0.106930
  S     9.437317 10.328426  0.023748
  S     8.869469  7.207468  4.054865
  S     8.837838 10.866217  4.108684
