16  
    
  C     4.363570  4.984037  1.180273
  C     4.457759  8.287105  1.365895
  C     3.091118  4.728837  0.551458
  C     3.249635  7.820456  0.663195
  N     5.368577  5.051282  0.308306
  N     5.467268  8.558249  0.554221
  N     3.147226  4.710855 -0.799833
  N     3.393080  7.686073 -0.649526
  N     2.604797  4.665310  3.096648
  N     2.558583  8.198796  3.179852
  S     1.750293  4.658324  1.691954
  S     1.851967  7.729752  1.749344
  S     4.721301  4.731616 -1.208145
  S     4.937030  8.204959 -1.062235
  S     4.160044  5.237209  2.911296
  S     4.236350  8.475518  3.089976
