16  
    
  C     7.820076  6.649339  2.450782
  C     7.997017 10.266122  2.048686
  C     6.644247  6.213459  1.704377
  C     6.674615  9.862815  1.522418
  N     8.924944  6.728870  1.685710
  N     8.946381 10.347081  1.115354
  N     6.874756  5.891107  0.425217
  N     6.643032  9.660710  0.201138
  N     5.860781  6.336030  4.105441
  N     6.248447 10.379722  3.984540
  S     5.244486  6.023067  2.627731
  S     5.400987  9.881949  2.651086
  S     8.420156  6.144036  0.216099
  S     8.144654  9.886771 -0.334813
  S     7.447048  6.880687  4.121185
  S     7.862603 10.604530  3.779561
