16  
    
  C     9.726756  7.541265  2.848355
  C     9.962694 11.152920  2.752176
  C     8.580721  6.988690  2.128913
  C     8.669610 10.851130  2.082417
  N    10.781462  7.820196  2.101403
  N    10.923430 11.334610  1.889347
  N     8.781856  6.816291  0.813008
  N     8.740757 10.677178  0.787675
  N     7.789152  7.417868  4.622231
  N     8.232229 11.202978  4.640633
  S     7.181086  6.715781  3.216084
  S     7.364414 10.842999  3.222164
  S    10.356990  7.338319  0.545704
  S    10.325119 11.016386  0.363002
  S     9.379627  7.977355  4.432486
  S     9.883562 11.240127  4.463262
