16  
    
  C     7.956455  6.528041  2.571420
  C     8.527394 10.334453  2.436930
  C     6.841523  6.054333  1.846650
  C     7.278154  9.870423  1.873217
  N     9.084024  6.764753  1.921115
  N     9.546874 10.444190  1.585002
  N     7.077356  5.959083  0.525696
  N     7.286249  9.638463  0.580559
  N     6.162950  6.279826  4.385239
  N     6.921075 10.408066  4.396426
  S     5.444634  5.969353  2.922948
  S     6.030727  9.714897  3.164530
  S     8.657016  6.399561  0.323474
  S     8.889566  9.843185  0.115194
  S     7.744379  6.806921  4.241235
  S     8.573245 10.535920  4.119463
