16  
    
  C     9.867666  7.590999  2.972868
  C    10.596908 11.511761  3.117135
  C     8.791906  7.088109  2.157648
  C     9.354428 11.043564  2.493554
  N    10.926428  7.923634  2.248303
  N    11.581003 11.665484  2.226231
  N     9.008969  7.043935  0.830106
  N     9.463347 10.790388  1.171000
  N     7.889129  7.262397  4.486261
  N     8.875114 11.422068  5.028511
  S     7.346003  6.685418  3.032017
  S     8.072644 10.852416  3.683049
  S    10.595656  7.665830  0.629869
  S    10.968930 11.246107  0.714986
  S     9.479772  7.681867  4.671093
  S    10.489220 11.964751  4.755254
