16  
    
  C     4.519807  5.156445  2.015826
  C     4.735509  8.636771  1.502211
  C     3.391039  4.702508  1.237431
  C     3.521197  8.218035  0.800234
  N     5.666572  5.209140  1.383151
  N     5.689230  9.004239  0.643060
  N     3.676339  4.592210 -0.079831
  N     3.713538  8.072281 -0.510941
  N     2.712163  5.030233  3.704594
  N     2.912255  8.360191  3.272010
  S     1.985521  4.477718  2.297376
  S     2.204021  7.862523  1.849554
  S     5.359950  4.900336 -0.201242
  S     5.216509  8.584265 -0.861782
  S     4.343516  5.135229  3.713042
  S     4.538803  8.794547  3.221167
