16  
    
  C     7.352188  6.020175  2.199465
  C     7.811183  9.749490  2.244647
  C     6.187132  5.511360  1.500809
  C     6.561432  9.401074  1.631235
  N     8.367381  6.239212  1.382867
  N     8.755790  9.941403  1.372311
  N     6.302278  5.549064  0.163673
  N     6.591686  9.281418  0.310200
  N     5.626715  5.616651  4.085122
  N     6.241795  9.399786  4.264636
  S     4.871062  5.172429  2.638888
  S     5.296197  9.280979  2.883742
  S     7.914886  5.962622 -0.177615
  S     8.202074  9.595801 -0.138017
  S     7.230912  6.109912  3.924432
  S     7.849259  9.913232  3.943871
