16  
    
  C    11.803175  8.538963  3.433744
  C    11.617335 12.056845  3.388931
  C    10.567510  8.303001  2.719438
  C    10.403286 11.647680  2.750232
  N    12.881956  8.681246  2.675343
  N    12.707095 12.096886  2.634928
  N    10.762549  8.188123  1.389728
  N    10.525126 11.505910  1.432257
  N     9.984323  8.397757  5.231460
  N     9.842877 11.573793  5.274223
  S     9.178448  8.240286  3.729781
  S     9.013895 11.338961  3.856160
  S    12.400759  8.347749  1.119740
  S    12.194326 11.847955  1.124783
  S    11.613514  8.724797  5.092383
  S    11.443036 11.941151  5.072785
