16  
    
  C     8.018217  6.530610  2.655047
  C     8.563000 10.339303  2.478964
  C     6.790302  6.151524  1.900108
  C     7.270547  9.931347  1.941124
  N     9.061803  6.782633  1.858242
  N     9.551857 10.383147  1.581455
  N     7.050763  5.919664  0.609922
  N     7.372779  9.666957  0.617822
  N     6.116908  6.237710  4.382042
  N     6.918221 10.344043  4.506041
  S     5.386809  5.924583  2.900651
  S     6.080173  9.729137  3.178097
  S     8.678600  6.366154  0.329181
  S     8.977444  9.879516  0.186988
  S     7.697590  6.833234  4.344827
  S     8.526481 10.624475  4.209973
