16  
    
  C    11.004070  8.150013  2.948287
  C    10.893831 11.587960  2.863451
  C     9.842910  7.392039  2.550367
  C     9.623658 11.199639  2.232249
  N    11.864090  8.527370  2.018291
  N    11.868091 11.789797  1.987770
  N     9.784140  7.175744  1.247150
  N     9.672687 11.050557  0.913110
  N     9.562472  7.816319  5.018769
  N     9.164814 11.511561  4.706488
  S     8.729836  7.050840  3.867482
  S     8.365445 10.846736  3.351759
  S    11.224541  7.778229  0.596179
  S    11.246093 11.575559  0.477365
  S    10.988082  8.573266  4.656465
  S    10.787475 11.662949  4.591720
