16  
    
  C     9.237460  6.586328  2.396807
  C     9.287244 10.522411  2.879081
  C     8.041716  6.262513  1.670893
  C     8.068266 10.434320  2.174245
  N    10.381605  6.590681  1.728533
  N    10.388408 10.322762  2.123948
  N     8.285206  6.052494  0.376841
  N     8.171100 10.067476  0.916603
  N     7.396486  6.924958  4.086861
  N     7.461335 10.816884  4.593648
  S     6.696807  6.186029  2.756483
  S     6.672986 10.753707  3.158475
  S     9.960126  6.276860  0.162157
  S     9.813874  9.925744  0.604295
  S     9.028400  7.077537  4.013029
  S     9.107716 11.049247  4.504649
