16  
    
  C     7.650524  6.243142  2.207979
  C     7.785380 10.117943  2.435290
  C     6.387914  5.907755  1.656119
  C     6.657167  9.501357  1.805189
  N     8.645656  6.441115  1.334529
  N     8.777582 10.500865  1.630653
  N     6.413950  5.780257  0.339623
  N     6.792182  9.309529  0.494781
  N     5.946093  6.185071  4.191028
  N     6.088404  9.500411  4.326042
  S     5.167510  5.583953  2.862065
  S     5.310959  9.210457  2.896698
  S     7.907196  6.124267 -0.162814
  S     8.296837  9.905405  0.105367
  S     7.542018  6.410669  3.962941
  S     7.594892 10.219687  4.178571
