16  
    
  C     9.920733  7.660560  2.676265
  C     9.896000 11.330411  3.002655
  C     8.640214  7.330569  2.035330
  C     8.763019 10.670363  2.299586
  N    10.920385  7.692386  1.796111
  N    10.931474 11.594475  2.177001
  N     8.658040  7.228705  0.700089
  N     8.962785 10.488362  0.997995
  N     8.208081  7.419164  4.528672
  N     8.054416 10.858266  4.727770
  S     7.342108  7.177189  3.135843
  S     7.378143 10.417658  3.281749
  S    10.239040  7.535055  0.242302
  S    10.479918 11.117039  0.671121
  S     9.800782  7.754419  4.421901
  S     9.604856 11.442570  4.670628
