16  
    
  C     4.268879  5.073198  1.112827
  C     4.460288  8.245984  1.387195
  C     3.016159  4.714484  0.522055
  C     3.259294  7.892231  0.683876
  N     5.353492  5.028625  0.369121
  N     5.448795  8.659969  0.593553
  N     3.112022  4.665423 -0.790842
  N     3.422954  7.694943 -0.613584
  N     2.707416  4.670494  3.058601
  N     2.564823  8.242858  3.129269
  S     1.763277  4.687444  1.731423
  S     1.852722  7.707890  1.725771
  S     4.786788  4.769292 -1.183991
  S     4.937057  8.258184 -0.987811
  S     4.220847  5.225680  2.806899
  S     4.175714  8.418554  3.126405
