16  
    
  C     8.264011  6.672809  2.476294
  C     8.514829 10.084499  2.356834
  C     7.034106  6.237407  1.805191
  C     7.217596  9.699235  1.820708
  N     9.274133  6.807508  1.632034
  N     9.406679 10.247239  1.364448
  N     7.101434  6.134754  0.485757
  N     7.172553  9.585383  0.510560
  N     6.459380  6.283625  4.293513
  N     6.895063 10.214407  4.333345
  S     5.765401  5.930631  2.875264
  S     5.939542  9.765799  3.014143
  S     8.745043  6.435947  0.125046
  S     8.725195  9.911604 -0.030692
  S     8.042101  6.729799  4.195834
  S     8.485742 10.524848  4.002490
