16  
    
  C     5.825493  5.438921  2.123791
  C     5.850685  8.992397  1.877724
  C     4.580631  5.359621  1.443607
  C     4.661151  8.666055  1.162180
  N     6.908360  5.481058  1.326645
  N     6.998110  9.100487  1.185065
  N     4.622881  5.088689  0.133951
  N     4.861310  8.561506 -0.152676
  N     3.966395  5.650020  3.961947
  N     3.958030  9.164819  3.666341
  S     3.239511  5.567538  2.457992
  S     3.216782  8.817023  2.189919
  S     6.247325  5.301816 -0.202416
  S     6.464218  8.813365 -0.407791
  S     5.614598  5.895272  3.785248
  S     5.671744  9.293806  3.573928
