16  
    
  C     6.898980  6.014303  1.597986
  C     7.297254  9.904378  2.467328
  C     5.834886  5.091805  1.164336
  C     6.003823  9.544191  1.919812
  N     7.918529  6.159964  0.734494
  N     8.335137  9.863896  1.613043
  N     5.961270  4.689852 -0.091555
  N     6.084501  9.174732  0.645484
  N     5.175284  5.823063  3.569644
  N     5.551033  9.870670  4.467519
  S     4.511773  4.938815  2.274724
  S     4.685716  9.534675  3.025446
  S     7.383454  5.354200 -0.655386
  S     7.592990  9.400956  0.121477
  S     6.724849  6.417506  3.346843
  S     7.176836 10.284438  4.221931
