16  
    
  C     7.660831  6.221469  2.259011
  C     7.736045 10.145931  2.462879
  C     6.345570  5.929325  1.700447
  C     6.601931  9.534826  1.789242
  N     8.584093  6.415690  1.326563
  N     8.743990 10.386874  1.637340
  N     6.386257  5.772529  0.385535
  N     6.767022  9.326283  0.496671
  N     5.959780  6.279209  4.146082
  N     6.085801  9.514463  4.275309
  S     5.121916  5.644646  2.922889
  S     5.268383  9.240215  2.903139
  S     7.913785  6.183604 -0.141098
  S     8.345250  9.938626  0.145973
  S     7.604803  6.459994  3.940958
  S     7.567812 10.249560  4.148516
