16  
    
  C    12.389190  9.197026  3.408025
  C    12.184967 12.645729  3.479762
  C    11.174323  8.679401  2.829990
  C    11.034267 12.044828  2.806103
  N    13.346707  9.299851  2.485433
  N    13.297418 12.773308  2.723435
  N    11.249764  8.430322  1.523938
  N    11.233802 11.856932  1.494254
  N    10.563970  8.920022  5.303725
  N    10.225074 12.541038  5.256876
  S     9.867601  8.393900  3.904552
  S     9.633735 12.047881  3.718545
  S    12.765082  8.731729  1.053551
  S    12.801473 12.369638  1.205510
  S    12.178489  9.416209  5.099328
  S    11.836693 12.945765  5.177943
