16  
    
  C     4.425429  5.051778  1.774727
  C     4.180605  8.661414  1.584329
  C     3.215367  4.770027  1.028539
  C     3.094273  8.086381  0.823021
  N     5.496347  5.189225  0.984646
  N     5.254050  9.015652  0.864075
  N     3.429748  4.407398 -0.263267
  N     3.242544  8.214901 -0.503987
  N     2.714459  4.875520  3.636521
  N     2.283460  8.167088  3.296408
  S     1.854626  4.814184  2.228165
  S     1.706976  7.780438  1.851973
  S     5.042242  4.790621 -0.574949
  S     4.777340  8.813462 -0.770146
  S     4.347885  5.333114  3.446708
  S     3.882307  8.633346  3.319301
