16  
    
  C    11.336141  8.737471  3.286410
  C    11.452621 12.224682  3.306349
  C    10.241445  8.018682  2.763072
  C    10.293404 11.761106  2.571287
  N    12.355938  8.881138  2.448734
  N    12.501279 12.542012  2.540261
  N    10.410545  7.653195  1.475725
  N    10.521899 11.588358  1.255705
  N     9.669173  8.444159  5.223833
  N     9.606452 11.809854  5.130790
  S     8.971657  7.709026  3.891467
  S     8.957851 11.480522  3.581011
  S    11.902636  8.191913  1.030172
  S    12.086820 12.134301  1.019192
  S    11.168364  9.181940  4.920254
  S    11.088319 12.663204  5.002006
