16  
    
  C    11.199985  8.193315  3.181685
  C    11.425292 11.627517  3.295961
  C     9.926167  7.705946  2.622852
  C    10.167137 11.508329  2.636241
  N    12.226259  8.259931  2.327693
  N    12.435662 11.659594  2.453404
  N     9.972455  7.395157  1.317229
  N    10.205826 11.249145  1.342413
  N     9.481662  8.145711  5.171507
  N     9.671459 11.717028  5.165916
  S     8.723307  7.611318  3.777798
  S     8.821862 11.606773  3.737694
  S    11.582475  7.664558  0.881005
  S    11.811779 11.480257  0.872359
  S    11.138322  8.454065  4.904517
  S    11.333166 11.925318  4.973055
