16  
    
  C     5.915669  5.029600  1.675758
  C     6.018596  8.911111  2.102215
  C     4.648131  4.812506  1.049430
  C     4.811041  8.555043  1.423713
  N     6.892754  5.224498  0.789269
  N     7.054084  8.992207  1.263327
  N     4.727597  4.607477 -0.259466
  N     4.870675  8.515751  0.085776
  N     4.174442  5.132937  3.593323
  N     4.188048  8.799888  3.934050
  S     3.334279  4.690465  2.181854
  S     3.433512  8.602528  2.481466
  S     6.257545  5.024856 -0.708212
  S     6.441985  8.799616 -0.251260
  S     5.839026  5.441323  3.365795
  S     5.850464  9.114357  3.811563
