16  
    
  C    10.896388  8.135428  3.256446
  C    10.687962 11.949261  3.238448
  C     9.751058  7.591485  2.654378
  C     9.536431 11.264959  2.738444
  N    11.874002  8.432605  2.370745
  N    11.576462 12.304822  2.305866
  N     9.792010  7.429273  1.324767
  N     9.620230 11.062533  1.431702
  N     9.207438  7.724485  5.172636
  N     9.118604 11.590473  5.234328
  S     8.403981  7.375827  3.764293
  S     8.283720 11.037021  3.910100
  S    11.315772  7.880256  0.940638
  S    10.923093 11.783166  0.855299
  S    10.746720  8.395600  4.947730
  S    10.636677 12.090694  4.954680
