16  
    
  C     5.792491  5.538706  2.012954
  C     5.869927  9.003131  1.994567
  C     4.548731  5.237028  1.359866
  C     4.659159  8.665886  1.324923
  N     6.843531  5.550431  1.211241
  N     6.932594  9.116522  1.227444
  N     4.669658  5.058321  0.037850
  N     4.786655  8.463192  0.023277
  N     4.003633  5.579125  3.840757
  N     4.003209  8.991636  3.746785
  S     3.115761  5.455267  2.371611
  S     3.299605  8.730118  2.344320
  S     6.281791  5.163146 -0.335017
  S     6.444985  8.765632 -0.319550
  S     5.632451  5.876267  3.777825
  S     5.653828  9.156997  3.745719
