16  
    
  C     5.063957  5.116923  1.867647
  C     5.127891  8.609369  1.923449
  C     3.738705  4.936506  1.287671
  C     3.900039  8.353506  1.244211
  N     6.081144  5.082709  1.014955
  N     6.189878  8.627317  1.137166
  N     3.798845  4.842926 -0.039708
  N     4.046372  7.992432 -0.019693
  N     3.511935  4.743126  3.829707
  N     3.248256  8.757649  3.701041
  S     2.466367  4.844451  2.565515
  S     2.500651  8.438877  2.231357
  S     5.381042  5.041242 -0.503764
  S     5.621527  8.186596 -0.368821
  S     5.163464  5.038568  3.559609
  S     4.902347  8.993017  3.568849
