16  
    
  C     4.434457  5.164754  1.609692
  C     4.289712  8.640055  1.522431
  C     3.249698  4.657873  0.951883
  C     3.028308  8.193828  0.872361
  N     5.556640  5.114766  0.860290
  N     5.282640  8.841205  0.643927
  N     3.469505  4.440109 -0.375075
  N     3.190278  7.806971 -0.404541
  N     2.744426  5.033505  3.536502
  N     2.550049  8.340627  3.450860
  S     1.895712  4.634196  2.177143
  S     1.781638  7.901597  2.039365
  S     5.046514  4.847227 -0.680651
  S     4.776970  8.209924 -0.833420
  S     4.349013  5.423497  3.347641
  S     4.115605  8.849185  3.246224
