16  
    
  C     6.562522  5.868747  2.081472
  C     6.162564  9.199272  1.849704
  C     5.433827  5.238322  1.443048
  C     4.946074  8.822019  1.184519
  N     7.622093  5.989330  1.265082
  N     7.237947  9.440723  1.078615
  N     5.503342  5.084215  0.106608
  N     5.106163  8.663183 -0.122125
  N     4.624328  5.720523  3.831423
  N     4.368907  9.001607  3.647819
  S     4.008008  5.128398  2.467281
  S     3.618057  8.527878  2.265278
  S     7.048480  5.587763 -0.258527
  S     6.711617  8.977964 -0.458439
  S     6.276238  6.050580  3.797340
  S     5.917077  9.317363  3.591056
