16  
    
  C     5.457949  5.507302  1.648034
  C     5.308108  8.927193  1.697449
  C     4.261027  5.089074  1.020680
  C     4.166780  8.420481  0.944097
  N     6.471387  5.718782  0.805936
  N     6.368794  9.214173  0.935672
  N     4.336388  4.950692 -0.283228
  N     4.444315  8.213152 -0.331757
  N     3.675214  5.139540  3.547941
  N     3.332869  8.730751  3.367739
  S     2.851075  5.068511  2.049310
  S     2.688052  8.336679  1.899449
  S     5.806782  5.498977 -0.703261
  S     5.960678  8.731014 -0.610402
  S     5.255910  5.674217  3.388592
  S     4.984275  9.116557  3.413027
