16  
    
  C     4.284850  5.007972  1.134466
  C     4.389346  8.442278  1.423114
  C     2.998872  4.831210  0.464690
  C     3.269170  7.866938  0.730383
  N     5.343961  5.055320  0.329122
  N     5.428604  8.657992  0.628429
  N     3.144465  4.524126 -0.835228
  N     3.405996  7.785533 -0.586247
  N     2.730646  4.711402  3.074751
  N     2.473935  8.264929  3.108655
  S     1.740757  4.692776  1.747526
  S     1.865657  7.686316  1.688819
  S     4.779246  4.821695 -1.141891
  S     4.934172  8.325048 -0.865853
  S     4.323160  5.221109  2.798680
  S     4.146781  8.365978  3.134114
