16  
    
  C     4.933362  4.778397  1.629352
  C     4.842579  8.763919  1.777259
  C     3.544973  4.699861  1.186388
  C     3.586369  8.321947  1.295165
  N     5.854454  4.954014  0.703046
  N     5.765759  8.912434  0.835327
  N     3.475668  4.648466 -0.133562
  N     3.498212  8.224843 -0.024052
  N     3.607310  4.753830  3.728911
  N     3.298665  8.687092  3.770092
  S     2.542064  4.425080  2.551399
  S     2.337344  8.301825  2.504400
  S     5.024771  4.843276 -0.727279
  S     4.995447  8.555816 -0.625117
  S     5.173876  4.767504  3.307692
  S     4.935848  9.004364  3.513614
