16  
    
  C     6.630791  5.768916  2.135269
  C     6.193937  9.232058  1.912101
  C     5.411030  5.309736  1.450888
  C     5.023832  8.755683  1.194072
  N     7.625412  6.086982  1.300165
  N     7.262107  9.402704  1.133086
  N     5.676297  5.063196  0.177864
  N     5.228254  8.624762 -0.111035
  N     4.736765  5.652751  3.893533
  N     4.342766  9.023189  3.708323
  S     3.981790  5.074973  2.418595
  S     3.638798  8.533794  2.247452
  S     7.144548  5.647294 -0.259526
  S     6.812903  9.081719 -0.404911
  S     6.325593  6.052337  3.840262
  S     6.007967  9.337665  3.586915
