16  
    
  C     9.542724  7.639558  2.610293
  C    10.150637 11.337843  2.587831
  C     8.454280  6.806725  2.099742
  C     8.904235 10.897914  1.979772
  N    10.539713  7.859996  1.767807
  N    11.159357 11.400547  1.757856
  N     8.673325  6.421753  0.839340
  N     8.937992 10.760795  0.676557
  N     7.852933  7.380244  4.541960
  N     8.529957 11.036896  4.527809
  S     7.132771  6.569433  3.263694
  S     7.646392 10.718831  3.157174
  S    10.190052  6.995913  0.421138
  S    10.505170 11.040152  0.224060
  S     9.354896  7.944381  4.268510
  S    10.074747 11.609848  4.293107
