16  
    
  C     7.316826  5.973956  2.243508
  C     7.680899  9.589509  2.398013
  C     6.199620  5.466929  1.468683
  C     6.464228  9.308295  1.720254
  N     8.380721  6.222810  1.480741
  N     8.689460  9.769404  1.532662
  N     6.363801  5.425801  0.138994
  N     6.456997  9.313940  0.386969
  N     5.339513  5.671404  3.917716
  N     5.819352  9.762747  4.175836
  S     4.714166  5.255658  2.382593
  S     5.044324  9.281276  2.732782
  S     7.924729  5.905666 -0.095135
  S     8.074731  9.585875  0.002705
  S     7.013815  6.034046  3.996861
  S     7.494588  9.771374  4.145640
