16  
    
  C     6.677764  6.210226  2.373311
  C     7.155845  9.745781  2.175289
  C     5.620934  5.386022  1.813563
  C     5.898137  9.504617  1.583419
  N     7.584840  6.621744  1.480946
  N     8.205496  9.817300  1.363265
  N     5.617909  5.313145  0.478599
  N     5.976277  9.332472  0.264796
  N     5.322072  5.215811  4.349000
  N     5.421283  9.346146  4.130129
  S     4.526778  4.671939  3.022963
  S     4.559498  9.460335  2.707927
  S     7.008455  6.081274  0.006905
  S     7.564058  9.507993 -0.141233
  S     6.713003  6.245814  4.165643
  S     7.056809  9.835338  3.940147
