16  
    
  C     5.477349  5.545951  1.663763
  C     5.342341  8.880430  1.686224
  C     4.258312  5.021753  1.084563
  C     4.156035  8.427557  0.927422
  N     6.458491  5.717709  0.742782
  N     6.375717  9.214387  0.905316
  N     4.290128  5.003937 -0.257633
  N     4.405592  8.151075 -0.358555
  N     3.662085  5.169340  3.570244
  N     3.334945  8.728167  3.370263
  S     2.852586  5.053609  2.080451
  S     2.697079  8.346091  1.904960
  S     5.769670  5.477668 -0.734356
  S     5.966559  8.696031 -0.643616
  S     5.305688  5.674694  3.404595
  S     4.961808  9.170344  3.356482
