16  
    
  C     6.590918  5.729983  2.019646
  C     6.617014  9.422837  1.865355
  C     5.320479  5.451247  1.439153
  C     5.461136  8.853352  1.249207
  N     7.558455  5.932689  1.132068
  N     7.650891  9.634368  1.046151
  N     5.314593  5.161779  0.133567
  N     5.532303  8.715036 -0.081605
  N     4.886113  5.770081  3.986798
  N     4.823290  8.940912  3.800583
  S     4.076007  5.351530  2.641687
  S     4.096146  8.672276  2.321582
  S     6.883200  5.543616 -0.335627
  S     6.995564  9.317104 -0.517216
  S     6.509622  6.085009  3.721074
  S     6.433090  9.660293  3.651263
