16  
    
  C     4.352216  5.036542  1.153221
  C     4.344863  8.477125  1.495127
  C     3.088465  4.676516  0.580216
  C     3.165754  8.019175  0.721533
  N     5.374398  5.128143  0.311211
  N     5.425521  8.734983  0.785283
  N     3.179430  4.534176 -0.756429
  N     3.405243  7.880501 -0.572437
  N     2.716408  4.791224  3.108526
  N     2.429347  8.212056  3.159778
  S     1.787907  4.714860  1.734916
  S     1.803783  7.650962  1.669864
  S     4.725911  4.819353 -1.228920
  S     4.953137  8.393924 -0.832919
  S     4.339541  5.190768  2.903780
  S     4.095229  8.378122  3.181816
