16  
    
  C     9.106569  6.971208  2.672854
  C     9.715824 10.836810  2.775491
  C     7.978473  6.406082  1.945294
  C     8.546433 10.117319  2.188217
  N    10.119383  7.200312  1.862463
  N    10.594833 11.188810  1.861750
  N     8.107055  6.281653  0.632457
  N     8.559665 10.040640  0.854612
  N     7.397319  6.490284  4.436316
  N     8.184151 10.137060  4.691419
  S     6.672362  6.021250  3.029111
  S     7.327756  9.661880  3.327012
  S     9.703744  6.791660  0.336917
  S    10.029401 10.754645  0.387203
  S     9.035025  6.802762  4.358811
  S     9.594571 10.970919  4.483747
