16  
    
  C     3.604312  4.410576  1.598381
  C     3.826368  8.413832  1.640826
  C     2.395942  3.915315  0.949743
  C     2.579569  7.954038  1.013863
  N     4.530227  4.887442  0.794149
  N     4.846062  8.636849  0.830143
  N     2.529487  3.940702 -0.383792
  N     2.710834  7.883757 -0.297164
  N     1.903187  4.229639  3.497401
  N     2.091443  7.919186  3.512039
  S     1.171996  3.564489  2.180936
  S     1.230486  7.854081  2.141746
  S     3.962781  4.667727 -0.724555
  S     4.252532  8.311204 -0.707237
  S     3.497815  4.821652  3.245558
  S     3.712051  8.360047  3.377871
