16  
    
  C     9.091223  7.197787  2.271340
  C     9.061745 10.653819  2.361398
  C     7.890879  6.607632  1.697433
  C     7.841664 10.154781  1.776934
  N    10.075629  7.184098  1.364247
  N    10.025207 10.743767  1.453823
  N     7.933520  6.325301  0.397452
  N     7.921484  9.867533  0.471009
  N     7.328219  6.736486  4.178001
  N     7.191012 10.606501  4.244758
  S     6.590609  6.342234  2.750123
  S     6.457269 10.081510  2.815216
  S     9.479756  6.657690 -0.091203
  S     9.444254 10.350511  0.014719
  S     8.912673  7.211397  4.076084
  S     8.813902 10.889241  4.096355
