16  
    
  C     8.925548  6.978612  2.245845
  C     9.003738 10.552766  2.434788
  C     7.706250  6.542202  1.572398
  C     7.774986 10.078445  1.808847
  N     9.938068  7.213063  1.439339
  N    10.001735 10.706843  1.614802
  N     7.900122  6.340909  0.266082
  N     7.891239  9.815811  0.500958
  N     7.182224  6.711073  4.114730
  N     7.302002 10.373489  4.279049
  S     6.404028  6.297700  2.745653
  S     6.425092 10.096318  2.883581
  S     9.459083  6.752856 -0.087100
  S     9.468934 10.224487  0.068019
  S     8.790757  7.227441  3.914804
  S     8.906696 10.772721  4.117481
