16  
    
  C     9.731861  7.674024  2.893445
  C     9.940742 11.173059  2.799122
  C     8.627711  7.112259  2.105247
  C     8.637248 10.866620  2.142060
  N    10.783333  7.839171  2.130684
  N    10.927845 11.300931  1.909009
  N     8.863524  6.943411  0.809533
  N     8.712251 10.690469  0.832014
  N     7.826432  7.601305  4.486933
  N     8.144713 11.015552  4.704695
  S     7.255528  6.819184  3.149280
  S     7.293841 10.899148  3.271671
  S    10.412425  7.500003  0.563670
  S    10.296947 10.986964  0.460706
  S     9.484171  7.866550  4.571359
  S     9.788143 11.212569  4.509683
