16  
    
  C    10.968227  8.033062  3.082008
  C    11.626331 11.676986  3.126762
  C     9.749646  7.532939  2.507391
  C    10.473842 11.103655  2.466892
  N    11.991355  8.030143  2.249394
  N    12.685489 11.974490  2.352993
  N     9.846352  7.221856  1.215968
  N    10.662714 11.073316  1.147596
  N     9.194433  7.995285  4.944694
  N     9.619291 11.552907  4.907949
  S     8.481069  7.237518  3.729292
  S     8.965342 11.029759  3.416087
  S    11.383368  7.608166  0.758560
  S    12.237770 11.531583  0.859408
  S    10.843389  8.342938  4.773922
  S    11.253496 12.081343  4.774774
