16  
    
  C     4.968223  4.731358  1.678069
  C     4.735001  8.883506  1.737099
  C     3.597680  4.593245  1.237791
  C     3.486992  8.365692  1.243792
  N     5.870568  4.919729  0.716627
  N     5.637529  9.090814  0.783119
  N     3.512635  4.480803 -0.087319
  N     3.434130  8.359529 -0.087700
  N     3.405084  4.469219  3.772718
  N     3.186878  8.603673  3.807283
  S     2.370409  4.437618  2.460316
  S     2.276290  8.267013  2.516644
  S     5.041616  4.769484 -0.760755
  S     4.873986  8.845967 -0.657940
  S     5.024484  4.867204  3.439744
  S     4.786330  8.870432  3.488168
