16  
    
  C     8.654139  7.272620  2.686014
  C     8.931053 11.095476  2.260674
  C     7.452007  6.696699  2.130435
  C     7.764248 10.631255  1.531266
  N     9.557552  7.537456  1.749113
  N     9.936854 11.378120  1.406808
  N     7.572060  6.385253  0.837386
  N     7.883326 10.546386  0.204887
  N     7.079843  6.958092  4.644295
  N     7.260707 10.392679  4.032841
  S     6.358225  6.179969  3.353665
  S     6.479732 10.164312  2.582050
  S     9.021600  6.939616  0.345751
  S     9.453804 11.119683 -0.095706
  S     8.638598  7.451502  4.418081
  S     8.789352 11.015508  3.950027
