16  
    
  C     7.867324  6.185543  2.172300
  C     8.037654 10.330850  2.182337
  C     6.611917  5.872868  1.520300
  C     6.856468  9.794545  1.511812
  N     8.859113  6.579191  1.388602
  N     9.053356 10.609802  1.383275
  N     6.747134  5.794840  0.190561
  N     7.029052  9.592603  0.224816
  N     6.218730  5.785198  4.036690
  N     6.296850 10.140083  4.083532
  S     5.382983  5.465233  2.679621
  S     5.525869  9.680968  2.647392
  S     8.316847  6.321740 -0.132679
  S     8.636972 10.144993 -0.135303
  S     7.847711  6.281502  3.854576
  S     7.897896 10.585472  3.889461
