16  
    
  C     9.309474  6.802072  2.371947
  C     9.436318 10.558334  2.757582
  C     8.141817  6.312023  1.697324
  C     8.184316 10.341765  2.159981
  N    10.406980  6.859218  1.618224
  N    10.521666 10.394200  2.035166
  N     8.305852  6.079853  0.401223
  N     8.305126 10.003452  0.874345
  N     7.382973  6.551167  4.098618
  N     7.662244 10.925856  4.574620
  S     6.741886  6.199018  2.642701
  S     6.819198 10.592332  3.210594
  S     9.835852  6.423157  0.089629
  S     9.871938 10.014557  0.536128
  S     9.036608  6.812292  4.118822
  S     9.319003 10.898564  4.478811
