16  
    
  C     6.032995  5.649900  2.092530
  C     6.048808  9.133575  1.583524
  C     4.727113  5.384620  1.520581
  C     4.804653  8.706259  0.938520
  N     7.081996  5.546705  1.275020
  N     7.047960  9.382697  0.735798
  N     4.743243  5.257662  0.189011
  N     4.936740  8.450795 -0.363072
  N     4.433465  5.841947  4.064474
  N     4.212444  9.159673  3.407209
  S     3.526617  5.720964  2.682345
  S     3.447965  8.693041  2.077668
  S     6.388174  5.342981 -0.216618
  S     6.474296  8.842157 -0.789300
  S     6.003493  5.871845  3.802892
  S     5.875888  9.466391  3.287056
