16  
    
  C     9.546299  7.646114  2.664231
  C    10.163204 11.203599  2.621826
  C     8.442171  6.916624  2.109968
  C     8.837058 10.910344  2.025959
  N    10.593773  7.801346  1.847777
  N    11.127216 11.343322  1.710901
  N     8.700162  6.458643  0.892290
  N     8.887336 10.742436  0.698344
  N     7.840014  7.250895  4.605166
  N     8.444182 10.983094  4.573634
  S     7.162218  6.608548  3.190102
  S     7.560572 10.743924  3.174074
  S    10.166946  7.021991  0.439383
  S    10.451188 11.063773  0.282195
  S     9.330179  8.020310  4.357082
  S    10.027074 11.585610  4.324243
