16  
    
  C     6.885858  5.849255  2.192749
  C     7.160301  9.766567  2.262935
  C     5.830008  5.463065  1.313178
  C     5.967050  9.448409  1.596594
  N     8.085320  6.027275  1.657394
  N     8.252442  9.988080  1.534230
  N     6.246012  5.202628  0.077017
  N     6.132042  9.375968  0.263467
  N     4.761126  5.576575  3.671238
  N     5.489435  9.392534  4.112217
  S     4.331809  5.268064  2.139565
  S     4.657721  9.384415  2.779704
  S     7.865346  5.571221  0.077520
  S     7.713721  9.690947 -0.045152
  S     6.322649  6.151746  3.828955
  S     7.067070 10.032759  3.991922
