16  
    
  C     6.587086  5.771075  1.909818
  C     6.628996  9.585405  1.910158
  C     5.334765  5.438207  1.350237
  C     5.385210  9.223843  1.324352
  N     7.572170  5.825974  1.020149
  N     7.634632  9.706802  1.038862
  N     5.287374  5.318875  0.027286
  N     5.379759  8.930110  0.029398
  N     4.974166  5.826890  3.908053
  N     4.986364  9.241717  3.842332
  S     4.108393  5.451149  2.543892
  S     4.157907  8.956946  2.526565
  S     6.893809  5.501552 -0.454994
  S     6.919627  9.235924 -0.458950
  S     6.597970  5.985426  3.645831
  S     6.553679  9.731211  3.652588
