16  
    
  C     9.222372  6.849323  2.822724
  C     9.670137 10.817532  2.643971
  C     8.032427  6.463886  2.112545
  C     8.547320 10.237202  2.020030
  N    10.247835  7.247191  2.068178
  N    10.591599 11.319519  1.813963
  N     8.180869  6.477468  0.788116
  N     8.623840 10.143769  0.712703
  N     7.544889  6.476439  4.690446
  N     8.048317 10.171672  4.562021
  S     6.771712  5.994362  3.266093
  S     7.323148  9.640103  3.120673
  S     9.730280  6.997957  0.531617
  S    10.065746 10.864119  0.288078
  S     9.141693  7.005426  4.516514
  S     9.564350 10.910019  4.404435
