16  
    
  C     5.727535  5.719419  1.820673
  C     5.918016  8.978997  2.128035
  C     4.493530  5.261097  1.196909
  C     4.652389  8.754053  1.439788
  N     6.819833  5.495566  1.069844
  N     6.956491  9.077759  1.295063
  N     4.666506  4.962374 -0.082036
  N     4.792043  8.502806  0.148403
  N     4.033491  5.595212  3.694399
  N     4.094082  8.819612  3.888663
  S     3.204827  5.193060  2.316229
  S     3.311042  8.542541  2.490323
  S     6.265720  5.029805 -0.409642
  S     6.459145  8.700077 -0.205244
  S     5.616652  5.715639  3.539796
  S     5.757008  9.053868  3.825686
