16  
    
  C     9.293911  6.881642  2.511568
  C     8.915654 10.917111  2.325708
  C     8.008374  6.479487  1.908742
  C     7.717349 10.364512  1.687835
  N    10.247698  7.105053  1.616540
  N     9.968824 11.056563  1.542066
  N     8.033274  6.233367  0.596943
  N     7.883464 10.112223  0.381308
  N     7.571561  6.934710  4.458242
  N     7.183494 10.602480  4.215554
  S     6.717138  6.358772  3.113497
  S     6.432414 10.096766  2.850632
  S     9.542714  6.765845  0.061412
  S     9.387595 10.576523 -0.014659
  S     9.143094  7.357422  4.184385
  S     8.695150 11.251290  3.994930
