16  
    
  C     4.782005  4.893548  2.123427
  C     4.707129  8.843537  1.632387
  C     3.586127  4.711066  1.316392
  C     3.547268  8.320309  0.974150
  N     5.852827  5.085266  1.330641
  N     5.713096  9.154028  0.835515
  N     3.761014  4.532182  0.005732
  N     3.517905  8.463112 -0.340481
  N     2.790657  4.780860  3.748811
  N     3.120398  8.215643  3.471010
  S     2.158437  4.545348  2.218771
  S     2.266462  7.893487  2.065730
  S     5.327885  4.829591 -0.233299
  S     5.091155  8.962053 -0.735049
  S     4.424388  5.115834  3.814867
  S     4.625906  8.862696  3.370999
