16  
    
  C    11.885622  8.566650  3.205332
  C    11.401759 12.312026  3.446053
  C    10.588240  8.282427  2.583617
  C    10.253853 11.696261  2.832818
  N    12.821183  8.825376  2.314591
  N    12.476981 12.411161  2.627970
  N    10.617930  8.289054  1.256653
  N    10.377093 11.540670  1.516474
  N    10.211424  7.973338  5.128060
  N     9.657720 11.609837  5.193397
  S     9.341227  7.878188  3.758003
  S     8.946459 11.133605  3.821415
  S    12.158801  8.579235  0.800829
  S    11.899550 12.003733  1.135982
  S    11.846746  8.476559  4.967411
  S    11.112655 12.273325  5.185453
