16  
    
  C     7.315380  6.024408  2.239067
  C     7.752029  9.597597  2.346740
  C     6.187627  5.495275  1.516458
  C     6.454649  9.325055  1.745954
  N     8.389080  6.193034  1.457035
  N     8.720614  9.784055  1.469663
  N     6.361758  5.464728  0.204134
  N     6.496041  9.285065  0.434311
  N     5.417195  5.670935  3.950097
  N     5.887284  9.769972  4.200336
  S     4.771526  5.238889  2.387126
  S     5.103887  9.265834  2.722064
  S     7.877931  5.907146 -0.087567
  S     8.087727  9.617379 -0.029426
  S     7.034658  6.021216  3.965426
  S     7.555906  9.761685  4.113505
