16  
    
  C    12.829289  9.416124  3.407546
  C    12.806262 12.933914  3.549999
  C    11.685246  8.768278  2.801019
  C    11.523757 12.617353  2.977950
  N    13.955808  9.377468  2.678597
  N    13.843530 12.993178  2.703679
  N    11.860530  8.481362  1.500362
  N    11.607098 12.262221  1.705162
  N    11.084783  9.021780  5.318623
  N    11.047510 12.976914  5.495123
  S    10.385181  8.499429  3.883844
  S    10.294506 12.443815  4.116652
  S    13.430221  8.854891  1.190808
  S    13.196519 12.366494  1.217742
  S    12.550942  9.738105  5.146168
  S    12.719419 13.199230  5.246964
