16  
    
  C     5.511462  5.275191  1.818405
  C     5.200858  8.962614  1.684321
  C     4.148745  5.224262  1.287467
  C     4.015668  8.435253  0.985777
  N     6.458431  5.334635  0.881119
  N     6.292480  9.011914  0.910977
  N     4.147028  5.016191 -0.033226
  N     4.171986  8.368819 -0.347621
  N     4.021603  5.140784  3.832166
  N     3.406888  8.640678  3.502045
  S     3.003773  5.087033  2.603366
  S     2.673655  8.207150  2.084836
  S     5.711809  5.267462 -0.550436
  S     5.767032  8.687491 -0.649845
  S     5.608824  5.420642  3.528255
  S     4.909388  9.273107  3.434042
