16  
    
  C    10.722448  8.453579  3.178022
  C    10.689160 11.929023  3.187495
  C     9.563620  7.824664  2.619768
  C     9.541516 11.407891  2.513989
  N    11.737791  8.604456  2.339368
  N    11.776973 11.988348  2.430993
  N     9.715193  7.519562  1.340652
  N     9.741980 11.304897  1.187066
  N     8.931216  8.205899  5.106062
  N     8.891640 11.753349  4.973013
  S     8.271889  7.511269  3.726083
  S     8.195902 11.107942  3.572805
  S    11.211861  7.994064  0.922575
  S    11.297635 11.556896  0.891853
  S    10.574346  8.774087  4.914593
  S    10.524430 12.042338  4.950416
