16  
    
  C     5.706149  5.195913  1.873886
  C     5.664257  9.188296  2.002661
  C     4.640335  4.487885  1.258951
  C     4.525146  8.551033  1.420573
  N     6.803902  5.326889  1.093898
  N     6.562959  9.627327  1.124755
  N     4.822640  4.277522 -0.044837
  N     4.656837  8.271616  0.113610
  N     3.987264  4.684082  3.712157
  N     4.119607  8.705410  3.989030
  S     3.230957  4.325889  2.286270
  S     3.312239  8.236776  2.623169
  S     6.363663  4.759822 -0.379889
  S     6.069972  8.999943 -0.310377
  S     5.466642  5.385948  3.631439
  S     5.639103  9.461021  3.741329
