16  
    
  C     9.973363  7.590872  2.655414
  C     9.878737 11.276825  2.992504
  C     8.669370  7.382024  2.062581
  C     8.700521 10.786995  2.255218
  N    10.984827  7.716858  1.769134
  N    10.936553 11.561910  2.212513
  N     8.714797  7.285685  0.727655
  N     8.956863 10.609939  0.960680
  N     8.135825  7.370109  4.599352
  N     7.981996 11.077351  4.714189
  S     7.368359  7.206665  3.117473
  S     7.386694 10.487633  3.283492
  S    10.257277  7.556675  0.268438
  S    10.483778 11.113035  0.636066
  S     9.766358  7.778582  4.433086
  S     9.637318 11.402722  4.695038
