16  
    
  C     7.868973  6.224003  2.171857
  C     8.071531 10.406708  2.186580
  C     6.637966  5.792791  1.506950
  C     6.894317  9.804903  1.543772
  N     8.865443  6.590920  1.357956
  N     9.086656 10.754006  1.392433
  N     6.788922  5.815604  0.179642
  N     7.092741  9.603101  0.227081
  N     6.246028  5.737897  4.062864
  N     6.275630 10.131203  4.055101
  S     5.326479  5.481497  2.645996
  S     5.527242  9.694293  2.624461
  S     8.270491  6.311705 -0.161587
  S     8.613520 10.129593 -0.145981
  S     7.834123  6.301126  3.866905
  S     7.905666 10.616429  3.912171
