16  
    
  C     4.899974  4.797856  1.635961
  C     4.843046  8.735992  1.759771
  C     3.582662  4.475124  1.156244
  C     3.499916  8.409400  1.264595
  N     5.811368  4.924688  0.684228
  N     5.702772  9.044260  0.776630
  N     3.462538  4.626325 -0.176302
  N     3.407501  8.242451 -0.055420
  N     3.528657  4.594571  3.810158
  N     3.237369  8.663553  3.873509
  S     2.449897  4.428725  2.525871
  S     2.310992  8.287518  2.495621
  S     5.054577  4.789233 -0.732850
  S     4.920600  8.722239 -0.654961
  S     5.125704  4.817093  3.336555
  S     4.843834  8.938014  3.512551
