16  
    
  C     7.996027  6.732980  2.663008
  C     8.632611 10.368577  2.592098
  C     6.889286  6.130637  1.963222
  C     7.383055  9.940594  2.013481
  N     9.108200  6.769283  1.914223
  N     9.664425 10.329471  1.779054
  N     7.078780  5.948198  0.664923
  N     7.425097  9.637290  0.701979
  N     6.110057  6.221713  4.364542
  N     6.906507 10.242641  4.528470
  S     5.434002  5.892152  2.871130
  S     6.098492  9.776981  3.160183
  S     8.608500  6.317905  0.358406
  S     8.991313  9.948433  0.213249
  S     7.646606  6.809953  4.404513
  S     8.493652 10.720431  4.299323
