16  
    
  C    12.741290  9.271594  3.345993
  C    12.649136 12.985853  3.541589
  C    11.512543  8.815773  2.776672
  C    11.501404 12.469463  2.843589
  N    13.805170  9.302675  2.525868
  N    13.727970 13.272775  2.829618
  N    11.645139  8.475262  1.472952
  N    11.781424 12.231726  1.571872
  N    10.981051  8.991381  5.291222
  N    10.823466 12.556560  5.297035
  S    10.209156  8.570574  3.837138
  S    10.180301 12.060895  3.863094
  S    13.182481  8.829961  1.067984
  S    13.376098 12.591485  1.268660
  S    12.627522  9.498167  5.095380
  S    12.334823 13.237407  5.257158
