16  
    
  C     6.775748  6.111659  2.373965
  C     7.258131  9.616750  2.139020
  C     5.665691  5.457425  1.746137
  C     5.998872  9.343397  1.510921
  N     7.644575  6.670162  1.520575
  N     8.292360  9.685079  1.303501
  N     5.776765  5.284869  0.429915
  N     6.042510  9.287601  0.196313
  N     5.252940  5.173846  4.301544
  N     5.483414  9.613642  4.051204
  S     4.576874  4.796015  2.872897
  S     4.681568  9.441499  2.583275
  S     7.119247  6.166746  0.033099
  S     7.560051  9.503514 -0.262822
  S     6.567934  6.231237  4.096380
  S     7.137721  9.800687  3.910319
