16  
    
  C     4.377063  5.074259  1.355860
  C     4.260262  8.497852  1.672646
  C     3.111088  4.617640  0.776221
  C     3.084503  8.250661  0.807986
  N     5.402435  5.070022  0.520426
  N     5.320359  8.868098  0.956350
  N     3.163208  4.481367 -0.535574
  N     3.356157  8.208728 -0.488536
  N     2.789572  5.027159  3.248271
  N     2.346839  7.744723  3.152593
  S     1.820384  4.628684  1.947227
  S     1.686335  7.762736  1.655337
  S     4.776656  4.894785 -1.006343
  S     4.888235  8.723888 -0.627171
  S     4.459746  5.112582  3.068000
  S     3.810256  8.550613  3.315645
