16  
    
  C     5.364590  5.597483  1.688618
  C     5.257144  8.939983  1.773551
  C     4.195385  5.149008  0.916959
  C     4.052408  8.669981  1.032842
  N     6.477232  5.731845  0.940475
  N     6.340407  9.193809  1.024471
  N     4.444743  5.140141 -0.404978
  N     4.269418  8.548232 -0.280685
  N     3.487217  5.240609  3.470547
  N     3.316649  8.719268  3.491568
  S     2.736091  5.072946  1.921305
  S     2.730584  8.190498  2.049954
  S     6.069090  5.359670 -0.609227
  S     5.826622  8.873822 -0.531038
  S     5.104413  5.718105  3.397889
  S     4.971272  8.874088  3.494946
