16  
    
  C     5.582740  5.479269  1.943131
  C     5.549116  8.971156  1.848763
  C     4.394669  4.804542  1.429134
  C     4.402016  8.428301  1.154594
  N     6.486174  5.728254  0.995071
  N     6.598168  9.241849  1.074176
  N     4.521731  4.428574  0.145070
  N     4.588297  8.313388 -0.169707
  N     4.070502  4.871786  4.034232
  N     3.860407  8.437348  3.726041
  S     3.203042  4.461230  2.629160
  S     3.076460  8.145605  2.259710
  S     5.907700  5.117280 -0.417769
  S     6.102998  8.827253 -0.461209
  S     5.548023  5.691912  3.693333
  S     5.374336  9.125207  3.605536
