16  
    
  C    12.351969  8.950942  3.554443
  C    12.454047 12.720499  3.414490
  C    11.102731  8.535104  3.007097
  C    11.300416 12.088731  2.825121
  N    13.404845  9.030714  2.718143
  N    13.452707 12.798669  2.553396
  N    11.154632  8.234692  1.685830
  N    11.352854 11.901423  1.510667
  N    10.682236  9.163700  5.599147
  N    10.693337 12.599374  5.310421
  S     9.813580  8.653048  4.180549
  S     9.902440 12.022320  3.945002
  S    12.820747  8.472541  1.275128
  S    12.840861 12.462834  1.060692
  S    12.287007  9.459225  5.198805
  S    12.374364 13.067774  5.128045
