16  
    
  C    11.321231  8.527005  3.350052
  C    11.441902 12.230101  3.308428
  C    10.160529  7.880723  2.691509
  C    10.191883 11.756576  2.840956
  N    12.403535  8.630679  2.568224
  N    12.429411 12.237554  2.382048
  N    10.395756  7.487464  1.435338
  N    10.256468 11.269157  1.601029
  N     9.500426  8.335839  5.187704
  N     9.789612 12.221942  5.413057
  S     8.789933  7.831875  3.735924
  S     8.880331 11.801892  4.017477
  S    11.974016  7.893342  1.135527
  S    11.760324 11.594963  0.997938
  S    11.107502  8.824810  5.056729
  S    11.351283 12.808314  4.948432
