16  
    
  C     6.651770  5.656567  1.941753
  C     6.632698  9.496235  2.026737
  C     5.388635  5.493316  1.344540
  C     5.387108  9.099510  1.472207
  N     7.688473  5.809762  1.111131
  N     7.621393  9.593072  1.154549
  N     5.424550  5.332935  0.024042
  N     5.390860  8.929306  0.132874
  N     4.976012  5.857250  3.909843
  N     5.093008  9.343817  4.101929
  S     4.166599  5.410316  2.523257
  S     4.148862  9.047775  2.780784
  S     7.016448  5.613390 -0.389614
  S     6.934510  9.382986 -0.322892
  S     6.595093  5.938274  3.665500
  S     6.624680  9.823569  3.757956
