16  
    
  C     4.728835  4.985700  2.006374
  C     4.728303  8.866204  1.672398
  C     3.541735  4.662521  1.275588
  C     3.477508  8.463143  1.037559
  N     5.871616  4.996799  1.324646
  N     5.673210  9.187687  0.792666
  N     3.742000  4.505974 -0.012934
  N     3.546356  8.524010 -0.293814
  N     2.851355  4.813535  3.795509
  N     3.092483  8.168002  3.576945
  S     2.153102  4.493637  2.322741
  S     2.259542  7.940998  2.141973
  S     5.380150  4.832223 -0.273720
  S     5.030868  8.992521 -0.723516
  S     4.511265  5.049984  3.716438
  S     4.644039  8.874947  3.415008
