16  
    
  C     4.170831  4.856547  1.655281
  C     4.083314  8.318305  1.530582
  C     2.915005  4.467797  1.009351
  C     2.850854  7.967728  0.821003
  N     5.202731  4.793891  0.785162
  N     5.090891  8.586500  0.724414
  N     2.973938  4.390050 -0.310742
  N     3.048713  7.647402 -0.465736
  N     2.376741  4.731407  3.463571
  N     2.196694  8.360884  3.267261
  S     1.532129  4.355793  2.105998
  S     1.449572  7.944206  1.857945
  S     4.551094  4.397821 -0.692797
  S     4.615303  8.074939 -0.815851
  S     4.015475  5.003145  3.363140
  S     3.838500  8.649528  3.227423
