16  
    
  C     4.648631  5.101034  1.978635
  C     4.659897  8.631013  1.400231
  C     3.465223  4.692999  1.275870
  C     3.477138  8.146815  0.757371
  N     5.642349  5.321537  1.108726
  N     5.718602  8.717616  0.606139
  N     3.521791  4.503854 -0.027215
  N     3.666774  7.901792 -0.528395
  N     2.666266  4.840598  3.705093
  N     2.858806  8.316373  3.226711
  S     2.017670  4.484754  2.207891
  S     2.084285  7.966421  1.839995
  S     5.071934  4.973016 -0.439267
  S     5.237616  8.290973 -0.887487
  S     4.263791  5.235900  3.690155
  S     4.411728  8.840578  3.134266
