16  
    
  C     4.547227  5.087489  1.635448
  C     4.131188  8.705217  1.655550
  C     3.262499  4.800751  1.022684
  C     3.007022  8.318439  0.788877
  N     5.509518  4.998529  0.739058
  N     5.189826  9.150443  0.972852
  N     3.231710  4.610775 -0.288766
  N     3.318216  8.332273 -0.504976
  N     2.707228  5.054342  3.500466
  N     2.217104  8.029770  3.221637
  S     1.905062  4.602265  2.089628
  S     1.662027  7.696161  1.699172
  S     4.786874  4.827296 -0.753406
  S     4.882621  8.908510 -0.599034
  S     4.375513  5.238410  3.438735
  S     3.767750  8.435738  3.332230
