16  
    
  C     6.002405  5.070040  1.625001
  C     6.012582  9.103937  2.000427
  C     4.736421  4.681409  1.022383
  C     4.756360  8.691196  1.333153
  N     6.993247  5.268994  0.760185
  N     7.073660  9.168478  1.196659
  N     4.773761  4.557034 -0.310051
  N     4.913894  8.464464  0.018161
  N     4.217848  4.853848  3.496183
  N     4.251013  8.864262  3.866722
  S     3.410697  4.543535  2.118316
  S     3.368756  8.603597  2.487712
  S     6.359064  4.884978 -0.724242
  S     6.471340  8.744518 -0.343363
  S     5.842002  5.166313  3.336453
  S     5.857442  9.147574  3.736314
