16  
    
  C     5.124303  5.383814  1.818675
  C     5.137891  8.782665  1.352143
  C     3.843270  5.015389  1.311607
  C     3.841216  8.298567  0.838158
  N     6.136612  5.342708  0.951454
  N     6.093575  8.903955  0.442637
  N     3.916776  4.541439  0.074248
  N     3.820575  8.051360 -0.463405
  N     3.503361  5.627905  3.791139
  N     3.465375  8.912118  3.321822
  S     2.537617  5.276039  2.476866
  S     2.587779  8.333950  2.016257
  S     5.482629  4.805139 -0.449415
  S     5.373428  8.440517 -0.991335
  S     5.150016  5.869140  3.474412
  S     5.070817  9.096294  3.036139
