16  
    
  C    12.533671  9.011114  3.437497
  C    12.223505 12.850794  3.582633
  C    11.355419  8.525316  2.745146
  C    11.130607 12.059134  3.051673
  N    13.550676  9.274693  2.647447
  N    13.186994 13.198224  2.706200
  N    11.551838  8.280294  1.462305
  N    11.187666 11.957728  1.729909
  N    10.761777  8.627460  5.290560
  N    10.704963 12.342300  5.565553
  S     9.973138  8.252009  3.889830
  S     9.826887 11.839789  4.176932
  S    13.103687  8.877527  1.084663
  S    12.692856 12.624029  1.272945
  S    12.405030  9.035956  5.089387
  S    12.108527 13.152223  5.306383
