16  
    
  C    12.754645  9.025617  3.465983
  C    12.752718 12.752101  3.413190
  C    11.547836  8.421934  3.027843
  C    11.529739 12.365053  2.749601
  N    13.640638  9.383450  2.520917
  N    13.794086 12.954626  2.628942
  N    11.483439  8.320603  1.690950
  N    11.751311 12.031177  1.476579
  N    11.108386  9.093699  5.561834
  N    11.040848 12.344140  5.305233
  S    10.309185  8.367462  4.223191
  S    10.288582 11.936943  3.901421
  S    12.992077  8.882582  1.092926
  S    13.280429 12.518923  1.078306
  S    12.739212  9.267691  5.212164
  S    12.601071 12.848773  5.146265
