16  
    
  C     9.289028  6.622776  2.552769
  C     9.623161 10.618408  2.799004
  C     8.112803  6.291310  1.819641
  C     8.405601 10.239253  2.211087
  N    10.296365  6.879625  1.716988
  N    10.604231 10.851847  1.919340
  N     8.161534  6.256380  0.487357
  N     8.438535 10.051318  0.908392
  N     7.383883  6.392449  4.273405
  N     8.012141 10.458159  4.747262
  S     6.715106  6.014911  2.809404
  S     7.128693  9.965722  3.427627
  S     9.677008  6.703901  0.157507
  S     9.929395 10.430582  0.435204
  S     9.016282  6.814153  4.286330
  S     9.609541 10.939418  4.496983
