16  
    
  C     5.129374  5.024152  2.084868
  C     5.166539  8.695437  1.712373
  C     3.862233  4.904703  1.387369
  C     3.915137  8.423600  0.964268
  N     6.171633  5.086447  1.268714
  N     6.292883  8.549881  0.986623
  N     3.993935  4.631271  0.080687
  N     4.071894  8.335826 -0.364879
  N     3.284656  5.453560  3.789804
  N     3.262893  8.531052  3.459951
  S     2.485330  5.148648  2.395621
  S     2.512614  8.429656  1.995595
  S     5.618698  4.728116 -0.225687
  S     5.775035  8.291975 -0.591696
  S     4.921760  5.665425  3.711489
  S     4.876786  8.833983  3.432726
