16  
    
  C     9.830554  7.443675  2.601948
  C    10.332062 11.406318  2.574212
  C     8.665181  6.695007  2.074861
  C     9.115578 10.836359  1.969705
  N    10.739990  7.683647  1.631290
  N    11.287592 11.549448  1.669710
  N     8.665116  6.387264  0.781521
  N     9.181993 10.655605  0.651764
  N     7.970062  7.370991  4.408058
  N     8.655653 11.100345  4.442348
  S     7.294226  6.549790  3.150294
  S     7.787720 10.841568  3.080699
  S    10.066640  7.057702  0.194369
  S    10.701706 11.104670  0.186742
  S     9.524423  7.929898  4.219506
  S    10.249373 11.546238  4.272890
