16  
    
  C     4.454711  5.068108  1.722976
  C     4.578158  8.486420  1.473800
  C     3.238741  4.628980  1.093583
  C     3.358047  8.002443  0.820631
  N     5.450780  5.443265  0.946470
  N     5.625260  8.500086  0.666189
  N     3.390520  4.519881 -0.214343
  N     3.512688  7.831948 -0.483635
  N     2.844863  4.749919  3.646865
  N     2.726971  8.599993  3.191695
  S     1.950463  4.484427  2.247150
  S     2.026832  7.891576  1.882572
  S     5.015810  4.974364 -0.556874
  S     5.086786  8.078251 -0.796685
  S     4.385826  5.348138  3.407782
  S     4.317982  8.901712  3.107448
