16  
    
  C     5.525578  5.516872  1.913133
  C     5.567604  8.923419  1.865033
  C     4.442901  4.746191  1.442954
  C     4.400777  8.468846  1.156450
  N     6.482551  5.763633  1.017280
  N     6.548498  9.272985  1.043692
  N     4.463373  4.535432  0.136883
  N     4.562251  8.250509 -0.139603
  N     4.085441  4.873338  4.020798
  N     3.799438  8.484575  3.702071
  S     3.193008  4.540815  2.668175
  S     3.024657  8.148089  2.166322
  S     5.895752  5.145439 -0.405857
  S     6.122883  8.798459 -0.486191
  S     5.555542  5.642408  3.642798
  S     5.351498  9.127057  3.588197
