16  
    
  C    11.297182  8.167862  3.264081
  C    11.455439 11.692065  3.285889
  C    10.019303  7.825888  2.673481
  C    10.146061 11.372962  2.752758
  N    12.316416  8.077254  2.403063
  N    12.422563 11.757175  2.363817
  N    10.153380  7.549382  1.371833
  N    10.092142 11.366577  1.421392
  N     9.518963  8.273418  5.075755
  N     9.727450 12.016778  5.210658
  S     8.677431  7.637805  3.771125
  S     8.800076 11.703588  3.865554
  S    11.711633  7.736751  0.926422
  S    11.643841 11.461129  0.930792
  S    11.109710  8.472328  4.960679
  S    11.379647 12.007845  4.993227
