16  
    
  C     8.374858  6.592712  2.296991
  C     8.121555 10.135820  2.626992
  C     7.114706  6.127692  1.673700
  C     7.034309  9.485276  1.913661
  N     9.374990  6.730005  1.441316
  N     9.186644 10.420590  1.850398
  N     7.286566  5.782159  0.391739
  N     7.327981  9.288612  0.646540
  N     6.678014  6.463446  4.275072
  N     6.255605  9.775159  4.339587
  S     5.819838  6.063283  2.875983
  S     5.675040  9.149248  2.912273
  S     8.911857  6.165458 -0.013751
  S     8.883031  9.869679  0.367153
  S     8.182768  7.096491  3.912996
  S     7.778391 10.472668  4.258113
