16  
    
  C     6.688312  5.762829  1.931981
  C     6.674158  9.483837  1.997396
  C     5.408630  5.404730  1.404179
  C     5.371572  9.130422  1.458092
  N     7.672307  5.742426  1.041298
  N     7.615469  9.629786  1.095125
  N     5.418868  5.349885  0.084166
  N     5.362458  8.984867  0.139223
  N     4.945940  5.890350  3.807701
  N     5.049178  9.327692  3.988747
  S     4.050086  5.431112  2.514929
  S     4.091387  8.998083  2.631292
  S     6.972314  5.591584 -0.465762
  S     6.919846  9.314623 -0.409020
  S     6.631011  5.943978  3.639258
  S     6.644086  9.822709  3.705334
