16  
    
  C    12.787620  9.239063  3.416409
  C    12.664997 13.119261  3.583333
  C    11.582052  8.715967  2.814874
  C    11.573020 12.456921  2.918724
  N    13.779156  9.441501  2.557557
  N    13.736213 13.182054  2.799686
  N    11.701528  8.420806  1.512710
  N    11.730381 12.156389  1.626340
  N    10.957789  9.175602  5.183277
  N    10.840230 12.598954  5.390275
  S    10.260390  8.644023  3.828161
  S    10.210009 12.121369  3.905989
  S    13.240868  8.904182  1.049943
  S    13.288033 12.604272  1.360929
  S    12.550643  9.474636  5.151108
  S    12.360780 13.198944  5.275449
