16  
    
  C     6.970739  5.966657  1.663166
  C     7.344098  9.884095  2.501005
  C     5.876713  5.142972  1.203131
  C     6.032028  9.541008  1.933335
  N     7.937839  6.184623  0.759888
  N     8.316572  9.828587  1.580502
  N     6.019599  4.712814 -0.053915
  N     6.040387  9.160477  0.656276
  N     5.163893  5.795425  3.577817
  N     5.507202  9.883495  4.397946
  S     4.559795  4.983702  2.330118
  S     4.679681  9.543318  3.024614
  S     7.393225  5.414250 -0.623065
  S     7.635459  9.406026  0.138452
  S     6.702666  6.405034  3.360086
  S     7.159059 10.251435  4.206997
