16  
    
  C     7.876143  6.419144  2.244157
  C     8.105911 10.529327  2.135545
  C     6.711160  5.916494  1.569740
  C     6.905193  9.960128  1.622038
  N     8.929260  6.591002  1.438014
  N     9.019891 10.598262  1.183184
  N     6.789293  5.875136  0.253777
  N     6.839152  9.687691  0.333855
  N     5.970652  6.254945  4.003421
  N     6.462467 10.255878  4.120259
  S     5.350949  5.627801  2.582611
  S     5.665142  9.701035  2.777841
  S     8.401359  6.337320 -0.128441
  S     8.374276 10.193079 -0.254732
  S     7.610710  6.448338  4.010672
  S     7.927773 10.960033  3.869225
