16  
    
  C    12.024626  8.457607  3.271468
  C    11.900041 12.210860  3.158471
  C    10.712722  8.294505  2.729564
  C    10.610794 11.940949  2.596084
  N    13.026388  8.700944  2.389397
  N    12.923403 12.082519  2.329609
  N    10.681351  8.312343  1.396109
  N    10.645244 11.853013  1.288207
  N    10.342623  8.429769  5.294088
  N    10.297610 11.980403  5.256586
  S     9.422364  8.194404  3.875594
  S     9.434348 11.625278  3.873016
  S    12.275526  8.560501  0.907141
  S    12.232510 11.972136  0.815521
  S    11.997311  8.706522  4.988240
  S    11.911419 12.294217  4.863421
