16  
    
  C     9.238233  6.592170  2.394347
  C     9.287922 10.523746  2.871463
  C     8.057975  6.244571  1.665301
  C     8.085373 10.422237  2.164807
  N    10.380358  6.594671  1.729836
  N    10.392510 10.323307  2.125972
  N     8.290016  6.060048  0.360875
  N     8.186967 10.070506  0.903372
  N     7.391847  6.916353  4.088858
  N     7.467579 10.835920  4.590832
  S     6.694811  6.187858  2.756819
  S     6.675730 10.749898  3.158777
  S     9.958846  6.285519  0.153312
  S     9.814157  9.921296  0.595555
  S     9.028768  7.070387  4.021787
  S     9.111147 11.041616  4.507738
