16  
    
  C    12.324898  9.161321  3.392055
  C    12.163026 12.573876  3.487900
  C    11.106641  8.715235  2.814750
  C    11.010904 12.032560  2.792172
  N    13.369190  9.295335  2.562800
  N    13.234785 12.744143  2.748552
  N    11.286863  8.412473  1.524025
  N    11.172925 11.956672  1.482500
  N    10.512019  8.926625  5.352300
  N    10.225695 12.475219  5.223821
  S     9.821863  8.350395  3.885968
  S     9.600561 12.016982  3.781824
  S    12.802991  8.751612  1.057004
  S    12.774816 12.378601  1.231718
  S    12.140295  9.378947  5.110470
  S    11.839021 12.910904  5.123791
