16  
    
  C     6.676339  6.233095  2.368158
  C     7.200031  9.704136  2.182834
  C     5.643766  5.365048  1.826610
  C     5.929210  9.498946  1.584662
  N     7.605252  6.638886  1.476327
  N     8.210505  9.808382  1.323069
  N     5.632699  5.339317  0.488781
  N     5.960235  9.338564  0.276794
  N     5.333775  5.207030  4.340886
  N     5.415189  9.361487  4.089393
  S     4.522504  4.675859  3.003595
  S     4.570299  9.461445  2.697345
  S     7.023889  6.087200  0.000523
  S     7.577353  9.496637 -0.161167
  S     6.693730  6.245812  4.165917
  S     7.071627  9.835315  3.944306
