16  
    
  C     9.217271  6.809518  2.351210
  C     9.153058 10.846059  2.949129
  C     8.049324  6.225030  1.793379
  C     7.945995 10.419342  2.392768
  N    10.340187  6.740248  1.622529
  N    10.247633 10.757448  2.179480
  N     8.221662  5.738953  0.569468
  N     8.055090 10.048886  1.108618
  N     7.420232  6.909686  4.178236
  N     7.375650 10.971862  4.805623
  S     6.655802  6.350207  2.816000
  S     6.563810 10.628014  3.401712
  S     9.796769  6.023513  0.207219
  S     9.607316 10.173321  0.715675
  S     9.035890  7.226671  4.019584
  S     9.046229 11.097590  4.667719
