16  
    
  C     6.609331  5.727443  2.096354
  C     6.489527  9.445425  1.887677
  C     5.347678  5.398895  1.431794
  C     5.326594  8.864380  1.211546
  N     7.597940  5.983162  1.244422
  N     7.557799  9.697940  1.140654
  N     5.419862  5.206861  0.101141
  N     5.488893  8.811464 -0.124095
  N     4.813327  5.767542  3.966082
  N     4.679332  9.099615  3.747935
  S     4.084786  5.210601  2.612198
  S     4.065379  8.472989  2.310711
  S     7.020639  5.611376 -0.254272
  S     7.061117  9.224949 -0.387808
  S     6.462939  6.074832  3.770279
  S     6.345187  9.506219  3.584194
