16  
    
  C     9.850963  7.765051  2.782378
  C     9.876764 11.135971  2.866256
  C     8.683434  7.290537  2.108962
  C     8.648400 10.858584  2.192275
  N    10.924820  7.952652  2.023332
  N    10.930650 11.232188  2.072707
  N     8.864207  7.128408  0.819910
  N     8.736848 10.770920  0.887390
  N     7.978923  7.383316  4.546834
  N     8.128097 10.794942  4.713714
  S     7.294476  7.099798  3.098068
  S     7.265490 10.815586  3.277879
  S    10.430469  7.557164  0.454329
  S    10.355135 11.034094  0.577565
  S     9.599917  7.755556  4.542458
  S     9.686648 11.369229  4.633363
