16  
    
  C    11.859413  8.720573  3.407126
  C    11.539417 12.278223  3.249706
  C    10.607753  8.262447  2.891613
  C    10.486968 11.559825  2.571425
  N    12.830196  8.904000  2.498633
  N    12.656634 12.456134  2.513083
  N    10.591493  8.068943  1.577546
  N    10.725639 11.434708  1.278829
  N    10.173633  8.674392  5.385482
  N     9.696004 11.923978  4.948950
  S     9.308145  8.317737  4.052340
  S     9.036536 11.204831  3.648806
  S    12.135029  8.354778  1.091071
  S    12.158229 12.095445  0.932046
  S    11.788289  9.065747  5.101257
  S    11.133805 12.600993  4.881919
