16  
    
  C     4.787784  4.895165  2.133226
  C     4.714736  8.828976  1.624506
  C     3.601738  4.701881  1.320729
  C     3.545286  8.315217  0.967705
  N     5.846660  5.095392  1.327644
  N     5.713962  9.152087  0.828144
  N     3.757076  4.545372  0.011646
  N     3.522473  8.446888 -0.349130
  N     2.782524  4.775622  3.733876
  N     3.115667  8.222369  3.461716
  S     2.152479  4.551523  2.211540
  S     2.269755  7.887837  2.058150
  S     5.326023  4.827887 -0.229024
  S     5.100483  8.957207 -0.733947
  S     4.414053  5.123619  3.826383
  S     4.620961  8.859609  3.362134
