16  
    
  C     9.204293  6.917720  2.758458
  C     9.666119 10.930723  2.679902
  C     8.027305  6.386483  2.099808
  C     8.564256 10.170441  2.057015
  N    10.235739  7.190038  1.963297
  N    10.623219 11.294452  1.819361
  N     8.158016  6.356601  0.792672
  N     8.675580 10.105599  0.766454
  N     7.498868  6.369562  4.631378
  N     8.114313 10.089108  4.601543
  S     6.745641  6.068915  3.198496
  S     7.364426  9.613534  3.209790
  S     9.694742  6.983031  0.418948
  S    10.087288 10.861180  0.280414
  S     9.030668  6.990260  4.506733
  S     9.534770 10.913598  4.429221
