16  
    
  C     8.390581  6.585839  2.269597
  C     8.107827 10.215331  2.601292
  C     7.207601  6.122082  1.685183
  C     7.072745  9.582739  1.846789
  N     9.424618  6.758316  1.466980
  N     9.240123 10.470059  1.974657
  N     7.341170  5.817461  0.397360
  N     7.385931  9.366078  0.557706
  N     6.723035  6.452158  4.232549
  N     6.273983  9.746666  4.348342
  S     5.923460  6.056598  2.906692
  S     5.719428  9.139633  2.903557
  S     8.871710  6.219872 -0.005658
  S     8.945414  9.842137  0.420303
  S     8.240874  7.087327  3.938016
  S     7.762245 10.507042  4.271175
