16  
    
  C     7.717774  6.547219  2.423521
  C     7.792051 10.145328  2.207038
  C     6.399906  6.179502  1.875032
  C     6.532162  9.894095  1.523284
  N     8.671845  6.626419  1.479503
  N     8.855193 10.106448  1.385421
  N     6.449533  5.754197  0.607170
  N     6.682117  9.595302  0.242359
  N     5.971612  6.823242  4.309562
  N     5.888981  9.969215  3.973909
  S     5.078381  6.160327  2.981722
  S     5.142242  9.921373  2.482649
  S     8.025755  6.096869  0.024819
  S     8.303598  9.749810 -0.137619
  S     7.555330  7.039378  4.117625
  S     7.517294 10.234795  3.952947
