16  
    
  C    12.365669  9.066925  3.785283
  C    12.587978 12.852327  3.550450
  C    11.303762  8.372627  3.103267
  C    11.307004 12.493720  2.961384
  N    13.297567  9.413419  2.878001
  N    13.613997 12.879641  2.711126
  N    11.390979  8.325814  1.758373
  N    11.365966 12.376649  1.656651
  N    10.531448  8.479540  5.624177
  N    10.829290 12.642155  5.455592
  S     9.953402  7.981025  4.105881
  S    10.041885 12.231972  4.016616
  S    12.795860  8.979049  1.337590
  S    12.912016 12.692232  1.183546
  S    12.092688  9.277272  5.530780
  S    12.495762 12.902204  5.294027
