16  
    
  C     9.172171  6.946386  2.395885
  C     8.952736 10.775652  2.330682
  C     7.957564  6.395444  1.817345
  C     7.719375 10.277576  1.717623
  N    10.166119  7.087000  1.535237
  N     9.955642 10.901500  1.478639
  N     8.064072  6.300269  0.484886
  N     7.860262 10.098630  0.392655
  N     7.539769  6.856083  4.356143
  N     7.163046 10.747983  4.171468
  S     6.687778  6.389873  3.057708
  S     6.429203 10.019151  2.812105
  S     9.619187  6.766443  0.065574
  S     9.461832 10.512139  0.030399
  S     9.124718  7.297888  4.054913
  S     8.776402 11.152838  4.014206
