16  
    
  C     8.004917  6.635360  2.675258
  C     8.710293 10.290387  2.673474
  C     6.864467  6.250817  1.948039
  C     7.473317  9.883257  2.098471
  N     9.100002  6.856922  1.951404
  N     9.706136 10.375427  1.796691
  N     7.051801  5.921936  0.681526
  N     7.505976  9.677335  0.781408
  N     6.075906  6.246872  4.396225
  N     6.927529 10.189642  4.554557
  S     5.507831  5.852992  2.884371
  S     6.075172  9.846031  3.139539
  S     8.668158  6.313267  0.416792
  S     9.048284 10.025002  0.346678
  S     7.664693  6.785079  4.385300
  S     8.470159 10.775513  4.368922
