16  
    
  C     4.454113  5.180112  1.632670
  C     4.273355  8.648971  1.507892
  C     3.278824  4.661075  0.957260
  C     3.031597  8.194290  0.874058
  N     5.546095  5.128229  0.853101
  N     5.272150  8.846653  0.636121
  N     3.461827  4.442596 -0.374563
  N     3.183371  7.843785 -0.416138
  N     2.723198  5.068754  3.537731
  N     2.542844  8.347792  3.475768
  S     1.900597  4.640190  2.167639
  S     1.784941  7.885675  2.027919
  S     5.048269  4.827532 -0.677217
  S     4.772688  8.240403 -0.820425
  S     4.341451  5.404427  3.371405
  S     4.101212  8.842555  3.249597
