16  
    
  C    12.710824  9.068057  3.335527
  C    12.689775 12.885896  3.490854
  C    11.398200  8.746459  2.743671
  C    11.580984 12.259085  2.779165
  N    13.748479  9.217745  2.515277
  N    13.818602 13.051566  2.794084
  N    11.557060  8.577822  1.445420
  N    11.817916 12.101675  1.488218
  N    11.127046  8.883526  5.353554
  N    10.839980 12.502901  5.229331
  S    10.234453  8.497898  4.057533
  S    10.197113 12.044677  3.808816
  S    13.144990  8.762548  1.015595
  S    13.361596 12.716386  1.206357
  S    12.620689  9.491906  5.044783
  S    12.341143 13.178193  5.137686
