16  
    
  C    11.889534  8.569827  3.232115
  C    11.412372 12.275708  3.469042
  C    10.599796  8.265056  2.618981
  C    10.273295 11.689187  2.824598
  N    12.845822  8.813686  2.316322
  N    12.467123 12.420717  2.636773
  N    10.633997  8.275608  1.286682
  N    10.343568 11.544062  1.510286
  N    10.233688  7.979831  5.118668
  N     9.661087 11.619587  5.217995
  S     9.330809  7.909740  3.761461
  S     8.966593 11.120624  3.838830
  S    12.188907  8.584424  0.787667
  S    11.915547 11.986666  1.163906
  S    11.834009  8.453536  4.950376
  S    11.127271 12.269824  5.182761
