16  
    
  C     4.346609  5.008652  1.174779
  C     4.462483  8.266640  1.367941
  C     3.077848  4.713277  0.545615
  C     3.257054  7.838229  0.664519
  N     5.367186  5.047327  0.317904
  N     5.463763  8.580111  0.568964
  N     3.144193  4.715263 -0.797871
  N     3.397954  7.681460 -0.645891
  N     2.624955  4.663383  3.091110
  N     2.560293  8.205603  3.173605
  S     1.754235  4.664694  1.699158
  S     1.848509  7.726132  1.746852
  S     4.732278  4.733809 -1.208109
  S     4.938590  8.212118 -1.058521
  S     4.164482  5.235109  2.891601
  S     4.228272  8.467659  3.097601
