16  
    
  C     8.885613  7.169097  2.403328
  C     9.145459 10.818726  2.247373
  C     7.650581  6.920398  1.680699
  C     7.872674 10.629456  1.627626
  N     9.953795  7.526984  1.687359
  N    10.215707 10.867308  1.447973
  N     7.848198  6.910579  0.355755
  N     7.977756 10.429448  0.316038
  N     7.097806  6.586622  4.140110
  N     7.466614 10.693518  4.156920
  S     6.338346  6.325265  2.703287
  S     6.568313 10.435244  2.774932
  S     9.447414  7.402052  0.090090
  S     9.565333 10.619508 -0.114358
  S     8.673965  7.159544  4.098369
  S     9.105993 10.858340  3.984073
