16  
    
  C     4.727925  5.017546  1.995930
  C     4.728632  8.857290  1.661684
  C     3.539160  4.626045  1.269071
  C     3.470389  8.549296  1.060690
  N     5.858334  4.980003  1.284038
  N     5.662103  9.208781  0.771135
  N     3.736947  4.522286 -0.049056
  N     3.520072  8.518806 -0.267745
  N     2.894855  4.816459  3.782367
  N     3.091047  8.168808  3.620552
  S     2.133704  4.467456  2.376305
  S     2.258098  7.963891  2.183275
  S     5.396935  4.819061 -0.291605
  S     5.014923  9.006449 -0.712279
  S     4.552108  5.023572  3.677210
  S     4.638538  8.869710  3.426849
