16  
    
  C     8.016530  6.726002  2.701909
  C     8.680652 10.344269  2.640784
  C     6.864028  6.178549  1.957181
  C     7.396369  9.900361  2.041065
  N     9.123404  6.815385  1.957919
  N     9.736612 10.339834  1.800427
  N     7.052788  5.929213  0.667375
  N     7.461199  9.649585  0.754983
  N     6.068129  6.220128  4.374484
  N     6.918802 10.207362  4.537757
  S     5.491419  5.877082  2.871030
  S     6.089110  9.809308  3.143054
  S     8.615714  6.306314  0.383773
  S     9.006502  9.988789  0.275494
  S     7.651159  6.796205  4.392815
  S     8.480703 10.759997  4.344759
