16  
    
  C    10.979253  8.142869  2.955232
  C    10.859297 11.633570  2.796370
  C     9.814937  7.407406  2.541979
  C     9.622234 11.165703  2.179198
  N    11.823274  8.481833  2.019477
  N    11.859448 11.793084  1.962727
  N     9.765812  7.182166  1.249664
  N     9.678425 11.063133  0.861267
  N     9.582638  7.789646  5.036782
  N     9.146975 11.537250  4.721704
  S     8.722662  7.041425  3.870597
  S     8.378298 10.853336  3.343689
  S    11.219176  7.754009  0.588370
  S    11.260977 11.549135  0.475251
  S    10.993555  8.530825  4.692507
  S    10.813378 11.658836  4.590930
