16  
    
  C    12.383692  8.999148  3.750809
  C    12.581971 12.836903  3.558677
  C    11.247010  8.408419  3.112342
  C    11.356870 12.457288  2.943363
  N    13.336991  9.411927  2.906886
  N    13.626683 12.816582  2.733449
  N    11.320427  8.285035  1.796483
  N    11.414288 12.429514  1.619807
  N    10.508113  8.526969  5.653098
  N    10.876560 12.560710  5.440893
  S     9.941011  7.986706  4.160083
  S     9.989775 12.236505  4.028012
  S    12.809994  8.925697  1.380986
  S    12.944702 12.729563  1.180474
  S    12.116267  9.284856  5.535235
  S    12.493879 12.932620  5.305425
