16  
    
  C     9.236561  6.893434  2.705617
  C     9.673765 10.809054  2.724468
  C     8.031096  6.435291  2.050253
  C     8.560914 10.153279  2.120101
  N    10.216975  7.316657  1.864187
  N    10.573481 11.285672  1.884692
  N     8.164892  6.308637  0.737025
  N     8.659059 10.073440  0.779986
  N     7.418876  6.371499  4.540402
  N     8.166954 10.050887  4.667925
  S     6.681375  6.074454  3.047309
  S     7.381641  9.630713  3.261572
  S     9.628933  6.833513  0.354006
  S    10.041863 10.796702  0.363883
  S     9.004930  6.892757  4.457718
  S     9.585572 10.976253  4.458065
