16  
    
  C     5.068568  5.431604  1.849987
  C     5.116008  8.670562  1.389349
  C     3.802895  4.904989  1.338502
  C     3.851698  8.356680  0.867387
  N     6.103102  5.357273  1.032261
  N     6.056207  8.875661  0.460479
  N     3.897432  4.596127  0.025608
  N     3.874391  8.055022 -0.428822
  N     3.448758  5.761129  3.838686
  N     3.406728  8.883996  3.359171
  S     2.500992  5.252096  2.451997
  S     2.579299  8.335231  2.039131
  S     5.528533  4.716664 -0.390872
  S     5.387607  8.419098 -0.967669
  S     5.102035  5.805265  3.508236
  S     5.046930  9.029428  3.099842
