16  
    
  C     4.314298  5.000430  1.126406
  C     4.337542  8.495469  1.447490
  C     3.029087  4.791606  0.487305
  C     3.261641  7.921566  0.734792
  N     5.353346  5.090482  0.326123
  N     5.432762  8.683202  0.722011
  N     3.187646  4.508370 -0.808553
  N     3.389740  7.833242 -0.575858
  N     2.729764  4.749101  3.097581
  N     2.439079  8.255028  3.134823
  S     1.749198  4.701320  1.740571
  S     1.841659  7.666945  1.670426
  S     4.745991  4.826739 -1.174362
  S     4.937492  8.358447 -0.842578
  S     4.348344  5.210788  2.848103
  S     4.130864  8.361854  3.149069
