16  
    
  C     6.000157  4.783642  1.712659
  C     5.940958  9.150458  1.962432
  C     4.803853  4.542302  0.984061
  C     4.753955  8.640370  1.375154
  N     7.055676  5.108090  0.985378
  N     6.953097  9.232207  1.115152
  N     5.002880  4.479072 -0.324883
  N     4.801455  8.463713  0.060948
  N     4.054555  4.764353  3.456026
  N     4.185915  8.862644  3.874268
  S     3.395085  4.355749  1.960446
  S     3.358102  8.495156  2.411204
  S     6.586017  4.810992 -0.568271
  S     6.401229  8.860847 -0.403607
  S     5.737950  5.004285  3.352833
  S     5.723519  9.513186  3.664634
