16  
    
  C     8.741139  6.968913  2.315975
  C     9.028212 10.380756  2.625199
  C     7.582132  6.377157  1.629501
  C     7.746920 10.050719  1.988448
  N     9.765142  7.086951  1.464888
  N    10.013986 10.352324  1.700767
  N     7.649406  6.323343  0.305302
  N     7.784108  9.926371  0.663839
  N     6.806545  6.661461  4.061135
  N     7.226964 10.299714  4.508480
  S     6.202626  6.099275  2.588195
  S     6.425284  9.883510  3.101674
  S     9.209122  6.766088 -0.080526
  S     9.364817 10.139858  0.253851
  S     8.359438  7.109692  4.044557
  S     8.869861 10.595871  4.374559
