16  
    
  C     5.987491  5.060346  1.656420
  C     5.940827  9.111584  1.950199
  C     4.803612  4.589158  0.960795
  C     4.746453  8.704843  1.297537
  N     7.048996  5.165933  0.867972
  N     6.991457  9.266583  1.157076
  N     4.909983  4.472450 -0.365819
  N     4.842527  8.435793 -0.012442
  N     4.204620  4.682608  3.412612
  N     4.241220  8.823579  3.813108
  S     3.384239  4.431586  2.002040
  S     3.440585  8.576952  2.394321
  S     6.535574  4.802326 -0.678534
  S     6.383948  8.775147 -0.345400
  S     5.812118  4.992832  3.422400
  S     5.787938  9.380342  3.691660
