16  
    
  C     6.778696  5.934112  1.485419
  C     7.236991  9.971244  2.488561
  C     5.696258  5.102109  0.984675
  C     5.956185  9.530530  1.912460
  N     7.885006  5.967362  0.721296
  N     8.255238 10.041198  1.616474
  N     5.855258  4.703204 -0.281898
  N     6.065088  9.192261  0.601491
  N     5.106633  5.810531  3.438957
  N     5.690495  9.739970  4.524355
  S     4.408575  4.926515  2.195006
  S     4.691589  9.505794  3.145608
  S     7.428166  5.166089 -0.662540
  S     7.592654  9.469040  0.153335
  S     6.577767  6.333743  3.096303
  S     7.208462 10.298458  4.133744
