16  
    
  C    10.515018  7.231911  2.770248
  C    10.276108 11.089938  2.740048
  C     9.228369  7.349775  2.142036
  C     9.043765 10.888140  2.094638
  N    11.549145  7.115801  1.940398
  N    11.294512 11.206624  1.883550
  N     9.205967  7.249240  0.822639
  N     9.121281 10.680164  0.767864
  N     8.807644  7.352764  4.709777
  N     8.569636 11.071672  4.643132
  S     7.928832  7.713261  3.344149
  S     7.693357 10.819587  3.224393
  S    10.822849  7.218779  0.403541
  S    10.695634 10.894022  0.353872
  S    10.456317  7.326376  4.492643
  S    10.157824 11.438972  4.406905
