16  
    
  C     7.860416  6.252500  2.178775
  C     8.014622 10.276601  2.184234
  C     6.660164  5.879874  1.526094
  C     6.857880  9.808535  1.532707
  N     8.878023  6.537800  1.388949
  N     9.052165 10.440788  1.392579
  N     6.727183  5.814900  0.214945
  N     6.997002  9.602059  0.205210
  N     6.237246  5.864558  4.062483
  N     6.313878 10.122679  4.074476
  S     5.439350  5.458904  2.699644
  S     5.525901  9.659419  2.678857
  S     8.350232  6.322505 -0.130570
  S     8.603885 10.140532 -0.129441
  S     7.826834  6.250212  3.881926
  S     7.880920 10.556847  3.866688
