16  
    
  C     6.705444  5.648866  1.930620
  C     6.679845  9.573149  1.942080
  C     5.334827  5.501351  1.365336
  C     5.396306  9.124582  1.424574
  N     7.646230  5.824668  0.999588
  N     7.621488  9.671109  1.003855
  N     5.375371  5.316302  0.046746
  N     5.351497  9.023461  0.095997
  N     4.973275  5.878747  3.856292
  N     5.010440  9.295500  3.980525
  S     4.015408  5.429700  2.508511
  S     4.129693  8.978585  2.523390
  S     6.921455  5.539639 -0.486597
  S     6.899056  9.257945 -0.389471
  S     6.644245  5.978581  3.674324
  S     6.599513  9.779069  3.653403
