16  
    
  C     8.584443  6.680169  2.395443
  C     8.406581 10.306247  2.452003
  C     7.355109  6.125767  1.827987
  C     7.188987  9.781024  1.839098
  N     9.500859  6.858589  1.428307
  N     9.416466 10.413855  1.607747
  N     7.308521  6.062378  0.499440
  N     7.332206  9.606919  0.537842
  N     6.876873  6.200262  4.330332
  N     6.550340 10.148478  4.226491
  S     6.093564  5.928287  2.921411
  S     5.871405  9.517587  2.848350
  S     8.820670  6.546260 -0.015288
  S     8.889402  9.953216  0.142472
  S     8.448731  6.768631  4.128171
  S     8.144399 10.551468  4.149881
