16  
    
  C    11.937363  8.479229  3.327739
  C    11.580903 11.978746  3.510115
  C    10.656144  8.317477  2.662861
  C    10.446172 11.389013  2.857309
  N    12.993694  8.573016  2.504958
  N    12.511638 12.369568  2.649719
  N    10.780622  8.206550  1.330003
  N    10.475001 11.363941  1.535460
  N    10.051290  8.243086  5.191450
  N     9.764881 11.662541  5.292197
  S     9.279072  8.198318  3.695236
  S     9.081519 11.257150  3.844692
  S    12.349144  8.440835  0.953907
  S    12.004720 11.930046  1.164629
  S    11.684341  8.524364  5.037412
  S    11.390187 12.034466  5.296830
