16  
    
  C     8.574121  6.604056  2.374097
  C     8.412348 10.300209  2.440114
  C     7.341450  6.188672  1.797659
  C     7.199757  9.840774  1.799448
  N     9.486348  6.881682  1.462954
  N     9.446486 10.420403  1.591710
  N     7.334974  6.064073  0.484363
  N     7.288653  9.656868  0.502756
  N     6.847477  6.187667  4.361875
  N     6.568489 10.148205  4.250276
  S     6.092353  5.937413  2.915613
  S     5.890553  9.530800  2.867516
  S     8.792222  6.539106 -0.010318
  S     8.845157  9.892931  0.092661
  S     8.395771  6.765473  4.133559
  S     8.187694 10.551618  4.145653
