16  
    
  C     7.629810  6.228770  2.199576
  C     7.864743 10.072348  2.392742
  C     6.351288  5.845325  1.607659
  C     6.689577  9.398140  1.806039
  N     8.579282  6.472034  1.300903
  N     8.784440 10.386893  1.495044
  N     6.474254  5.627962  0.302373
  N     6.774806  9.203865  0.502750
  N     5.956179  5.809257  4.084573
  N     6.155662  9.665728  4.259719
  S     5.114883  5.410460  2.734620
  S     5.433032  9.101356  2.894861
  S     7.960348  6.022085 -0.173966
  S     8.231263  9.932707  0.031460
  S     7.531541  6.337618  3.975193
  S     7.732740 10.154376  4.156268
