16  
    
  C     3.808834  4.757495  1.599956
  C     3.816205  8.368092  1.687724
  C     2.515307  4.496580  0.983335
  C     2.658164  7.937855  1.012528
  N     4.858867  4.545550  0.838725
  N     4.908997  8.437753  0.942832
  N     2.597457  4.159526 -0.317857
  N     2.858548  7.577681 -0.229871
  N     2.080834  4.801941  3.562101
  N     1.897866  8.304217  3.461719
  S     1.248559  4.592019  2.210337
  S     1.210618  7.881034  2.042345
  S     4.301353  4.240515 -0.685707
  S     4.469401  7.928162 -0.558146
  S     3.728044  4.921912  3.341876
  S     3.468294  8.849343  3.362222
