16  
    
  C     4.829405  4.834956  1.912952
  C     4.630112  8.972961  1.713113
  C     3.544408  4.623999  1.245727
  C     3.432994  8.495698  1.143320
  N     5.829213  5.048267  1.070928
  N     5.589929  9.248911  0.842768
  N     3.616576  4.543398 -0.097850
  N     3.400883  8.585823 -0.181721
  N     3.085260  4.644850  3.797328
  N     3.136662  8.335566  3.694817
  S     2.252293  4.416205  2.371294
  S     2.228328  8.107812  2.340168
  S     5.242484  4.709691 -0.468913
  S     4.906587  8.994342 -0.655722
  S     4.754851  4.946274  3.613162
  S     4.727866  8.837152  3.449605
