16  
    
  C     4.539115  5.020512  1.632931
  C     4.323120  8.633717  1.488771
  C     3.292296  4.673171  1.032079
  C     3.120472  7.980491  0.931735
  N     5.538577  5.219853  0.791589
  N     5.346837  8.682098  0.631854
  N     3.342379  4.547464 -0.293073
  N     3.267051  7.693192 -0.358205
  N     2.827789  4.839575  3.529421
  N     2.630136  8.434894  3.401718
  S     1.963662  4.577194  2.121368
  S     1.774981  7.954924  2.000269
  S     4.947441  4.863462 -0.682978
  S     4.800882  8.100385 -0.760745
  S     4.333208  5.503866  3.256030
  S     4.204467  8.874855  3.181389
