16  
    
  C    11.987412  8.631386  3.404520
  C    11.820730 12.058842  3.202779
  C    10.756945  8.051957  2.906147
  C    10.524392 11.731429  2.624078
  N    12.874569  8.820061  2.430225
  N    12.795944 12.222135  2.304012
  N    10.716250  7.770313  1.585053
  N    10.560873 11.590915  1.322576
  N    10.286312  8.520154  5.444175
  N     9.970542 11.939898  5.132072
  S     9.509937  7.931437  4.098863
  S     9.164823 11.493107  3.664933
  S    12.199287  8.284930  1.022800
  S    11.992176 12.034605  0.792594
  S    11.883604  9.022167  5.106128
  S    11.592182 12.361898  4.901502
