16  
    
  C    11.784174  8.562816  3.522395
  C    11.734203 11.919907  3.368895
  C    10.597228  8.212838  2.825603
  C    10.466650 11.647492  2.679580
  N    12.823743  8.781601  2.718932
  N    12.792092 11.920340  2.564920
  N    10.752162  8.026397  1.500897
  N    10.534298 11.638644  1.357555
  N     9.881107  8.573024  5.248825
  N     9.737739 11.821770  5.135059
  S     9.199517  8.280483  3.759819
  S     9.050138 11.463164  3.624707
  S    12.342457  8.471437  1.143927
  S    12.193132 11.886086  1.012461
  S    11.569750  8.861202  5.242924
  S    11.379680 11.973727  5.122645
