16  
    
  C     5.927903  5.174236  1.667625
  C     6.044574  8.855523  2.104118
  C     4.632370  4.845383  1.099149
  C     4.768827  8.553756  1.460693
  N     6.951385  5.243261  0.817896
  N     7.124265  8.952007  1.325672
  N     4.652123  4.670099 -0.221105
  N     4.875628  8.514696  0.138630
  N     4.107643  5.213886  3.579302
  N     4.241190  8.767214  3.925353
  S     3.336308  4.799251  2.245329
  S     3.370355  8.577922  2.504866
  S     6.231957  5.040572 -0.694142
  S     6.432033  8.812392 -0.248297
  S     5.746150  5.510563  3.374665
  S     5.820722  9.111205  3.841104
