16  
    
  C     9.841752  7.352474  2.534046
  C    10.408667 11.220961  2.583028
  C     8.646615  6.731832  2.011899
  C     9.141794 10.905188  1.946159
  N    10.783771  7.592515  1.600285
  N    11.398068 11.454968  1.728909
  N     8.696049  6.543679  0.699294
  N     9.209050 10.685004  0.635908
  N     8.135658  7.250328  4.503639
  N     8.665850 11.058271  4.511237
  S     7.379106  6.556875  3.151993
  S     7.821185 10.902927  3.048104
  S    10.182158  7.070410  0.173726
  S    10.738692 11.123797  0.198831
  S     9.627712  7.917242  4.149928
  S    10.277145 11.486302  4.310411
