16  
    
  C     6.584792  5.822815  2.020551
  C     6.608348  9.382812  1.909971
  C     5.349828  5.303600  1.498469
  C     5.415854  8.921973  1.269398
  N     7.627971  5.887454  1.185533
  N     7.564382  9.687721  1.040028
  N     5.438573  5.231162  0.172371
  N     5.509695  8.770242 -0.050564
  N     4.891626  5.827826  3.982855
  N     4.826280  9.053719  3.718679
  S     3.959316  5.257081  2.638721
  S     4.078641  8.539714  2.334642
  S     6.961506  5.603868 -0.335520
  S     7.060723  9.270172 -0.479157
  S     6.516145  6.085793  3.758801
  S     6.337463  9.566766  3.621583
