16  
    
  C     5.043288  5.021486  1.788491
  C     5.110403  8.665795  1.882836
  C     3.734743  4.830257  1.266792
  C     3.810144  8.338924  1.257175
  N     6.026254  5.097440  0.879766
  N     6.144864  8.656788  1.044592
  N     3.686410  4.868733 -0.063152
  N     3.878641  8.019006 -0.028974
  N     3.571542  4.652267  3.893863
  N     3.307351  8.694978  3.727422
  S     2.529903  4.809819  2.542394
  S     2.456019  8.404822  2.314154
  S     5.270589  5.038783 -0.559621
  S     5.523980  8.172678 -0.432172
  S     5.170241  4.991450  3.512179
  S     4.944123  9.076011  3.581145
