16  
    
  C    12.715965  8.805809  3.552089
  C    12.236319 13.045155  3.782007
  C    11.436266  8.414292  2.951314
  C    11.177459 12.269934  3.135855
  N    13.681035  9.059203  2.663502
  N    13.291698 13.126931  2.943736
  N    11.439446  8.320835  1.642037
  N    11.290130 12.004492  1.833223
  N    10.861872  8.681900  5.419589
  N    10.506463 12.564711  5.589330
  S    10.174947  8.232430  4.000836
  S     9.971760 11.728774  4.215763
  S    12.999028  8.735509  1.156553
  S    12.810718 12.592009  1.488473
  S    12.459783  9.111058  5.267369
  S    12.036365 13.108539  5.492147
