16  
    
  C    12.825210  9.243019  3.409358
  C    12.674549 12.956971  3.633791
  C    11.670153  8.587974  2.793891
  C    11.482741 12.466519  2.946215
  N    13.802894  9.505623  2.556926
  N    13.730359 13.151339  2.861320
  N    11.793877  8.442803  1.468339
  N    11.763159 12.084138  1.716726
  N    10.890791  9.300179  5.282341
  N    10.876944 12.620211  5.405472
  S    10.184508  8.650776  3.867168
  S    10.141632 12.161827  3.968824
  S    13.312014  8.961265  1.081338
  S    13.269993 12.614273  1.284705
  S    12.573951  9.493253  5.144800
  S    12.474071 13.227123  5.352744
