16  
    
  C     6.010499  5.544661  2.180854
  C     5.950972  9.233239  1.558739
  C     4.673711  5.577790  1.548296
  C     4.724900  8.772860  0.919360
  N     7.021075  5.532872  1.284574
  N     7.030486  9.221805  0.787484
  N     4.720305  5.352281  0.232090
  N     4.903674  8.512827 -0.367881
  N     4.246123  5.817260  4.090073
  N     4.200545  9.012414  3.477672
  S     3.321644  5.729304  2.658686
  S     3.389403  8.784537  2.004457
  S     6.310916  5.294286 -0.214735
  S     6.540475  8.821833 -0.729134
  S     5.977546  5.862159  3.928115
  S     5.809284  9.521909  3.241897
