16  
    
  C     6.821061  5.870664  1.575078
  C     7.245550  9.944387  2.486216
  C     5.669587  5.177882  1.034702
  C     5.977454  9.489240  1.925366
  N     7.767401  6.097188  0.670762
  N     8.214726  9.956742  1.572587
  N     5.920894  4.694742 -0.173569
  N     5.979992  9.222752  0.613427
  N     5.137490  5.810911  3.451673
  N     5.613171  9.796628  4.429929
  S     4.472866  4.904268  2.231122
  S     4.748110  9.533151  3.118145
  S     7.408372  5.235986 -0.652277
  S     7.639656  9.425304  0.168947
  S     6.708978  6.399074  3.210233
  S     7.189527 10.302761  4.162929
