16  
    
  C     5.575932  5.491469  1.910879
  C     5.412083  8.882531  1.758756
  C     4.343993  4.930714  1.407171
  C     4.268319  8.423261  1.049937
  N     6.523564  5.578409  0.978972
  N     6.450167  9.180702  0.991711
  N     4.260071  4.829897  0.086201
  N     4.486099  8.154272 -0.227854
  N     4.043377  5.126214  4.001421
  N     3.452647  8.892582  3.481888
  S     3.134828  4.731649  2.627553
  S     2.934805  8.092808  2.087898
  S     5.734706  5.304901 -0.506076
  S     6.090190  8.724261 -0.560326
  S     5.684519  5.499760  3.691809
  S     5.133111  9.131085  3.471435
