16  
    
  C    10.995132  8.144534  2.944167
  C    10.884770 11.605125  2.840431
  C     9.834968  7.396789  2.547537
  C     9.620614 11.188871  2.213029
  N    11.850711  8.515721  2.022803
  N    11.864355 11.789092  1.978636
  N     9.775224  7.179183  1.251088
  N     9.671360 11.052372  0.895485
  N     9.568444  7.806401  5.019345
  N     9.159699 11.522650  4.711382
  S     8.727465  7.047444  3.870513
  S     8.369587 10.847820  3.348095
  S    11.223462  7.769171  0.592158
  S    11.251696 11.567759  0.477484
  S    10.990433  8.559955  4.669684
  S    10.796468 11.660670  4.592542
