16  
    
  C     9.260424  6.734566  2.416441
  C     9.592858 10.586779  2.788301
  C     8.061042  6.275282  1.712916
  C     8.310822 10.227710  2.201490
  N    10.345791  6.896978  1.662934
  N    10.587743 10.577889  1.926099
  N     8.264518  6.216360  0.378539
  N     8.367316  9.980467  0.871624
  N     7.446362  6.418372  4.247311
  N     7.869839 10.588655  4.738128
  S     6.659166  6.056156  2.841091
  S     6.993471 10.292921  3.397210
  S     9.839714  6.595658  0.101662
  S     9.920916 10.241928  0.429144
  S     9.063312  6.741387  4.121406
  S     9.472603 10.927337  4.508591
