16  
    
  C     8.679899  7.195093  2.676252
  C     8.937727 10.976725  2.299145
  C     7.527346  6.508536  2.185653
  C     7.739189 10.535509  1.593737
  N     9.649719  7.455987  1.815245
  N     9.908639 11.406821  1.524393
  N     7.605228  6.290470  0.873762
  N     7.840259 10.632245  0.253651
  N     7.205493  6.999323  4.742333
  N     7.221095 10.476221  4.126426
  S     6.366441  6.189974  3.466677
  S     6.454993 10.068677  2.706735
  S     9.128301  6.838191  0.393003
  S     9.399405 11.189114 -0.079406
  S     8.704844  7.559281  4.329835
  S     8.755066 11.134616  3.991740
