16  
    
  C    12.384552  9.017682  3.429972
  C    12.385557 12.788295  3.435504
  C    11.285519  8.548312  2.635796
  C    11.135538 12.267028  2.980800
  N    13.388839  9.518596  2.710573
  N    13.368721 12.857443  2.538559
  N    11.502376  8.594685  1.302229
  N    11.139586 12.034731  1.684608
  N    10.638538  8.437662  5.116883
  N    10.785211 12.654464  5.467732
  S     9.954341  7.983497  3.671806
  S     9.985161 11.894852  4.228773
  S    13.002901  9.244976  1.126015
  S    12.617166 12.459415  1.061961
  S    12.047005  9.237640  5.167913
  S    12.373644 13.076317  5.173961
