16  
    
  C     8.841209  7.268000  2.443511
  C     9.186972 10.825637  2.239291
  C     7.641507  6.901830  1.707852
  C     7.868152 10.603137  1.604638
  N     9.862839  7.573910  1.659297
  N    10.176807 10.802530  1.368367
  N     7.798003  6.954742  0.398111
  N     7.917559 10.496298  0.290640
  N     7.079036  6.637301  4.157058
  N     7.433309 10.710812  4.127840
  S     6.382701  6.295229  2.669550
  S     6.582176 10.427480  2.702844
  S     9.372671  7.404102  0.115457
  S     9.578645 10.623025 -0.146174
  S     8.649458  7.138780  4.146992
  S     9.093092 10.841069  3.949720
