16  
    
  C    12.278040  9.152997  3.620239
  C    12.482881 12.883999  3.494857
  C    11.225835  8.481527  2.905744
  C    11.267566 12.324742  2.939993
  N    13.246960  9.642806  2.878255
  N    13.469450 13.048225  2.610524
  N    11.490385  8.349832  1.612026
  N    11.307993 12.232185  1.613232
  N    10.604577  8.377377  5.476340
  N    10.863617 12.707495  5.489429
  S     9.929695  7.922079  3.986083
  S     9.969889 12.217283  4.153583
  S    12.884911  9.159368  1.349475
  S    12.871102 12.544954  1.107584
  S    12.108719  9.215790  5.285602
  S    12.496275 12.887488  5.259125
