16  
    
  C     8.098492  6.273937  2.281485
  C     8.143059 10.105195  2.264394
  C     6.778197  5.973650  1.655041
  C     6.853043  9.798264  1.636080
  N     9.032234  6.582262  1.355807
  N     9.098286 10.209495  1.338663
  N     6.821734  5.851159  0.321437
  N     6.837787  9.748674  0.331007
  N     6.215021  6.014344  4.098034
  N     6.312914  9.932194  4.122716
  S     5.481252  5.550733  2.696063
  S     5.509413  9.555007  2.654483
  S     8.392634  6.253302 -0.163250
  S     8.457188  9.966316 -0.150191
  S     7.883109  6.316116  4.028874
  S     7.868757 10.526023  3.936115
