16  
    
  C     9.023591  7.077362  2.668567
  C     8.855047 11.079159  2.343060
  C     7.800765  6.501960  2.189034
  C     7.734685 10.490464  1.701328
  N     9.888293  7.385976  1.713676
  N     9.780592 11.521782  1.485129
  N     7.823742  6.119126  0.917298
  N     7.812943 10.402945  0.378198
  N     7.435931  6.863699  4.663920
  N     7.127993 10.778578  4.188503
  S     6.570502  6.318350  3.390020
  S     6.444433 10.028203  2.848988
  S     9.274196  6.681623  0.352799
  S     9.299029 11.031569  0.008550
  S     8.939765  7.608145  4.315665
  S     8.730605 11.180497  4.099856
