16  
    
  C    11.785107  8.692456  3.453585
  C    11.506916 12.163846  3.275388
  C    10.567022  8.284625  2.854053
  C    10.381798 11.639163  2.527943
  N    12.791275  8.783553  2.602822
  N    12.594102 12.471941  2.546098
  N    10.649927  8.041364  1.556763
  N    10.638662 11.439015  1.240004
  N    10.123676  8.695996  5.402317
  N     9.566361 11.983346  4.997188
  S     9.279752  8.324487  4.028094
  S     9.056214 11.232773  3.560669
  S    12.216395  8.460615  1.065861
  S    12.253417 12.042195  1.022538
  S    11.751380  9.047491  5.188190
  S    11.195266 12.554222  4.889859
