16  
    
  C     4.892949  4.788210  1.620795
  C     4.860360  8.725877  1.777137
  C     3.552619  4.580319  1.159846
  C     3.541569  8.372224  1.275996
  N     5.830077  4.942588  0.703486
  N     5.745043  8.982411  0.828012
  N     3.467638  4.653507 -0.180447
  N     3.435857  8.220374 -0.031651
  N     3.595829  4.695224  3.755335
  N     3.268821  8.681229  3.818244
  S     2.518210  4.422963  2.551767
  S     2.323868  8.295043  2.494852
  S     5.034680  4.816654 -0.718540
  S     4.959247  8.623083 -0.648210
  S     5.152768  4.783292  3.307845
  S     4.907489  8.982694  3.518235
