16  
    
  C     8.788584  7.383274  2.489775
  C     9.170945 10.716670  2.169683
  C     7.654376  6.862837  1.752374
  C     7.903938 10.570177  1.518614
  N     9.806801  7.695719  1.671309
  N    10.216040 10.770542  1.316669
  N     7.708890  6.963541  0.408453
  N     7.940487 10.574833  0.189366
  N     6.991248  6.709104  4.206829
  N     7.383268 10.685337  4.058351
  S     6.411969  6.244711  2.706341
  S     6.594483 10.422270  2.633932
  S     9.241462  7.403441  0.115170
  S     9.519476 10.655891 -0.196513
  S     8.606763  7.107590  4.238740
  S     9.032670 10.859386  3.927000
