16  
    
  C     8.284096  6.687498  2.241033
  C     8.152244 10.123514  2.588761
  C     7.134344  6.079057  1.692498
  C     7.081552  9.434514  1.937687
  N     9.387067  6.672445  1.480583
  N     9.178049 10.396131  1.829423
  N     7.240852  5.777981  0.397481
  N     7.261363  9.165537  0.646947
  N     6.628102  6.460639  4.223954
  N     6.251161  9.829601  4.309653
  S     5.735187  6.048928  2.816875
  S     5.626366  9.184665  2.914775
  S     8.855872  6.100195 -0.025210
  S     8.759639  9.877989  0.269068
  S     8.150379  7.083782  3.955947
  S     7.787362 10.425153  4.287593
