16  
    
  C     8.726257  6.975256  2.317294
  C     9.030439 10.362857  2.631320
  C     7.578305  6.375549  1.635827
  C     7.750606 10.043185  1.995602
  N     9.763866  7.095745  1.481240
  N    10.011607 10.350729  1.725073
  N     7.632360  6.322737  0.305871
  N     7.778555  9.933428  0.661562
  N     6.793889  6.649723  4.058606
  N     7.221509 10.303048  4.515222
  S     6.186740  6.088258  2.589005
  S     6.421844  9.877387  3.109085
  S     9.204479  6.753365 -0.077903
  S     9.354550 10.141178  0.266054
  S     8.354135  7.101665  4.052305
  S     8.868960 10.592919  4.378037
