16  
    
  C     4.419793  4.892192  1.464009
  C     4.165679  8.697054  1.693551
  C     3.141799  4.731361  0.833336
  C     3.075747  8.182897  0.810840
  N     5.428017  5.163073  0.643804
  N     5.291491  8.978268  1.023735
  N     3.231959  4.656021 -0.505100
  N     3.317438  8.339868 -0.479000
  N     2.739471  5.105894  3.432648
  N     2.276930  7.794211  3.225846
  S     1.869995  4.577132  2.135921
  S     1.615785  7.755286  1.632010
  S     4.826261  4.825875 -0.874278
  S     4.888476  8.837449 -0.642060
  S     4.396249  5.144526  3.151053
  S     3.776736  8.512170  3.379006
