16  
    
  C    10.221388  7.287271  2.643403
  C    10.348400 10.916896  2.761062
  C     8.997669  6.897308  2.027594
  C     9.105333 10.883375  2.107226
  N    11.274607  7.455769  1.832911
  N    11.385497 11.019232  1.942463
  N     9.045201  6.718798  0.689055
  N     9.159432 10.853497  0.785649
  N     8.432092  7.373306  4.554188
  N     8.517695 10.749335  4.592608
  S     7.611470  6.927857  3.169005
  S     7.721673 10.978763  3.176452
  S    10.615695  7.177836  0.284665
  S    10.754511 10.982932  0.350252
  S    10.136348  7.478595  4.365992
  S    10.218606 11.043871  4.494560
