16  
    
  C     4.100673  4.771540  1.627195
  C     4.022102  8.397239  1.533546
  C     2.824505  4.467173  1.007976
  C     2.811768  7.947687  0.830535
  N     5.148986  4.776639  0.829085
  N     5.073017  8.534629  0.722732
  N     2.923102  4.344758 -0.328075
  N     3.041644  7.679948 -0.441855
  N     2.362653  4.785867  3.545883
  N     2.158678  8.372026  3.325324
  S     1.480231  4.331835  2.169945
  S     1.436805  7.929374  1.871457
  S     4.586954  4.365480 -0.663545
  S     4.607251  8.069124 -0.774293
  S     4.013244  4.998557  3.371941
  S     3.759564  8.652128  3.257720
