16  
    
  C     7.778421  6.629505  2.440102
  C     7.911284 10.181867  2.041245
  C     6.612458  6.273714  1.696524
  C     6.634031  9.894481  1.472409
  N     8.863576  6.721593  1.700147
  N     8.917549 10.169695  1.196262
  N     6.770096  5.853373  0.468803
  N     6.630090  9.674381  0.174470
  N     5.862905  6.427466  4.163008
  N     6.181223 10.354758  3.972796
  S     5.230139  6.063685  2.679415
  S     5.345399  9.893875  2.614581
  S     8.437876  6.138888  0.203857
  S     8.184155  9.885669 -0.328547
  S     7.447708  6.957520  4.130085
  S     7.838656 10.589937  3.749993
