16  
    
  C     9.057138  7.136108  2.250644
  C     9.043608 10.608457  2.371495
  C     7.815322  6.630063  1.633848
  C     7.786466 10.146453  1.761291
  N    10.071454  7.220113  1.397578
  N    10.051453 10.740853  1.495097
  N     7.902738  6.305166  0.360365
  N     7.950081  9.823849  0.468018
  N     7.310394  6.734483  4.185311
  N     7.211391 10.536332  4.251404
  S     6.560720  6.334930  2.735482
  S     6.448742 10.093853  2.831803
  S     9.470053  6.671083 -0.111105
  S     9.435142 10.318295  0.025071
  S     8.855258  7.207528  4.043678
  S     8.848294 10.857479  4.113029
