16  
    
  C     5.478771  5.451228  1.651793
  C     5.274114  8.944643  1.580972
  C     4.211668  5.113869  1.074632
  C     4.146816  8.362347  0.916116
  N     6.391156  5.765246  0.742680
  N     6.344990  9.092200  0.804304
  N     4.151830  5.042557 -0.231898
  N     4.339326  8.148864 -0.367128
  N     3.729408  5.324918  3.566437
  N     3.399273  8.761020  3.355086
  S     2.879241  5.003692  2.209157
  S     2.730264  8.332363  1.895706
  S     5.695200  5.385159 -0.780091
  S     5.912572  8.608635 -0.719863
  S     5.363809  5.684984  3.423919
  S     4.934611  9.286550  3.240835
