16  
    
  C    11.849597  8.691385  3.449380
  C    11.530257 12.271528  3.222553
  C    10.578617  8.272062  2.878429
  C    10.457892 11.575863  2.569948
  N    12.797236  8.869921  2.512717
  N    12.657717 12.431573  2.551433
  N    10.610096  8.057635  1.549656
  N    10.726558 11.442345  1.277752
  N    10.176111  8.704471  5.409840
  N     9.610343 11.948020  4.985280
  S     9.295776  8.322074  4.039728
  S     9.032076 11.200071  3.634777
  S    12.170330  8.394534  1.091281
  S    12.182892 12.091731  0.963951
  S    11.770651  9.055846  5.127909
  S    11.160697 12.586998  4.854015
