16  
    
  C     5.577225  5.391916  1.939351
  C     5.482954  9.007886  1.781233
  C     4.312621  4.941588  1.401098
  C     4.357983  8.380612  1.087420
  N     6.432541  5.716243  0.982764
  N     6.546052  9.220228  1.000622
  N     4.341216  4.710720  0.078924
  N     4.567506  8.175843 -0.215863
  N     4.056715  5.056290  4.000125
  N     3.566818  8.808596  3.524983
  S     3.123318  4.670434  2.642766
  S     2.969241  8.123303  2.114457
  S     5.806540  5.264185 -0.451879
  S     6.072294  8.728605 -0.526207
  S     5.699858  5.540455  3.677304
  S     5.153361  9.086421  3.487030
