16  
    
  C     4.375967  5.063987  1.354550
  C     4.258090  8.502049  1.676121
  C     3.099279  4.618704  0.778127
  C     3.082992  8.258678  0.811965
  N     5.402845  5.073890  0.530484
  N     5.315394  8.875252  0.948773
  N     3.167898  4.495643 -0.533108
  N     3.354501  8.214181 -0.480151
  N     2.794733  5.036023  3.261064
  N     2.345725  7.743736  3.137618
  S     1.815882  4.621527  1.967548
  S     1.678104  7.764247  1.653051
  S     4.788221  4.892738 -0.986460
  S     4.884352  8.737910 -0.617382
  S     4.461729  5.113724  3.070163
  S     3.805608  8.552201  3.324632
