16  
    
  C    12.785192  9.388846  3.441791
  C    12.736102 12.787259  3.665010
  C    11.673836  8.758831  2.794494
  C    11.549271 12.358043  3.029213
  N    13.875840  9.412928  2.681360
  N    13.739587 13.030501  2.840396
  N    11.810125  8.492640  1.492243
  N    11.645201 12.118739  1.724227
  N    11.002410  9.179103  5.250098
  N    10.989078 12.688616  5.547890
  S    10.308145  8.570212  3.854122
  S    10.241444 12.376881  4.129937
  S    13.364361  8.943910  1.217709
  S    13.184634 12.565321  1.290300
  S    12.583456  9.661491  5.129929
  S    12.560989 13.177919  5.269846
