16  
    
  C     5.706521  5.199593  1.869315
  C     5.662260  9.193759  2.001424
  C     4.636213  4.492754  1.241840
  C     4.529074  8.564860  1.417054
  N     6.811300  5.311280  1.101544
  N     6.572699  9.636137  1.125923
  N     4.830052  4.269518 -0.057058
  N     4.666384  8.273437  0.112483
  N     3.984430  4.678647  3.720818
  N     4.110290  8.700976  3.992909
  S     3.223921  4.326284  2.274002
  S     3.322607  8.245653  2.621133
  S     6.380861  4.757552 -0.386719
  S     6.067860  8.994385 -0.306477
  S     5.473857  5.378122  3.632773
  S     5.638755  9.470242  3.738948
