16  
    
  C     9.251838  7.134711  2.554266
  C     8.914171 11.057608  2.361710
  C     8.044297  6.489896  2.071002
  C     7.752690 10.381650  1.753125
  N    10.156914  7.201095  1.572460
  N     9.849274 11.287552  1.454840
  N     7.973257  6.318572  0.755675
  N     7.810127 10.148136  0.474121
  N     7.531537  6.996372  4.459266
  N     7.224113 10.476585  4.248364
  S     6.753024  6.312952  3.137821
  S     6.405775 10.151447  2.796529
  S     9.439792  6.657763  0.186583
  S     9.351086 10.650884 -0.023144
  S     9.151855  7.373040  4.286989
  S     8.686057 11.317850  4.063179
