16  
    
  C     6.582118  5.870647  1.937160
  C     6.621708  9.415770  1.869829
  C     5.272456  5.486858  1.436882
  C     5.387498  8.938595  1.249417
  N     7.553176  5.908024  1.025290
  N     7.610078  9.762869  1.046375
  N     5.301896  5.239712  0.136300
  N     5.488186  8.803205 -0.060556
  N     4.943993  5.705620  3.938861
  N     4.986729  9.024938  3.775413
  S     3.973464  5.399952  2.635288
  S     4.088449  8.842254  2.439070
  S     6.869014  5.446062 -0.422561
  S     7.012830  9.284605 -0.470431
  S     6.625305  6.055803  3.677913
  S     6.496647  9.676921  3.543767
