16  
    
  C    11.071955  8.255407  2.968751
  C    10.864525 11.566631  2.954171
  C     9.957477  7.435714  2.473377
  C     9.654518 11.146963  2.312266
  N    11.926614  8.566358  2.037022
  N    11.836975 11.851039  2.132951
  N     9.973406  7.109061  1.190620
  N     9.658154 11.163303  0.989070
  N     9.523448  7.938879  4.953070
  N     9.173272 11.230235  4.904605
  S     8.765681  7.188703  3.750923
  S     8.356407 10.913569  3.443171
  S    11.311034  7.922515  0.549159
  S    11.279843 11.633020  0.583145
  S    10.955848  8.729530  4.659933
  S    10.706802 11.819187  4.703603
