16  
    
  C     9.954391  7.619860  2.647128
  C     9.873085 11.315045  2.938969
  C     8.689239  7.392582  2.048405
  C     8.781733 10.741828  2.272716
  N    10.934098  7.673223  1.742759
  N    10.931885 11.568783  2.205264
  N     8.695932  7.256838  0.741903
  N     8.965452 10.566991  0.987370
  N     8.134245  7.390695  4.566311
  N     8.016842 11.015406  4.713165
  S     7.376022  7.197948  3.119200
  S     7.380357 10.457786  3.281419
  S    10.244798  7.558342  0.250895
  S    10.473249 11.119760  0.670181
  S     9.785190  7.774984  4.446868
  S     9.623965 11.415352  4.687606
