16  
    
  C     7.991032  6.715189  2.648745
  C     8.618111 10.367670  2.579981
  C     6.889674  6.130325  1.963371
  C     7.383552  9.947296  1.999629
  N     9.100643  6.763742  1.900099
  N     9.642656 10.330791  1.762005
  N     7.079133  5.948848  0.667216
  N     7.419159  9.639378  0.695878
  N     6.118902  6.224097  4.364368
  N     6.905863 10.252937  4.528090
  S     5.421490  5.894864  2.872543
  S     6.098641  9.770257  3.164303
  S     8.615398  6.323236  0.354372
  S     8.990552  9.939526  0.204716
  S     7.648330  6.813484  4.405003
  S     8.496524 10.709689  4.288382
