16  
    
  C     6.723399  5.909536  2.356150
  C     6.951849  9.717608  2.344291
  C     5.556643  5.285114  1.814624
  C     5.735392  9.314335  1.754611
  N     7.544211  6.313413  1.399496
  N     7.902113  9.930576  1.434134
  N     5.459460  5.166550  0.504954
  N     5.688632  9.198377  0.426743
  N     5.178220  5.510656  4.370956
  N     5.145780  9.738789  4.163640
  S     4.377688  4.925907  3.035654
  S     4.412280  9.163214  2.861838
  S     6.824237  5.919553 -0.053568
  S     7.227767  9.733068 -0.047370
  S     6.776760  6.047213  4.107986
  S     6.765088  9.916626  4.094825
