16  
    
  C     5.112820  4.955306  1.684701
  C     4.990354  8.697962  1.802690
  C     3.751542  4.733312  1.272439
  C     3.656208  8.419134  1.250247
  N     5.979486  5.038229  0.665546
  N     5.984357  8.737329  0.923296
  N     3.556565  4.829556 -0.040749
  N     3.679844  8.062858 -0.029461
  N     3.590883  4.771036  3.817412
  N     3.339262  8.681080  3.842048
  S     2.549355  4.597356  2.494483
  S     2.452726  8.350288  2.501361
  S     5.020924  4.948913 -0.735105
  S     5.274822  8.301381 -0.555261
  S     5.205167  4.829974  3.488202
  S     4.924859  9.085145  3.480195
