16  
    
  C     9.588877  7.509683  2.598643
  C    10.281423 11.399582  2.531673
  C     8.502652  6.724736  2.041545
  C     8.987815 10.966960  1.931844
  N    10.526076  7.750939  1.685922
  N    11.248004 11.570193  1.628574
  N     8.715737  6.313043  0.786603
  N     9.096225 10.662484  0.625487
  N     7.853286  7.516776  4.458325
  N     8.574383 11.142053  4.527733
  S     7.240984  6.539303  3.201207
  S     7.735030 10.746151  3.147171
  S    10.122425  7.032578  0.285243
  S    10.641879 11.059798  0.198120
  S     9.471187  7.917926  4.271606
  S    10.176295 11.579910  4.258225
