16  
    
  C     6.585825  5.729901  2.014576
  C     6.617990  9.424069  1.865657
  C     5.317257  5.452276  1.436461
  C     5.463665  8.851540  1.250992
  N     7.557456  5.935170  1.129805
  N     7.647137  9.632541  1.043218
  N     5.310405  5.162541  0.129253
  N     5.530910  8.714322 -0.083382
  N     4.893232  5.768319  3.989995
  N     4.824879  8.937457  3.802163
  S     4.082118  5.355534  2.638581
  S     4.098152  8.679637  2.322659
  S     6.878855  5.539362 -0.334428
  S     6.995005  9.318831 -0.514604
  S     6.508038  6.084280  3.721232
  S     6.436176  9.662785  3.648274
