16  
    
  C     8.331647  6.840859  2.420667
  C     8.847684 10.311192  2.784756
  C     7.233601  6.239716  1.673402
  C     7.579288  9.997708  2.112613
  N     9.490745  7.018536  1.787783
  N     9.922560 10.419565  2.026044
  N     7.508460  6.076632  0.376407
  N     7.718796  9.866606  0.786889
  N     6.557298  6.325937  4.204122
  N     7.059692 10.279829  4.659186
  S     5.888558  5.937081  2.782727
  S     6.247926  9.923170  3.252803
  S     9.126528  6.580545  0.189926
  S     9.295815 10.241914  0.399495
  S     8.129044  6.896659  4.113445
  S     8.732110 10.538358  4.532439
