16  
    
  C     9.913675  7.577702  2.953472
  C    10.560572 11.637025  3.010519
  C     8.799894  7.076506  2.172971
  C     9.364780 10.978268  2.551850
  N    10.976503  7.991182  2.235511
  N    11.540448 11.723030  2.132676
  N     9.043874  7.140950  0.860533
  N     9.412366 10.744132  1.266328
  N     7.950137  7.156273  4.661178
  N     8.984493 11.400179  5.037231
  S     7.371944  6.754261  3.068511
  S     8.105025 10.868139  3.726721
  S    10.558959  7.636971  0.670882
  S    10.918021 11.232438  0.701645
  S     9.560480  7.626273  4.703306
  S    10.503121 11.966908  4.741471
