16  
    
  C    11.019030  8.198860  2.931639
  C    10.933620 11.532831  2.905666
  C     9.930466  7.425599  2.533674
  C     9.683120 11.093625  2.319876
  N    11.887583  8.491134  1.981528
  N    11.917918 11.828086  2.041479
  N     9.946775  7.114112  1.247281
  N     9.730851 11.169942  0.992190
  N     9.551853  7.930693  5.084086
  N     9.112692 11.322088  4.819335
  S     8.768250  7.115343  3.775922
  S     8.346567 10.887344  3.408731
  S    11.252086  7.898630  0.618374
  S    11.201775 11.605345  0.544832
  S    10.952327  8.682240  4.593251
  S    10.729182 11.733262  4.620768
