16  
    
  C     8.334717  6.881227  2.406233
  C     8.868753 10.299068  2.766695
  C     7.224000  6.235724  1.660142
  C     7.576085  9.978289  2.111626
  N     9.503936  7.025210  1.776777
  N     9.931758 10.399698  2.003386
  N     7.509960  6.097384  0.359215
  N     7.729343  9.877027  0.776644
  N     6.583395  6.343792  4.199774
  N     7.073456 10.276414  4.658482
  S     5.905171  5.943557  2.775184
  S     6.251377  9.918128  3.257997
  S     9.146384  6.589892  0.185361
  S     9.302128 10.246107  0.403541
  S     8.149742  6.901792  4.093569
  S     8.742644 10.542703  4.519062
