16  
    
  C     5.378085  5.406189  1.772907
  C     5.166275  8.862039  1.761098
  C     4.147317  5.222486  0.988531
  C     3.923349  8.483755  1.112658
  N     6.466665  5.570760  1.046324
  N     6.166201  9.090798  0.924878
  N     4.354827  5.109169 -0.317025
  N     3.982034  8.523180 -0.195957
  N     3.428556  5.321096  3.452330
  N     3.428158  8.444547  3.589357
  S     2.710572  5.189672  1.981661
  S     2.615688  8.313777  2.164593
  S     6.009147  5.259704 -0.559659
  S     5.529121  9.007404 -0.590385
  S     5.095911  5.739532  3.472184
  S     4.988100  8.897711  3.448533
