16  
    
  C     6.615788  5.765081  2.143518
  C     6.197167  9.226966  1.883227
  C     5.450713  5.315835  1.440786
  C     5.050130  8.722676  1.189260
  N     7.608954  6.117551  1.330073
  N     7.319796  9.412955  1.196868
  N     5.661598  5.059857  0.145783
  N     5.272736  8.608185 -0.127695
  N     4.728013  5.585903  3.918113
  N     4.399232  9.010183  3.716405
  S     4.022355  5.083321  2.421998
  S     3.654977  8.546757  2.218865
  S     7.173539  5.654315 -0.229071
  S     6.819557  9.115289 -0.392964
  S     6.343561  6.054601  3.833706
  S     6.034837  9.360953  3.619093
