16  
    
  C    12.769446  9.260045  3.441800
  C    12.714423 12.867448  3.587760
  C    11.574454  8.752531  2.787780
  C    11.542312 12.233528  3.016657
  N    13.815513  9.452912  2.693975
  N    13.754697 13.064355  2.778098
  N    11.828383  8.404682  1.533268
  N    11.676464 12.135672  1.688904
  N    10.989753  9.254971  5.176072
  N    10.970753 12.671387  5.530365
  S    10.264054  8.612049  3.885296
  S    10.168363 12.311655  4.106381
  S    13.378903  9.001510  1.166662
  S    13.235333 12.604453  1.323892
  S    12.594022  9.591594  5.114471
  S    12.514273 13.191292  5.325720
