16  
    
  C     7.861431  6.376718  2.161798
  C     8.061716 10.607656  2.200380
  C     6.640452  5.869130  1.500058
  C     6.909964  9.944265  1.542350
  N     8.860978  6.622026  1.297916
  N     9.098023 10.823670  1.397348
  N     6.758567  5.790184  0.176389
  N     7.136941  9.649845  0.233496
  N     6.185014  5.758205  4.057778
  N     6.345407 10.147840  4.078348
  S     5.356573  5.543788  2.580229
  S     5.620945  9.683767  2.665995
  S     8.259732  6.272247 -0.208325
  S     8.600098 10.204868 -0.143282
  S     7.737842  6.357590  3.892280
  S     7.880849 10.855440  3.907594
