16  
    
  C     9.297267  6.619038  2.504722
  C     9.640689 10.637934  2.796819
  C     8.055260  6.309553  1.818531
  C     8.328669 10.223396  2.258471
  N    10.319420  6.845146  1.687751
  N    10.615244 10.734834  1.913140
  N     8.159833  6.201824  0.504303
  N     8.385409 10.021205  0.933445
  N     7.395444  6.373062  4.260533
  N     7.972046 10.501525  4.780338
  S     6.744953  6.034842  2.777777
  S     7.082990 10.071372  3.406867
  S     9.722275  6.693033  0.140454
  S     9.939035 10.373430  0.431910
  S     9.023785  6.799447  4.227308
  S     9.564802 10.930892  4.477083
