16  
    
  C     7.718609  6.614061  2.435066
  C     7.838823 10.143877  2.170544
  C     6.499299  6.058364  1.856193
  C     6.602165  9.925840  1.461725
  N     8.738191  6.598139  1.578808
  N     8.886682 10.044089  1.381429
  N     6.549042  5.812596  0.549683
  N     6.655256  9.657832  0.158529
  N     5.841488  6.870964  4.208877
  N     5.930740  9.989687  3.919967
  S     5.136690  6.169098  2.920381
  S     5.175388  9.952535  2.459413
  S     8.064512  6.137981  0.121204
  S     8.238913  9.751641 -0.199338
  S     7.556404  7.095316  4.128428
  S     7.579529 10.315027  3.922228
