16  
    
  C     3.753690  4.722067  1.575291
  C     3.772875  8.391528  1.701312
  C     2.452336  4.562994  0.950442
  C     2.643877  7.854861  1.054045
  N     4.818045  4.615301  0.807271
  N     4.840817  8.522889  0.940056
  N     2.602355  4.401383 -0.373419
  N     2.815246  7.484523 -0.190216
  N     2.094021  4.815971  3.489082
  N     1.954507  8.382404  3.486845
  S     1.106174  4.495798  2.114989
  S     1.190059  7.908497  2.038610
  S     4.192274  4.342162 -0.684331
  S     4.383876  7.859891 -0.526949
  S     3.714594  4.906650  3.267092
  S     3.550897  8.831097  3.376388
