16  
    
  C     6.703830  5.826250  2.213622
  C     6.771293  9.734352  2.300668
  C     5.397369  5.420406  1.682976
  C     5.485680  9.277791  1.738948
  N     7.655753  6.092756  1.302869
  N     7.711353  9.975606  1.398177
  N     5.435967  5.336577  0.362970
  N     5.529955  9.185767  0.409352
  N     5.104729  5.514733  4.257612
  N     5.185407  9.516458  4.266137
  S     4.148536  5.145978  2.947595
  S     4.240331  9.093503  2.965359
  S     6.969267  5.734998 -0.175373
  S     7.121083  9.557457 -0.040406
  S     6.749066  6.009180  3.967660
  S     6.739935  9.907293  4.013649
