16  
    
  C     4.866332  4.917037  1.837780
  C     4.682383  8.874877  1.743035
  C     3.624850  4.555491  1.258168
  C     3.374551  8.534443  1.172288
  N     5.851228  4.947862  0.930735
  N     5.548256  9.272917  0.811946
  N     3.547761  4.506792 -0.049667
  N     3.375510  8.523722 -0.160805
  N     3.163418  4.535542  3.778141
  N     3.154000  8.419469  3.755710
  S     2.343889  4.440759  2.339024
  S     2.198402  8.146962  2.367881
  S     5.138193  4.718896 -0.536627
  S     4.897131  8.976321 -0.622786
  S     4.795267  4.916250  3.597551
  S     4.785715  8.846091  3.454896
