16  
    
  C    12.789681  9.086247  3.423956
  C    12.807944 12.742674  3.463334
  C    11.510793  8.602710  2.961730
  C    11.656954 12.145827  2.797618
  N    13.753013  9.158832  2.510257
  N    13.807632 13.039305  2.613643
  N    11.494325  8.398536  1.657150
  N    11.756085 12.105333  1.456374
  N    11.138151  9.002118  5.357527
  N    10.897806 12.393298  5.247508
  S    10.255800  8.406320  4.042737
  S    10.206623 11.995435  3.771902
  S    12.965142  8.841555  1.019537
  S    13.319624 12.625038  1.117380
  S    12.713728  9.416734  5.157573
  S    12.472453 13.057639  5.190477
