16  
    
  C     7.810191  6.329990  2.154693
  C     8.087650 10.472714  2.147044
  C     6.611412  6.003937  1.456112
  C     6.895429  9.948041  1.563985
  N     8.873315  6.651094  1.411010
  N     9.125554 10.694394  1.353944
  N     6.829586  5.870577  0.136959
  N     6.987821  9.788687  0.263152
  N     6.094249  6.080314  4.056812
  N     6.412725 10.242983  4.128885
  S     5.344314  5.545878  2.635970
  S     5.640561  9.654780  2.788592
  S     8.363872  6.291602 -0.125439
  S     8.498353 10.227671 -0.174256
  S     7.680416  6.387805  3.880677
  S     7.903523 10.971864  3.802555
