16  
    
  C     4.434948  5.032852  1.324771
  C     4.223159  8.533801  1.594306
  C     3.175131  4.665217  0.740920
  C     3.134793  8.153792  0.788767
  N     5.402686  5.106057  0.439114
  N     5.358834  8.827161  0.977873
  N     3.174352  4.434596 -0.569128
  N     3.342819  8.200415 -0.519482
  N     2.736256  4.983188  3.230815
  N     2.352643  7.777235  3.242908
  S     1.860503  4.663495  1.853782
  S     1.712233  7.746164  1.667730
  S     4.700347  4.882541 -1.084821
  S     4.929554  8.652700 -0.688694
  S     4.419945  5.115152  3.064315
  S     3.840389  8.527604  3.288381
