16  
    
  C     8.911008  7.141581  2.368157
  C     9.166105 10.819131  2.277050
  C     7.716275  6.863184  1.624912
  C     7.893793 10.602664  1.641339
  N    10.004870  7.466146  1.686551
  N    10.208690 10.922717  1.484737
  N     7.909551  6.897848  0.317200
  N     8.010863 10.382273  0.322717
  N     7.128255  6.565160  4.158689
  N     7.469790 10.660861  4.199522
  S     6.312765  6.362413  2.726512
  S     6.568396 10.447277  2.843673
  S     9.493130  7.382358  0.075052
  S     9.556081 10.628842 -0.062372
  S     8.682782  7.164333  4.075482
  S     9.097673 10.889745  4.018209
