16  
    
  C     4.397989  4.915378  1.192633
  C     4.431930  8.343552  1.336713
  C     3.114518  4.777421  0.560670
  C     3.239281  7.787786  0.667342
  N     5.378593  5.054022  0.288745
  N     5.471573  8.491965  0.506551
  N     3.139494  4.679516 -0.778348
  N     3.375026  7.702625 -0.654353
  N     2.550679  4.680303  3.107259
  N     2.568115  8.182199  3.191684
  S     1.740646  4.638292  1.668395
  S     1.865958  7.738276  1.753528
  S     4.696909  4.734344 -1.205334
  S     4.925926  8.184450 -1.056157
  S     4.152729  5.238912  2.969670
  S     4.252251  8.498022  3.066543
