16  
    
  C    12.765990  9.000926  3.782611
  C    12.806309 12.491560  3.689226
  C    11.519536  8.619220  3.183147
  C    11.623170 12.048380  3.012845
  N    13.655378  9.279272  2.843005
  N    13.842015 12.680495  2.885393
  N    11.447074  8.433961  1.867803
  N    11.686978 12.095556  1.699074
  N    11.255099  8.444609  5.757056
  N    10.976743 12.270268  5.505610
  S    10.368585  8.172664  4.413508
  S    10.272656 11.889687  4.102842
  S    12.979546  8.912583  1.376516
  S    13.184589 12.596072  1.305258
  S    12.630187  9.245257  5.575828
  S    12.570132 12.706204  5.377152
