16  
    
  C     8.274405  6.550299  2.302470
  C     8.095205 10.083637  2.517327
  C     7.077523  6.180651  1.700232
  C     7.019704  9.447102  1.892676
  N     9.283145  6.648731  1.431672
  N     9.038006 10.397956  1.628891
  N     7.120931  5.713598  0.444788
  N     7.127036  9.133768  0.618163
  N     6.504228  6.416337  4.161526
  N     6.218207  9.906654  4.317225
  S     5.749128  5.993048  2.705691
  S     5.612794  9.320519  2.872482
  S     8.705014  6.041854  0.008305
  S     8.586091  9.843734  0.154307
  S     8.037982  6.945771  3.999545
  S     7.835237 10.322899  4.244842
