16  
    
  C     7.976624  6.578241  2.561808
  C     8.538959 10.326323  2.412111
  C     6.825897  6.016593  1.848878
  C     7.241774  9.853807  1.906165
  N     9.098734  6.731618  1.860819
  N     9.515877 10.413285  1.541458
  N     7.097300  5.982192  0.532098
  N     7.289898  9.600513  0.586354
  N     6.214362  6.303378  4.361620
  N     6.918872 10.418432  4.357810
  S     5.479400  5.979443  2.914269
  S     6.026608  9.721225  3.136533
  S     8.653126  6.418998  0.324699
  S     8.850726  9.856253  0.080328
  S     7.756840  6.786094  4.221587
  S     8.575043 10.507000  4.100043
