16  
    
  C     9.367722  7.016294  2.906309
  C     9.624213 10.829609  2.616589
  C     8.180788  6.533782  2.234011
  C     8.500720 10.205389  1.974397
  N    10.363487  7.292612  2.082721
  N    10.604019 11.195242  1.811801
  N     8.238364  6.539600  0.911631
  N     8.586654 10.234391  0.667525
  N     7.559921  6.565881  4.737931
  N     7.983177 10.285335  4.493500
  S     6.906418  5.951506  3.310168
  S     7.238699  9.768457  3.129102
  S     9.761650  7.025308  0.541234
  S    10.016594 10.893578  0.250109
  S     9.152165  6.915577  4.650046
  S     9.534246 10.874749  4.340816
