16  
    
  C     4.444404  5.054128  1.204516
  C     4.325219  8.434210  1.503892
  C     3.179896  4.581379  0.635499
  C     3.139413  8.127353  0.713398
  N     5.388611  5.171349  0.269440
  N     5.395180  8.781868  0.791059
  N     3.124429  4.552354 -0.678245
  N     3.420787  7.952473 -0.567304
  N     2.691504  4.839762  3.128700
  N     2.410664  8.119807  3.165941
  S     1.847080  4.723541  1.741713
  S     1.753365  7.647258  1.697688
  S     4.708483  4.812813 -1.252528
  S     4.980885  8.441247 -0.808349
  S     4.307749  5.165157  2.960750
  S     4.040349  8.411523  3.234852
