16  
    
  C     4.437672  5.047997  1.714593
  C     4.196639  8.600079  1.610689
  C     3.217049  4.601247  1.079739
  C     3.069751  8.262602  0.819420
  N     5.520594  5.169989  0.929872
  N     5.187700  9.132346  0.876121
  N     3.357735  4.582677 -0.258723
  N     3.285258  8.226100 -0.497055
  N     2.764824  4.846176  3.613649
  N     2.269468  8.135402  3.249329
  S     1.868827  4.808015  2.241998
  S     1.655661  7.728302  1.745350
  S     4.987470  4.785718 -0.558540
  S     4.801724  8.885158 -0.676082
  S     4.324271  5.325126  3.415547
  S     3.856895  8.544648  3.334106
