16  
    
  C    10.877176  8.101992  3.182227
  C    10.631889 11.991931  3.192770
  C     9.650059  7.658862  2.573279
  C     9.420161 11.322804  2.688563
  N    11.860361  8.184847  2.292936
  N    11.417760 12.392907  2.213662
  N     9.705726  7.404992  1.260687
  N     9.461226 11.016882  1.407040
  N     9.192156  7.680005  5.083412
  N     9.110747 11.744171  5.266763
  S     8.406682  7.192779  3.772916
  S     8.310446 10.948514  3.981716
  S    11.194035  7.817655  0.769322
  S    10.913058 11.714983  0.803921
  S    10.787320  8.095677  4.977659
  S    10.719884 12.081391  4.938261
