16  
    
  C    12.033702  8.539166  3.615313
  C    12.075754 11.960715  3.345600
  C    10.892150  8.116045  2.825466
  C    10.842037 11.535103  2.700631
  N    13.159021  8.704249  2.933299
  N    13.086587 12.284694  2.527338
  N    11.108155  8.052691  1.519939
  N    11.057239 11.347404  1.388611
  N    10.162345  8.354797  5.360965
  N    10.343508 11.981999  5.129846
  S     9.455189  7.975631  3.889389
  S     9.474257 11.462668  3.875882
  S    12.739787  8.455056  1.358654
  S    12.517253 11.939145  0.976007
  S    11.755201  8.740065  5.296361
  S    11.924084 12.379028  5.000344
