16  
    
  C     7.401048  5.972087  2.192811
  C     7.830875  9.779636  2.242061
  C     6.191088  5.559164  1.515493
  C     6.550538  9.412674  1.637602
  N     8.395431  6.282158  1.387704
  N     8.827330  9.971702  1.366362
  N     6.273071  5.494518  0.186574
  N     6.628092  9.299436  0.310499
  N     5.643507  5.637043  4.032801
  N     6.285244  9.357720  4.207621
  S     4.922764  5.168861  2.657916
  S     5.335741  9.269413  2.893509
  S     7.893787  5.973494 -0.170070
  S     8.168906  9.581539 -0.147124
  S     7.251446  6.121200  3.917076
  S     7.873302  9.957144  3.954252
