16  
    
  C     5.657141  5.395772  1.893885
  C     5.371141  8.888430  1.765359
  C     4.332096  5.023674  1.417253
  C     4.230390  8.343425  1.017097
  N     6.561252  5.541717  0.921659
  N     6.423843  9.125889  0.991332
  N     4.193497  4.936487  0.100242
  N     4.462643  8.229544 -0.285326
  N     4.071252  5.163154  3.941740
  N     3.435241  8.883669  3.402401
  S     3.150787  4.792322  2.651310
  S     2.846563  8.079338  2.081524
  S     5.693748  5.308682 -0.518759
  S     6.033009  8.705058 -0.564877
  S     5.619110  5.471024  3.666074
  S     5.112108  9.192566  3.454444
