16  
    
  C     6.353601  5.857858  1.991842
  C     6.075952  9.158501  1.722422
  C     5.107426  5.385475  1.432978
  C     4.846144  8.787109  1.081450
  N     7.430575  5.775720  1.202908
  N     7.150549  9.285109  0.927897
  N     5.192186  5.172958  0.126534
  N     4.940353  8.608865 -0.235039
  N     4.691213  5.629029  3.931526
  N     4.381845  8.863486  3.594613
  S     3.724307  5.298915  2.567503
  S     3.514620  8.577440  2.254184
  S     6.814736  5.396353 -0.305298
  S     6.499794  8.930012 -0.624689
  S     6.253988  6.145930  3.700846
  S     5.905996  9.411026  3.418100
