16  
    
  C    11.870471  8.687965  3.541176
  C    11.604447 12.298456  3.287782
  C    10.597419  8.355320  2.909466
  C    10.457478 11.799621  2.581777
  N    12.856002  8.827535  2.691408
  N    12.713206 12.413609  2.517582
  N    10.676587  8.230408  1.611391
  N    10.670156 11.432908  1.314045
  N    10.017347  8.537336  5.348642
  N     9.560292 11.866999  5.032558
  S     9.252223  8.264484  3.917012
  S     8.983158 11.457671  3.441338
  S    12.259821  8.420701  1.182177
  S    12.273789 11.897617  0.989265
  S    11.627404  9.008579  5.213596
  S    11.195356 12.300766  4.981745
