16  
    
  C     5.996530  5.595413  2.149431
  C     5.972852  9.174416  1.566141
  C     4.716068  5.439501  1.527981
  C     4.781766  8.706403  0.927354
  N     6.981221  5.543257  1.283776
  N     6.981111  9.297952  0.725737
  N     4.748031  5.320101  0.202938
  N     4.925744  8.468671 -0.375881
  N     4.301103  5.813837  4.064642
  N     4.262833  9.075576  3.433112
  S     3.447715  5.740346  2.689618
  S     3.417314  8.755752  2.046044
  S     6.358856  5.317432 -0.226337
  S     6.536377  8.839395 -0.773689
  S     6.011729  5.869927  3.868153
  S     5.831040  9.496929  3.276754
