16  
    
  C     7.541306  6.040253  2.166022
  C     7.911080  9.862103  2.262017
  C     6.354327  5.536661  1.536494
  C     6.690792  9.335717  1.698797
  N     8.463439  6.466014  1.317311
  N     8.848363 10.143933  1.383528
  N     6.479356  5.403292  0.202891
  N     6.657562  9.314564  0.378599
  N     5.886668  5.760163  4.117836
  N     6.325193  9.650418  4.264504
  S     5.076884  5.238778  2.747554
  S     5.467544  9.064144  2.976184
  S     7.930007  6.027723 -0.205015
  S     8.253745  9.806015 -0.118262
  S     7.427779  6.217435  3.917717
  S     7.843394 10.155988  4.007870
