16  
    
  C    12.585271  8.877630  3.484094
  C    12.217780 12.887501  3.665944
  C    11.366745  8.379429  2.798518
  C    11.042706 12.294678  3.071897
  N    13.576023  9.143113  2.650084
  N    13.235628 13.235394  2.841010
  N    11.503359  8.310826  1.477702
  N    11.299776 11.994277  1.802422
  N    10.885761  8.732182  5.348646
  N    10.525491 12.458296  5.601569
  S    10.049177  8.239135  3.934741
  S     9.883613 11.746247  4.267717
  S    13.044497  8.809088  1.131367
  S    12.777718 12.596582  1.341629
  S    12.487377  9.087540  5.225346
  S    12.073408 13.132012  5.377778
