16  
    
  C    11.364010  8.517660  3.361692
  C    11.354942 12.410391  3.291737
  C    10.207386  7.890656  2.753155
  C    10.224078 11.691613  2.749638
  N    12.441163  8.643466  2.592165
  N    12.386317 12.529935  2.512037
  N    10.365231  7.535991  1.475669
  N    10.411934 11.317983  1.490788
  N     9.515083  8.496306  5.128192
  N     9.650971 12.483893  5.155731
  S     8.821411  7.756309  3.845194
  S     8.947278 11.671322  3.864288
  S    11.944430  8.036737  1.104967
  S    11.964030 11.773240  1.055679
  S    11.074740  9.032471  4.996065
  S    11.306930 12.746796  4.996055
