16  
    
  C     7.578005  6.603972  2.311594
  C     7.666439 10.051001  2.260533
  C     6.288136  6.141999  1.814650
  C     6.488266  9.707959  1.523919
  N     8.551342  6.667947  1.435372
  N     8.797169 10.178090  1.608007
  N     6.288047  5.775119  0.551322
  N     6.750240  9.562509  0.230175
  N     6.108940  6.553585  4.374288
  N     5.860653 10.042446  4.032204
  S     5.095270  6.157369  3.071136
  S     5.072863  9.746086  2.612319
  S     7.901516  6.039970  0.048543
  S     8.359144  9.805141  0.018205
  S     7.651720  6.863243  4.003884
  S     7.511450 10.203693  3.977445
