16  
    
  C     6.569483  5.851062  1.910002
  C     6.575938  9.611318  1.852160
  C     5.303807  5.517977  1.375415
  C     5.353355  9.122696  1.277474
  N     7.567562  5.851490  1.028410
  N     7.578471  9.678238  0.965624
  N     5.307485  5.253304  0.070253
  N     5.451084  8.859091 -0.017685
  N     5.001006  5.756330  3.943549
  N     4.987159  9.140552  3.905886
  S     4.048995  5.433175  2.609231
  S     4.074514  8.900243  2.468814
  S     6.861179  5.468201 -0.427061
  S     7.024314  9.263716 -0.500095
  S     6.584264  6.005431  3.612677
  S     6.566094  9.700532  3.630134
