16  
    
  C     7.277362  5.870055  2.223204
  C     7.550002  9.602206  2.390064
  C     6.117003  5.499720  1.424396
  C     6.300856  9.364753  1.700589
  N     8.352890  6.250785  1.519217
  N     8.646227  9.731066  1.654681
  N     6.411686  5.350631  0.136072
  N     6.487684  9.306108  0.394407
  N     5.320523  5.668107  3.876504
  N     5.728150  9.677974  4.185484
  S     4.690691  5.278082  2.413809
  S     4.963662  9.338871  2.800512
  S     8.006495  5.908156 -0.095634
  S     8.071388  9.534274  0.057600
  S     6.909663  6.060952  3.928800
  S     7.369128  9.799757  4.125987
