16  
    
  C     5.596241  5.468564  1.953720
  C     5.550218  8.986042  1.851392
  C     4.388498  4.813270  1.422638
  C     4.398502  8.418879  1.161675
  N     6.489251  5.725501  0.996723
  N     6.606651  9.233851  1.079271
  N     4.524766  4.409244  0.147046
  N     4.588910  8.325679 -0.169767
  N     4.072607  4.878670  4.025940
  N     3.866218  8.431761  3.724605
  S     3.203982  4.443839  2.622967
  S     3.088879  8.143925  2.281069
  S     5.910445  5.110390 -0.420970
  S     6.101311  8.834090 -0.458567
  S     5.545827  5.699296  3.703492
  S     5.378026  9.123541  3.604329
