16  
    
  C     8.112104  6.328661  2.294851
  C     7.981463 10.166940  2.295361
  C     6.850798  5.990568  1.639145
  C     6.757554  9.706291  1.695137
  N     9.132700  6.565831  1.471372
  N     9.013239 10.265683  1.467287
  N     7.022155  5.708771  0.326125
  N     6.909264  9.419815  0.420447
  N     6.417023  6.251849  4.202589
  N     6.322151  9.880270  4.267305
  S     5.528232  5.828695  2.795851
  S     5.482921  9.449740  2.864917
  S     8.651831  6.197228 -0.060982
  S     8.533721  9.840651  0.000387
  S     7.981456  6.623372  3.984415
  S     7.914084 10.331538  4.004536
