16  
    
  C    12.051366  8.504531  3.446296
  C    12.052497 12.199047  3.269772
  C    10.842604  8.121706  2.752358
  C    10.933225 11.665706  2.573221
  N    13.110878  8.687568  2.689445
  N    13.128130 12.510243  2.532887
  N    10.958492  8.077955  1.433800
  N    11.235381 11.283614  1.326728
  N    10.251106  8.359616  5.303992
  N    10.342887 12.009798  5.031421
  S     9.441742  8.066604  3.909483
  S     9.626874 11.384927  3.691915
  S    12.568637  8.422811  1.100628
  S    12.783212 11.856597  1.068975
  S    11.882400  8.789170  5.135015
  S    11.894490 12.399908  4.953317
