16  
    
  C     8.915889  7.170360  2.678509
  C     8.923817 11.080678  2.344319
  C     7.793722  6.397237  2.253561
  C     7.794671 10.525837  1.675364
  N     9.878263  7.335789  1.761387
  N     9.937151 11.387823  1.547519
  N     7.709730  6.117818  0.954586
  N     7.824440 10.545155  0.353352
  N     7.320544  6.850508  4.751993
  N     7.105100 10.660523  4.174308
  S     6.488300  6.307471  3.424538
  S     6.512637 10.024566  2.754860
  S     9.127138  6.751729  0.295128
  S     9.244355 11.157021 -0.034799
  S     8.738307  7.664774  4.409386
  S     8.717223 11.160597  4.076918
