16  
    
  C     6.591091  5.816761  2.128045
  C     6.240494  9.204398  1.908269
  C     5.481531  5.268707  1.415304
  C     5.081693  8.715063  1.181750
  N     7.608984  6.129544  1.351898
  N     7.346872  9.434311  1.213027
  N     5.629633  5.080435  0.108699
  N     5.303170  8.596339 -0.129979
  N     4.716633  5.509229  3.918760
  N     4.459540  8.980407  3.685094
  S     4.079963  5.106031  2.441615
  S     3.684437  8.564192  2.204217
  S     7.187742  5.653240 -0.183994
  S     6.833510  9.142570 -0.380918
  S     6.348965  6.054322  3.824679
  S     6.047077  9.384662  3.644403
