16  
    
  C    12.705072  8.899968  3.615189
  C    12.400857 12.788422  3.920631
  C    11.455671  8.437417  3.009757
  C    11.234163 12.248353  3.202073
  N    13.721331  8.960931  2.734146
  N    13.362404 13.180893  3.065676
  N    11.548311  8.303888  1.690011
  N    11.398884 12.064688  1.903857
  N    10.937897  8.568818  5.550593
  N    10.493111 12.498573  5.602266
  S    10.110217  8.187112  4.126777
  S     9.920213 11.745215  4.210842
  S    13.040867  8.691159  1.221699
  S    12.926519 12.581429  1.544164
  S    12.518216  9.129179  5.332578
  S    12.073607 13.145795  5.585179
