16  
    
  C     8.806659  7.326492  2.490972
  C     9.188613 10.649574  2.153267
  C     7.594302  6.902254  1.785810
  C     7.866280 10.559514  1.494064
  N     9.776352  7.766580  1.688473
  N    10.212394 10.781982  1.341283
  N     7.667478  6.880310  0.477102
  N     7.956819 10.578306  0.166128
  N     6.947183  6.717255  4.249827
  N     7.370936 10.641973  4.020035
  S     6.373821  6.216344  2.791574
  S     6.573354 10.419416  2.603325
  S     9.218126  7.433062  0.094352
  S     9.514544 10.702247 -0.247772
  S     8.581532  7.116531  4.257795
  S     8.996103 10.883786  3.897851
