16  
    
  C     4.556524  5.141494  1.627990
  C     4.366594  8.461084  1.510219
  C     3.334221  4.611929  1.041629
  C     3.161177  8.022761  0.902634
  N     5.568985  5.235606  0.735743
  N     5.389039  8.667997  0.688795
  N     3.340832  4.604493 -0.291396
  N     3.268116  7.625737 -0.364753
  N     2.811244  4.825512  3.513287
  N     2.582757  8.544932  3.376893
  S     2.008712  4.539853  2.101211
  S     1.840028  7.938175  2.001711
  S     4.864036  4.848966 -0.734841
  S     4.849159  8.059228 -0.774739
  S     4.323656  5.500490  3.356516
  S     4.227927  8.882253  3.154792
