16  
    
  C    11.011737  7.730807  3.182474
  C    11.484519 11.714869  2.901168
  C     9.785033  7.579276  2.361733
  C    10.260000 11.117986  2.422000
  N    12.120145  7.727296  2.463161
  N    12.373418 12.037322  1.941729
  N    10.009700  7.495314  1.075124
  N    10.264542 10.837242  1.133077
  N     9.032046  7.534782  4.910735
  N     9.653719 11.691539  4.840764
  S     8.326932  7.372576  3.320431
  S     8.917795 10.900346  3.582382
  S    11.636802  7.637486  0.835833
  S    11.754822 11.392486  0.566434
  S    10.672911  7.693721  4.845978
  S    11.191193 12.247756  4.585464
