16  
    
  C    11.877352  8.387037  3.265229
  C    11.466730 12.096757  3.494343
  C    10.636714  8.141354  2.574820
  C    10.323228 11.463509  2.847829
  N    12.874153  8.675687  2.449506
  N    12.518318 12.325210  2.687169
  N    10.729573  8.170040  1.258606
  N    10.461456 11.349445  1.518661
  N    10.192626  8.122578  5.130026
  N     9.733931 11.713957  5.285585
  S     9.337116  8.158844  3.691907
  S     8.974930 11.115254  3.983865
  S    12.313494  8.581452  0.883456
  S    12.001074 12.049374  1.170885
  S    11.817824  8.444324  5.008401
  S    11.283962 12.167755  5.243666
