16  
    
  C     9.900200  7.745706  2.870450
  C     9.869549 11.163932  2.891675
  C     8.748502  7.256306  2.157647
  C     8.634974 10.822452  2.193037
  N    10.896401  7.995455  1.997837
  N    10.915877 11.215392  2.058233
  N     8.871426  7.122390  0.838283
  N     8.735074 10.766277  0.837205
  N     7.922781  7.483208  4.544330
  N     8.119561 10.773860  4.678821
  S     7.287235  7.023811  3.084868
  S     7.273093 10.865964  3.303600
  S    10.417044  7.525113  0.486514
  S    10.330157 11.010459  0.511160
  S     9.525314  7.764797  4.566391
  S     9.709614 11.340246  4.618007
