16  
    
  C     5.312608  5.527287  1.641142
  C     5.166322  9.006903  1.341507
  C     3.975068  5.204594  1.142902
  C     3.979875  8.505077  0.791562
  N     6.299393  5.498975  0.759245
  N     6.207764  8.945000  0.520473
  N     3.977152  4.922178 -0.133655
  N     4.062840  8.236969 -0.505087
  N     3.828989  5.538372  3.712863
  N     3.451534  8.932944  3.258485
  S     2.806620  5.028895  2.474128
  S     2.712129  8.218038  1.956834
  S     5.542931  5.129626 -0.704011
  S     5.641731  8.416517 -0.927371
  S     5.377309  5.828224  3.335697
  S     5.020981  9.403541  3.022124
