16  
    
  C    12.318825  9.242844  3.500511
  C    12.461598 12.733984  3.513150
  C    11.217472  8.624224  2.777354
  C    11.244929 12.183544  2.971002
  N    13.305524  9.716054  2.736778
  N    13.391542 12.885464  2.591304
  N    11.490155  8.459959  1.486684
  N    11.195941 12.036315  1.640184
  N    10.583838  8.351360  5.270655
  N    10.921419 12.525868  5.479695
  S    10.003787  7.941015  3.780644
  S    10.002598 12.158026  4.165163
  S    12.927639  9.204520  1.186229
  S    12.686087 12.497995  1.121830
  S    12.024625  9.182026  5.260071
  S    12.436390 13.050730  5.157133
