16  
    
  C     9.867349  7.764644  2.814847
  C     9.865677 11.148108  2.863788
  C     8.721549  7.278276  2.140438
  C     8.666511 10.839932  2.187309
  N    10.910372  7.968380  2.009470
  N    10.922120 11.219205  2.062259
  N     8.869547  7.130567  0.830814
  N     8.731254 10.772292  0.864303
  N     7.956117  7.416217  4.535550
  N     8.132158 10.781141  4.696741
  S     7.292502  7.074874  3.096738
  S     7.262600 10.835202  3.288959
  S    10.427241  7.545153  0.463774
  S    10.344522 11.025647  0.560450
  S     9.569021  7.756366  4.550888
  S     9.693715 11.360518  4.634083
