16  
    
  C    10.659015  8.378570  3.110209
  C    10.806020 11.757993  3.178000
  C     9.493155  7.794698  2.512355
  C     9.615735 11.387565  2.448883
  N    11.691965  8.546694  2.330037
  N    11.864006 12.004962  2.409536
  N     9.627462  7.509809  1.239890
  N     9.748063 11.120700  1.150092
  N     9.066402  8.075450  5.019574
  N     8.822867 11.738705  4.906940
  S     8.219749  7.631168  3.685738
  S     8.182549 11.272424  3.436288
  S    11.214335  8.050045  0.795431
  S    11.379966 11.567330  0.865777
  S    10.502159  8.754414  4.798027
  S    10.442443 12.059039  4.856393
