16  
    
  C     6.687242  5.698691  1.916411
  C     6.663475  9.525969  1.973819
  C     5.379758  5.455585  1.396783
  C     5.415804  9.120913  1.450242
  N     7.669967  5.778728  1.011597
  N     7.607388  9.645669  1.035412
  N     5.413409  5.336984  0.092788
  N     5.343731  9.017521  0.138290
  N     4.943065  5.885758  3.808673
  N     5.041675  9.318493  4.007544
  S     4.016779  5.429976  2.512395
  S     4.097201  8.986910  2.564360
  S     6.949447  5.567962 -0.486208
  S     6.914937  9.286592 -0.397576
  S     6.650657  5.961621  3.661264
  S     6.626290  9.804446  3.674449
