16  
    
  C    12.060905  8.828726  3.452377
  C    11.825871 12.295759  3.339343
  C    10.845088  8.536085  2.705103
  C    10.513325 12.028765  2.737395
  N    13.148424  9.049570  2.751005
  N    12.784982 12.486770  2.445459
  N    11.024206  8.438687  1.393601
  N    10.586531 11.821481  1.400151
  N    10.167918  8.543432  5.236644
  N    10.342644 12.078173  5.317493
  S     9.466412  8.308570  3.769233
  S     9.306268 11.890576  4.002707
  S    12.707682  8.713094  1.186696
  S    12.126109 12.258494  0.936175
  S    11.836856  8.875082  5.167227
  S    11.925081 12.247485  5.019392
