16  
    
  C    10.999842  7.695592  3.152690
  C    11.361481 11.847316  2.944938
  C     9.788622  7.497165  2.344544
  C    10.263751 11.086509  2.415530
  N    12.126688  7.851061  2.455320
  N    12.393730 11.974711  2.131461
  N    10.042355  7.483827  1.059840
  N    10.403648 10.770627  1.135826
  N     9.009796  7.541135  4.728387
  N     9.813331 11.536006  4.932164
  S     8.303016  7.450725  3.280879
  S     9.021377 10.921466  3.600540
  S    11.700676  7.596874  0.891929
  S    11.833942 11.416280  0.608673
  S    10.634895  7.792078  4.867634
  S    11.280475 12.331639  4.624576
