16  
    
  C     9.164303  7.136371  2.549764
  C     8.833164 11.102289  2.318774
  C     7.932415  6.609093  2.029192
  C     7.725378 10.416855  1.753093
  N    10.122445  7.313316  1.656833
  N     9.846085 11.392107  1.512194
  N     7.919883  6.240579  0.759015
  N     7.866514 10.138056  0.436960
  N     7.533972  7.031022  4.534360
  N     7.213481 10.501512  4.231107
  S     6.745803  6.298884  3.239917
  S     6.413257 10.158236  2.820530
  S     9.454016  6.631940  0.207702
  S     9.301166 10.722713 -0.005870
  S     9.125526  7.381274  4.298556
  S     8.704554 11.309610  4.073311
