16  
    
  C     5.964235  4.791955  1.856855
  C     5.783070  9.242736  1.987665
  C     4.768153  4.542598  1.047711
  C     4.624604  8.581611  1.375687
  N     7.045959  5.018523  1.080961
  N     6.796081  9.387632  1.164250
  N     5.005531  4.414871 -0.250911
  N     4.705473  8.467767  0.061345
  N     3.863495  4.917587  3.431359
  N     4.148682  8.976568  3.892066
  S     3.342708  4.225330  1.982675
  S     3.409427  8.340472  2.504154
  S     6.592066  4.779203 -0.518203
  S     6.305028  8.957416 -0.335138
  S     5.571750  5.096857  3.547671
  S     5.635368  9.590877  3.659066
