16  
    
  C    11.785702  8.674711  3.497091
  C    11.645103 11.845138  3.346808
  C    10.576743  8.265255  2.835536
  C    10.425253 11.675998  2.582370
  N    12.888405  8.856904  2.746413
  N    12.721820 12.088969  2.620274
  N    10.761937  8.139705  1.522979
  N    10.655603 11.591988  1.275493
  N     9.954101  8.587187  5.287635
  N     9.679527 11.891132  5.075478
  S     9.167078  8.240262  3.859149
  S     8.995699 11.537445  3.565035
  S    12.334216  8.440034  1.223320
  S    12.254219 11.913417  1.014109
  S    11.549623  8.883430  5.190440
  S    11.361040 12.052131  5.028364
