16  
    
  C    12.016089  8.507403  3.408254
  C    12.107394 12.175518  3.271224
  C    10.769058  8.209170  2.762815
  C    10.981035 11.509735  2.589894
  N    13.063098  8.630226  2.572269
  N    13.077959 12.531417  2.476260
  N    10.932260  8.043020  1.439200
  N    11.185733 11.268104  1.296566
  N    10.266903  8.384818  5.318193
  N    10.272164 12.039478  5.111314
  S     9.485151  8.063953  3.879467
  S     9.560066 11.449510  3.656940
  S    12.492673  8.428081  1.065460
  S    12.775349 11.896084  1.012300
  S    11.938750  8.785131  5.112024
  S    11.928645 12.385000  4.958345
