16  
    
  C    11.446164  8.838082  3.215624
  C    11.419326 12.259509  3.279281
  C    10.355987  8.054714  2.713641
  C    10.236379 11.877873  2.550674
  N    12.371700  9.081229  2.312113
  N    12.476320 12.583158  2.496607
  N    10.509534  7.687575  1.460532
  N    10.418356 11.803052  1.219962
  N     9.828232  8.328803  5.196741
  N     9.493414 11.810984  5.098170
  S     9.048178  7.763729  3.862201
  S     8.906457 11.328134  3.548854
  S    11.927015  8.333341  0.892747
  S    12.023531 12.187993  0.969015
  S    11.364276  9.021031  4.939787
  S    11.081431 12.389263  4.951510
