16  
    
  C     6.689439  5.652988  1.999530
  C     6.642970  9.530448  2.073299
  C     5.389611  5.515948  1.366368
  C     5.384155  9.074333  1.532322
  N     7.651810  5.838955  1.120091
  N     7.608530  9.624229  1.161408
  N     5.452628  5.359316  0.045607
  N     5.383585  8.952719  0.190378
  N     4.948134  5.808041  3.909095
  N     5.100684  9.335148  4.194545
  S     4.152928  5.396511  2.548595
  S     4.175279  9.067312  2.789521
  S     7.034452  5.602686 -0.396302
  S     6.948788  9.389146 -0.285815
  S     6.628319  5.947422  3.701977
  S     6.626886  9.817718  3.757911
