16  
    
  C     7.204483  6.046236  2.150543
  C     7.450433  9.705350  2.428478
  C     6.102623  5.465250  1.405156
  C     6.211709  9.447051  1.728255
  N     8.370612  6.213407  1.511444
  N     8.566926  9.682210  1.695329
  N     6.391004  5.336418  0.106604
  N     6.383436  9.262853  0.429106
  N     5.231760  5.637605  3.852047
  N     5.604261  9.517865  4.271520
  S     4.674244  5.223392  2.355293
  S     4.814253  9.432797  2.816484
  S     7.965494  5.836090 -0.049243
  S     8.045125  9.460723  0.140385
  S     6.885840  6.157620  3.842180
  S     7.276042  9.879910  4.143163
