16  
    
  C    12.390475  9.037363  3.433218
  C    12.412776 12.767918  3.452673
  C    11.275999  8.544983  2.645986
  C    11.146655 12.275777  2.975087
  N    13.400753  9.531074  2.706336
  N    13.368852 12.860638  2.529050
  N    11.484047  8.585566  1.315840
  N    11.149800 12.036865  1.680356
  N    10.634591  8.428779  5.100143
  N    10.799555 12.648825  5.479848
  S     9.956373  7.979390  3.672820
  S     9.976674 11.903329  4.224346
  S    12.997324  9.248002  1.130105
  S    12.615677 12.455433  1.054149
  S    12.044025  9.239309  5.178010
  S    12.374033 13.082134  5.181352
