16  
    
  C    10.467790  7.462263  2.630881
  C    10.416257 11.323067  2.642386
  C     9.139963  7.410766  2.075791
  C     9.145830 11.150666  2.004530
  N    11.460299  7.352148  1.771623
  N    11.473382 11.332741  1.815878
  N     9.155237  7.287765  0.767175
  N     9.271783 10.794802  0.728726
  N     8.814828  7.780244  4.591471
  N     8.568757 11.281477  4.498602
  S     7.852074  7.444122  3.244491
  S     7.768887 11.258271  3.059747
  S    10.709220  7.194903  0.309790
  S    10.882154 10.947098  0.361417
  S    10.484577  7.626504  4.417958
  S    10.242714 11.505482  4.411938
