16  
    
  C     6.624824  5.948149  2.085507
  C     6.441361  9.366929  1.916711
  C     5.449155  5.393263  1.465122
  C     5.290448  8.885089  1.218075
  N     7.695325  6.047609  1.290124
  N     7.504867  9.580077  1.136894
  N     5.570030  5.197336  0.163516
  N     5.461406  8.702475 -0.077409
  N     4.813547  5.462706  3.959357
  N     4.574002  8.983692  3.674555
  S     4.015277  5.112680  2.521952
  S     3.917487  8.500901  2.276498
  S     7.127948  5.613055 -0.240761
  S     7.026067  9.208946 -0.417626
  S     6.418858  6.095033  3.852291
  S     6.182172  9.459099  3.662446
