16  
    
  C     9.587913  7.335227  2.962447
  C     9.608030 10.897777  2.748483
  C     8.510867  6.765548  2.198531
  C     8.433367 10.466850  2.136104
  N    10.683804  7.668453  2.246897
  N    10.637615 11.167515  1.933841
  N     8.716678  6.787008  0.881064
  N     8.500365 10.390793  0.812632
  N     7.756283  6.643843  4.586807
  N     7.914805 10.672827  4.609600
  S     7.151955  6.226135  3.142392
  S     7.107344 10.239231  3.225129
  S    10.242797  7.347923  0.668900
  S    10.000403 10.856974  0.391973
  S     9.247140  7.366735  4.659860
  S     9.531858 11.031806  4.479630
