16  
    
  C    11.824913  8.601742  3.458628
  C    11.614061 11.846393  3.407634
  C    10.614136  8.217109  2.767563
  C    10.384910 11.668465  2.642782
  N    12.920046  8.690647  2.672910
  N    12.668106 12.067786  2.667051
  N    10.777717  8.035241  1.427038
  N    10.575935 11.663650  1.323358
  N     9.920522  8.486587  5.220833
  N     9.812399 11.683096  5.164097
  S     9.174754  8.288536  3.786539
  S     9.077382 11.400999  3.713381
  S    12.358285  8.437738  1.133013
  S    12.160228 11.802749  1.072744
  S    11.533014  8.805378  5.169071
  S    11.486218 11.960997  5.161849
