16  
    
  C     5.578946  5.287887  1.863967
  C     5.349632  8.846002  1.740257
  C     4.240944  5.047634  1.373158
  C     4.134752  8.414075  1.055018
  N     6.505109  5.437620  0.917386
  N     6.414801  9.037165  0.955003
  N     4.144197  5.134599  0.052336
  N     4.297828  8.291007 -0.242071
  N     4.052824  5.146161  3.993670
  N     3.391200  8.762503  3.453324
  S     3.057012  4.921095  2.617558
  S     2.772290  8.118354  2.047133
  S     5.688284  5.275774 -0.541214
  S     5.909691  8.703692 -0.577810
  S     5.697238  5.471817  3.582886
  S     4.981675  9.274243  3.330950
