16  
    
  C     8.711947  7.329651  2.643416
  C     8.982307 11.088345  2.178020
  C     7.553908  6.684112  2.150376
  C     7.795353 10.669832  1.521904
  N     9.655640  7.602443  1.724683
  N    10.025179 11.415375  1.421771
  N     7.537801  6.431620  0.850334
  N     7.944660 10.536543  0.206932
  N     7.017433  6.837320  4.663201
  N     7.236036 10.381986  3.980208
  S     6.300873  6.214970  3.264539
  S     6.476538 10.219615  2.535999
  S     8.972616  7.041345  0.232363
  S     9.457043 11.021296 -0.192878
  S     8.572834  7.395193  4.444156
  S     8.807254 10.941843  3.954920
