16  
    
  C    10.931121  7.789211  3.129238
  C    11.477976 11.866385  2.988839
  C     9.795755  7.514642  2.329475
  C    10.319472 11.206884  2.422925
  N    12.078235  7.847725  2.465673
  N    12.436909 12.111762  2.102412
  N    10.076146  7.364267  1.059284
  N    10.445611 10.814063  1.149794
  N     8.941704  7.667796  4.827173
  N     9.890826 11.469829  4.941833
  S     8.359986  7.452589  3.255476
  S     9.072142 10.895043  3.632386
  S    11.692779  7.615943  0.875665
  S    11.960357 11.379552  0.736736
  S    10.623436  7.898945  4.848904
  S    11.291714 12.317491  4.647972
