16  
    
  C     5.369432  5.498114  1.660570
  C     5.275193  9.021659  1.784091
  C     4.200704  5.131070  0.924813
  C     4.123752  8.546579  1.002544
  N     6.434627  5.745263  0.928488
  N     6.344571  9.197533  1.023956
  N     4.387627  5.000852 -0.370138
  N     4.315884  8.373907 -0.286312
  N     3.587845  5.158536  3.413601
  N     3.349474  8.766320  3.412478
  S     2.824146  5.086851  2.009050
  S     2.735224  8.261636  1.934647
  S     6.000294  5.454317 -0.651665
  S     5.922018  8.825827 -0.533950
  S     5.159403  5.692481  3.379298
  S     4.985530  8.950169  3.477029
