16  
    
  C     9.374058  6.623381  2.390924
  C     9.386364 10.547259  2.788557
  C     8.146576  6.309360  1.722789
  C     8.144181 10.415371  2.132989
  N    10.429825  6.751537  1.586694
  N    10.437636 10.318475  2.037895
  N     8.300885  6.052479  0.435070
  N     8.204248 10.028855  0.857753
  N     7.373461  6.712485  4.112871
  N     7.531894 11.020268  4.601287
  S     6.686290  6.203938  2.659498
  S     6.758674 10.667317  3.162475
  S     9.914192  6.373942  0.039728
  S     9.910109  9.939717  0.532671
  S     8.993330  6.943612  4.125020
  S     9.201267 10.940432  4.510241
