16  
    
  C     3.479034  4.762748  1.504676
  C     3.599932  8.273793  1.295962
  C     2.354141  4.047309  0.870186
  C     2.269911  8.144973  0.694774
  N     4.572660  4.777738  0.721891
  N     4.549315  8.440299  0.387675
  N     2.510366  3.792434 -0.406312
  N     2.252437  8.094111 -0.631710
  N     1.709891  4.226033  3.325356
  N     1.885306  8.126379  3.260436
  S     1.035372  3.666686  1.887849
  S     1.060762  7.793987  1.814848
  S     4.002280  4.308919 -0.839775
  S     3.811560  8.304309 -1.114281
  S     3.197321  4.873647  3.194909
  S     3.471359  8.611136  2.990150
