16  
    
  C     8.004533  6.615787  2.676504
  C     8.715319 10.273280  2.702745
  C     6.855198  6.252625  1.940845
  C     7.489604  9.874686  2.123275
  N     9.085595  6.860902  1.935457
  N     9.685760 10.400125  1.804022
  N     7.079619  5.932736  0.674220
  N     7.526232  9.691062  0.786449
  N     6.097115  6.266149  4.404163
  N     6.924368 10.185811  4.562980
  S     5.499256  5.840414  2.895733
  S     6.075380  9.864799  3.142980
  S     8.694562  6.319682  0.429211
  S     9.073356 10.038484  0.368642
  S     7.673600  6.780464  4.383147
  S     8.468317 10.773984  4.372581
