16  
    
  C    12.185869  9.209031  3.561931
  C    12.481059 12.832645  3.489033
  C    11.209187  8.437541  2.865393
  C    11.243779 12.344322  2.930015
  N    13.202288  9.681499  2.838793
  N    13.437768 12.987960  2.599137
  N    11.499188  8.434847  1.551691
  N    11.268636 12.084721  1.619096
  N    10.641105  8.387930  5.446277
  N    10.847544 12.644737  5.504344
  S     9.926616  7.910977  3.920089
  S     9.930665 12.202805  4.176140
  S    12.947001  9.182103  1.292501
  S    12.844379 12.556568  1.119720
  S    12.112513  9.203558  5.291971
  S    12.527391 12.934754  5.204026
