16  
    
  C    10.368907  7.613704  2.550069
  C    10.434091 11.409077  2.697994
  C     9.059162  7.442806  2.006429
  C     9.208916 11.233202  1.992423
  N    11.432045  7.457443  1.785099
  N    11.541893 11.284112  2.009108
  N     9.078429  7.202468  0.704124
  N     9.403427 11.050975  0.701994
  N     8.725773  7.793521  4.561428
  N     8.612263 11.256810  4.496446
  S     7.850425  7.296215  3.276659
  S     7.859742 11.414117  3.042561
  S    10.720762  7.205279  0.274294
  S    11.012015 11.013486  0.413428
  S    10.324131  7.813173  4.300445
  S    10.212881 11.595771  4.431536
