16  
    
  C     8.552780  6.682095  2.348326
  C     8.345782 10.264850  2.507677
  C     7.342268  6.151795  1.797335
  C     7.228141  9.694534  1.811270
  N     9.529349  6.874182  1.503616
  N     9.427491 10.453924  1.748678
  N     7.340425  6.038058  0.493272
  N     7.406693  9.461133  0.522435
  N     6.989231  6.263405  4.302562
  N     6.473070 10.127385  4.231955
  S     6.042315  5.884109  2.955913
  S     5.809025  9.493095  2.838608
  S     8.858583  6.540837 -0.039133
  S     8.964799 10.056032  0.199103
  S     8.553460  6.788244  4.116226
  S     8.080090 10.563910  4.172920
