16  
    
  C     6.655897  5.882295  2.120036
  C     6.456206  9.332060  1.943811
  C     5.406382  5.449241  1.466578
  C     5.306788  8.781564  1.237397
  N     7.687254  6.106932  1.295276
  N     7.519467  9.582146  1.172725
  N     5.616922  5.148765  0.192885
  N     5.438134  8.709984 -0.098540
  N     4.806197  5.385535  3.938611
  N     4.537022  8.944405  3.757484
  S     4.009950  5.101530  2.506835
  S     3.875275  8.537859  2.232982
  S     7.173558  5.622259 -0.238303
  S     6.962444  9.183430 -0.424437
  S     6.406555  6.099908  3.849919
  S     6.113145  9.442937  3.647987
