16  
    
  C     4.818339  4.823366  1.916798
  C     4.631263  8.985771  1.711752
  C     3.529103  4.636613  1.243357
  C     3.435804  8.492172  1.137623
  N     5.832410  5.061322  1.090381
  N     5.604928  9.244715  0.847887
  N     3.635789  4.547538 -0.103942
  N     3.398712  8.587191 -0.185469
  N     3.078025  4.665451  3.795936
  N     3.138464  8.321882  3.685390
  S     2.232768  4.412159  2.380197
  S     2.234269  8.099654  2.334403
  S     5.260081  4.711262 -0.455461
  S     4.911905  8.998216 -0.665018
  S     4.744885  4.951768  3.617921
  S     4.713365  8.835688  3.448400
