16  
    
  C    11.810317  8.573485  3.369258
  C    11.583287 11.989193  3.441662
  C    10.578874  8.337791  2.613475
  C    10.358637 11.662148  2.762163
  N    12.898006  8.600925  2.627915
  N    12.661749 12.221013  2.669908
  N    10.760854  8.227218  1.305730
  N    10.620431 11.389747  1.460873
  N    10.010799  8.340782  5.150634
  N     9.788835 11.561092  5.364163
  S     9.215726  8.208124  3.721058
  S     9.031979 11.313575  3.864285
  S    12.383082  8.343371  1.100029
  S    12.114741 11.865571  1.086448
  S    11.669922  8.658166  5.134463
  S    11.448219 11.962654  5.163610
