16  
    
  C     7.661021  6.599474  2.364383
  C     7.768474 10.105134  2.221826
  C     6.407920  6.135891  1.851832
  C     6.566426  9.842307  1.529659
  N     8.621595  6.626221  1.458547
  N     8.810134 10.158446  1.418028
  N     6.444380  5.786151  0.586576
  N     6.673480  9.590398  0.235332
  N     5.952509  6.750198  4.359436
  N     5.869495  9.988985  4.030664
  S     5.091571  6.175858  3.036874
  S     5.102178  9.884885  2.525509
  S     7.980793  6.070194  0.034989
  S     8.350361  9.755390 -0.079619
  S     7.578834  6.984327  4.062716
  S     7.502262 10.204547  3.933513
