16  
    
  C    11.870259  8.821476  3.404705
  C    11.601888 12.194674  3.252581
  C    10.602819  8.298858  2.919032
  C    10.458663 11.581989  2.574946
  N    12.816212  8.874201  2.460026
  N    12.550630 12.587990  2.419115
  N    10.584620  8.026831  1.623330
  N    10.612136 11.389404  1.268662
  N    10.240895  8.607846  5.396041
  N     9.705317 11.832245  4.985926
  S     9.330213  8.291322  4.047331
  S     9.108818 11.240194  3.586071
  S    12.093628  8.304118  1.036627
  S    12.145994 12.067978  0.904300
  S    11.816274  9.093782  5.086117
  S    11.176104 12.640227  4.959103
