16  
    
  C     8.052532  6.335294  2.262316
  C     8.071878 10.108452  2.239975
  C     6.870326  5.901795  1.648869
  C     6.843923  9.774949  1.641012
  N     9.061170  6.547478  1.418183
  N     9.098055 10.186280  1.388437
  N     6.889439  5.838935  0.333870
  N     6.861468  9.712962  0.308020
  N     6.330822  6.085161  4.115875
  N     6.314597  9.870602  4.132499
  S     5.522075  5.656802  2.704628
  S     5.536250  9.526563  2.719282
  S     8.426411  6.237414 -0.080016
  S     8.417859  9.896687 -0.125392
  S     7.902297  6.395565  4.004716
  S     7.867367 10.479750  3.987577
