16  
    
  C     8.006195  6.643718  2.677322
  C     8.708060 10.295899  2.668185
  C     6.865039  6.246287  1.949387
  C     7.465801  9.884608  2.090109
  N     9.103703  6.854310  1.954753
  N     9.712310 10.370204  1.796271
  N     7.047626  5.920678  0.681611
  N     7.500831  9.674028  0.780628
  N     6.071869  6.242521  4.393782
  N     6.927561 10.190977  4.552516
  S     5.508634  5.856045  2.882065
  S     6.075967  9.841573  3.139148
  S     8.661514  6.311889  0.413216
  S     9.042387 10.021323  0.339903
  S     7.662865  6.786276  4.385854
  S     8.470953 10.775133  4.367518
