16  
    
  C     9.129774  7.086309  2.370830
  C     9.104612 11.036385  2.688296
  C     7.908373  6.679034  1.698862
  C     7.918962 10.488331  2.086385
  N    10.169952  7.160479  1.542411
  N    10.094949 11.185572  1.842124
  N     8.008568  6.519802  0.397299
  N     7.966996 10.330266  0.762948
  N     7.237612  6.848380  4.129545
  N     7.387750 10.703624  4.593913
  S     6.479840  6.492096  2.692538
  S     6.575432 10.332235  3.158233
  S     9.622841  6.832877 -0.000589
  S     9.535912 10.795883  0.314977
  S     8.900908  7.068995  4.087985
  S     8.934920 11.270536  4.367617
