16  
    
  C    10.843100  8.182347  2.887856
  C    10.803793 11.907790  3.050494
  C     9.636262  7.782261  2.245654
  C     9.630553 11.427167  2.326872
  N    11.891901  8.375875  2.103367
  N    11.878140 12.005150  2.299247
  N     9.798054  7.642999  0.938550
  N     9.886679 11.242039  1.039919
  N     9.108963  8.040400  4.760054
  N     8.893661 11.753879  4.816561
  S     8.273410  7.641244  3.385989
  S     8.308497 11.156278  3.385663
  S    11.370260  8.015716  0.599690
  S    11.425858 11.587726  0.731832
  S    10.709016  8.383385  4.649508
  S    10.541165 12.227948  4.764448
