16  
    
  C     8.399649  6.621862  2.570772
  C     8.827311 10.419042  2.825080
  C     7.204624  6.194987  1.816611
  C     7.578361 10.053014  2.171707
  N     9.408691  6.954380  1.737147
  N     9.805978 10.562624  1.961810
  N     7.485652  6.004505  0.526866
  N     7.682563  9.877027  0.853538
  N     6.454782  6.285766  4.277088
  N     6.980484 10.318764  4.629805
  S     5.779762  5.887447  2.745120
  S     6.245610  9.951007  3.210926
  S     9.002608  6.536047  0.223941
  S     9.264953 10.181463  0.475742
  S     7.993177  6.880695  4.272568
  S     8.633780 10.503305  4.568697
