16  
    
  C    10.290826  7.632534  2.608918
  C    10.525883 11.391900  2.809188
  C     9.053545  7.244265  2.049005
  C     9.306986 11.297590  2.042737
  N    11.290305  7.688896  1.730726
  N    11.660668 11.255689  2.152303
  N     9.072047  7.076040  0.733720
  N     9.480573 11.163099  0.749400
  N     8.570042  7.727772  4.524390
  N     8.568801 11.326337  4.524147
  S     7.738255  7.140889  3.130941
  S     7.840407 11.446873  3.025125
  S    10.682425  7.243348  0.259558
  S    11.158382 11.148104  0.528368
  S    10.222976  8.019978  4.342885
  S    10.234169 11.636218  4.540746
