16  
    
  C     4.504339  5.211957  1.616091
  C     4.485540  8.492844  1.484938
  C     3.245879  4.827093  1.028424
  C     3.288381  7.914846  0.895650
  N     5.523522  5.310943  0.743862
  N     5.532515  8.465508  0.646118
  N     3.370071  4.478587 -0.262035
  N     3.383643  7.704275 -0.424749
  N     2.778897  4.885667  3.605414
  N     2.601424  8.767927  3.234121
  S     2.011270  4.445223  2.183578
  S     1.910347  7.848966  2.001211
  S     4.908128  4.906983 -0.738258
  S     4.983796  8.041976 -0.826690
  S     4.346620  5.383006  3.403716
  S     4.250126  8.892404  3.199426
