16  
    
  C    12.370542  8.963673  3.556504
  C    12.468987 12.716703  3.411238
  C    11.107962  8.569045  3.004156
  C    11.295633 12.076010  2.831571
  N    13.399913  9.030240  2.699127
  N    13.456855 12.796027  2.541077
  N    11.158590  8.244939  1.681839
  N    11.337241 11.905039  1.515562
  N    10.677434  9.177227  5.596785
  N    10.692496 12.584994  5.300581
  S     9.820648  8.654624  4.174051
  S     9.910829 12.019953  3.938497
  S    12.813005  8.471402  1.266146
  S    12.834931 12.451098  1.064079
  S    12.285721  9.460968  5.185699
  S    12.355158 13.080905  5.127516
