16  
    
  C     5.532722  5.509001  1.912758
  C     5.558140  8.928337  1.856811
  C     4.435421  4.763022  1.442007
  C     4.408523  8.463273  1.148361
  N     6.482908  5.749270  1.007265
  N     6.561614  9.266392  1.053143
  N     4.486683  4.505213  0.141483
  N     4.570022  8.267233 -0.149829
  N     4.075834  4.865999  4.033394
  N     3.823909  8.467486  3.716795
  S     3.197271  4.518934  2.656384
  S     3.037393  8.147766  2.189990
  S     5.899020  5.137712 -0.408104
  S     6.116881  8.806679 -0.477425
  S     5.553470  5.658871  3.656710
  S     5.359659  9.128033  3.597196
