16  
    
  C     7.039112  5.979660  1.936919
  C     7.271271  9.731101  2.488758
  C     5.920663  5.341943  1.286653
  C     5.983429  9.440794  1.838026
  N     8.074982  6.195270  1.153726
  N     8.317421  9.746359  1.671979
  N     6.193380  5.052592  0.003959
  N     6.150145  9.146457  0.554557
  N     5.238802  5.816479  3.693215
  N     5.520304  9.799859  4.329208
  S     4.620030  4.969594  2.402872
  S     4.651681  9.594875  2.938482
  S     7.692002  5.640227 -0.336461
  S     7.825491  9.396594  0.179969
  S     6.808358  6.402504  3.601480
  S     7.161427 10.059484  4.190138
