16  
    
  C     6.548219  5.852043  1.987699
  C     6.634044  9.386853  1.902126
  C     5.288671  5.383533  1.420069
  C     5.437649  8.871811  1.262324
  N     7.523694  5.920421  1.093188
  N     7.570827  9.665259  0.995364
  N     5.294986  5.225367  0.100798
  N     5.504201  8.732581 -0.046664
  N     4.962789  5.738192  3.997882
  N     4.943283  8.959209  3.783857
  S     4.088347  5.395148  2.612105
  S     4.118380  8.772510  2.355131
  S     6.846830  5.480310 -0.356928
  S     7.015329  9.325252 -0.474323
  S     6.533615  6.070015  3.714357
  S     6.441211  9.669300  3.583258
