16  
    
  C     6.562842  5.851489  1.901824
  C     6.622422  9.601360  1.900917
  C     5.290269  5.414711  1.374899
  C     5.346089  9.226562  1.305345
  N     7.550676  5.814603  1.024906
  N     7.598935  9.693818  1.024481
  N     5.291000  5.314160  0.047337
  N     5.403259  8.885364  0.012604
  N     4.951112  5.791368  3.902874
  N     5.017520  9.219962  3.854899
  S     4.134936  5.457576  2.575410
  S     4.131330  8.935911  2.503583
  S     6.883914  5.489219 -0.440159
  S     6.965781  9.244057 -0.494877
  S     6.584428  5.987024  3.622101
  S     6.543852  9.712823  3.653591
