16  
    
  C     7.678510  6.367847  2.290465
  C     7.802377 10.005223  2.445798
  C     6.339314  6.019367  1.840723
  C     6.609562  9.600519  1.755656
  N     8.543367  6.539422  1.304691
  N     8.844224 10.177134  1.628975
  N     6.233078  5.791500  0.554665
  N     6.704574  9.574293  0.461326
  N     6.091015  6.334109  4.331196
  N     5.850116  9.878320  4.167445
  S     5.147210  5.983146  3.037117
  S     5.196046  9.399918  2.719084
  S     7.764681  6.146788 -0.111845
  S     8.303689  9.869434  0.070910
  S     7.634682  6.657330  4.014354
  S     7.420031 10.305197  4.154284
