16  
    
  C    11.867016  8.741370  3.388638
  C    11.551483 12.265034  3.261834
  C    10.614841  8.261699  2.896611
  C    10.484134 11.560037  2.575906
  N    12.834147  8.908113  2.499351
  N    12.644410 12.479006  2.490045
  N    10.587075  8.069143  1.593972
  N    10.707704 11.424754  1.274279
  N    10.176467  8.658344  5.378100
  N     9.719581 11.908875  4.940462
  S     9.313889  8.314536  4.055371
  S     9.046093 11.210443  3.644914
  S    12.121905  8.340111  1.084267
  S    12.154646 12.093744  0.921503
  S    11.795631  9.070980  5.093123
  S    11.130625 12.608718  4.899222
