16  
    
  C    11.063951  8.188749  3.104158
  C    11.517730 11.683839  3.188124
  C     9.831016  7.526570  2.633733
  C    10.270184 11.501398  2.491659
  N    12.014725  8.288157  2.182211
  N    12.630765 11.816423  2.472006
  N     9.898831  7.080154  1.370837
  N    10.475515 11.353614  1.211223
  N     9.498809  8.084491  5.175943
  N     9.629390 11.424192  4.942802
  S     8.603456  7.411057  3.854573
  S     8.854920 11.299130  3.477276
  S    11.355736  7.653662  0.781872
  S    12.092570 11.338309  0.884263
  S    11.086011  8.450059  4.781418
  S    11.238564 11.879398  4.892427
