16  
    
  C    11.844893  8.810991  3.329290
  C    11.498149 12.412930  3.203864
  C    10.547914  8.331967  2.834639
  C    10.479355 11.601085  2.567782
  N    12.804416  8.807241  2.381343
  N    12.502413 12.673613  2.378949
  N    10.571039  7.904841  1.563386
  N    10.645678 11.392746  1.266819
  N    10.303096  8.549456  5.407708
  N     9.793103 11.813567  5.041429
  S     9.385859  8.198302  4.105230
  S     9.135745 11.305095  3.575259
  S    12.084332  8.270319  0.985201
  S    12.071866 12.005967  0.895448
  S    11.868314  9.136683  5.107402
  S    11.287178 12.543551  4.924762
