16  
    
  C     9.525761  7.579986  2.566956
  C    10.162328 11.398945  2.569258
  C     8.428112  6.754791  2.078231
  C     8.894018 10.896153  1.987721
  N    10.549100  7.891048  1.746469
  N    11.181192 11.438848  1.730376
  N     8.661034  6.385567  0.816976
  N     8.982978 10.752460  0.668088
  N     7.832826  7.436204  4.502582
  N     8.567289 11.082683  4.512189
  S     7.152003  6.558450  3.277259
  S     7.689248 10.717105  3.154116
  S    10.191488  6.994972  0.389508
  S    10.551400 11.036233  0.197465
  S     9.390159  7.925884  4.262354
  S    10.092140 11.601946  4.281280
