16  
    
  C     3.567096  4.706260  1.529552
  C     3.834527  8.346101  1.692925
  C     2.314980  4.401204  0.854114
  C     2.613813  7.888603  1.106155
  N     4.599844  5.081023  0.766008
  N     4.875101  8.268789  0.854767
  N     2.534754  4.280283 -0.472369
  N     2.632845  7.765373 -0.232370
  N     1.965430  4.297967  3.444805
  N     2.136054  8.264527  3.618112
  S     1.083279  4.159569  2.038985
  S     1.315101  7.872229  2.228048
  S     4.120260  4.637215 -0.722202
  S     4.211814  7.990430 -0.645774
  S     3.567643  4.853966  3.213924
  S     3.758119  8.666541  3.389666
