16  
    
  C    11.152758  8.193354  3.135843
  C    11.421746 11.777276  3.176875
  C     9.892341  7.604834  2.658622
  C    10.191700 11.475083  2.516225
  N    12.061071  8.331789  2.178851
  N    12.507199 11.638407  2.416518
  N     9.987048  7.277683  1.365169
  N    10.332232 11.305783  1.202579
  N     9.544943  8.079122  5.114714
  N     9.641438 11.535053  5.079008
  S     8.641232  7.536402  3.866613
  S     8.852817 11.468640  3.631083
  S    11.488564  7.640378  0.819016
  S    11.961607 11.417260  0.920586
  S    11.113383  8.442888  4.845804
  S    11.280891 11.863286  4.966122
