16  
    
  C    12.763664  8.996431  3.783190
  C    12.804445 12.480156  3.688675
  C    11.519321  8.615750  3.185368
  C    11.619522 12.052735  3.019862
  N    13.654599  9.270057  2.853529
  N    13.839575 12.691353  2.890982
  N    11.445708  8.431891  1.872096
  N    11.687305 12.097194  1.704237
  N    11.256737  8.444369  5.764690
  N    10.971694 12.270859  5.502761
  S    10.365075  8.168838  4.413549
  S    10.267125 11.887579  4.105430
  S    12.985047  8.918059  1.375676
  S    13.188577 12.594308  1.315279
  S    12.628742  9.245412  5.577529
  S    12.569960 12.706429  5.383087
