16  
    
  C     5.712403  5.199194  1.867968
  C     5.662706  9.205523  2.002770
  C     4.628739  4.501703  1.223217
  C     4.533008  8.574738  1.415580
  N     6.816930  5.297672  1.111228
  N     6.582586  9.641663  1.127621
  N     4.837495  4.260166 -0.069586
  N     4.674004  8.276611  0.113515
  N     3.979201  4.673943  3.729608
  N     4.103720  8.698832  3.996589
  S     3.217704  4.325717  2.261696
  S     3.332082  8.253907  2.618640
  S     6.397714  4.755439 -0.393728
  S     6.067174  8.989351 -0.304680
  S     5.481954  5.370696  3.632391
  S     5.636769  9.477825  3.735432
