16  
    
  C    10.837447  8.185738  2.891335
  C    10.817724 11.914438  3.058098
  C     9.619513  7.781617  2.246473
  C     9.625418 11.474667  2.311790
  N    11.871876  8.399349  2.089895
  N    11.893088 12.001085  2.296375
  N     9.781738  7.661683  0.952549
  N     9.891711 11.234113  1.034864
  N     9.091433  8.057918  4.742232
  N     8.890222 11.770328  4.808266
  S     8.263161  7.646669  3.398031
  S     8.296869 11.152883  3.385953
  S    11.372304  8.010702  0.599989
  S    11.426841 11.574887  0.733336
  S    10.693526  8.372587  4.643555
  S    10.531272 12.218023  4.767147
