16  
    
  C     3.617256  4.390871  1.595712
  C     3.825591  8.439958  1.646239
  C     2.385304  3.931791  0.945643
  C     2.576092  7.934627  1.017882
  N     4.551971  4.884692  0.784626
  N     4.841082  8.633344  0.812246
  N     2.528182  3.898748 -0.378701
  N     2.711316  7.904362 -0.306303
  N     1.897224  4.210768  3.515740
  N     2.076234  7.912980  3.513535
  S     1.165238  3.544025  2.188497
  S     1.225901  7.849868  2.132887
  S     3.960309  4.665902 -0.727631
  S     4.258006  8.322090 -0.720621
  S     3.494598  4.819163  3.242890
  S     3.699427  8.359786  3.373112
