16  
    
  C     5.060194  5.350355  1.889144
  C     5.109853  8.727316  1.444611
  C     3.816815  4.970444  1.294461
  C     3.822929  8.306145  0.877898
  N     6.097907  5.351641  1.058890
  N     6.090261  8.789807  0.548521
  N     3.903893  4.588119  0.021355
  N     3.909034  8.095832 -0.440034
  N     3.369859  5.807540  3.764535
  N     3.402265  8.816662  3.377481
  S     2.521099  5.224840  2.459400
  S     2.529447  8.340638  2.045909
  S     5.533148  4.660318 -0.322509
  S     5.422562  8.393418 -0.927910
  S     5.021008  5.760329  3.582005
  S     5.041848  8.980656  3.181753
