16  
    
  C     6.925148  5.783551  2.091792
  C     7.281471  9.917723  2.422560
  C     5.847315  5.368628  1.217408
  C     6.031360  9.515458  1.772327
  N     8.111301  5.856585  1.501679
  N     8.259238 10.148161  1.559635
  N     6.200734  5.018470 -0.009203
  N     6.098901  9.384257  0.456198
  N     4.693129  5.877692  3.439071
  N     5.422991  9.741978  4.211085
  S     4.273499  5.257136  1.963317
  S     4.661957  9.290957  2.855743
  S     7.821639  5.271394 -0.053521
  S     7.601100  9.741120  0.012559
  S     6.307594  6.109199  3.661200
  S     7.092976 10.075529  4.153822
