16  
    
  C     9.274802  6.916606  2.758538
  C     9.711035 10.841983  2.743273
  C     8.081074  6.428164  2.066573
  C     8.540665 10.184404  2.063559
  N    10.223647  7.280783  1.887304
  N    10.583213 11.297607  1.844820
  N     8.163337  6.308321  0.750627
  N     8.658589 10.053429  0.770830
  N     7.445633  6.345138  4.568773
  N     8.163278 10.050534  4.664839
  S     6.688931  6.086203  3.095357
  S     7.388395  9.620830  3.251177
  S     9.632089  6.877633  0.353983
  S    10.067637 10.826941  0.345388
  S     8.986189  6.925512  4.474452
  S     9.556658 10.955104  4.443697
