16  
    
  C     6.838002  6.082177  2.319630
  C     7.267308  9.772255  2.161636
  C     5.814506  5.476525  1.527289
  C     6.048052  9.527958  1.504460
  N     7.916667  6.345415  1.615201
  N     8.284012  9.839863  1.334024
  N     6.100812  5.318683  0.250115
  N     6.090389  9.281120  0.203996
  N     4.826399  5.634110  3.874665
  N     5.506459  9.591962  4.029453
  S     4.419570  4.982491  2.419236
  S     4.706255  9.347498  2.568269
  S     7.622278  5.928110  0.035126
  S     7.664045  9.521015 -0.235052
  S     6.442295  6.099041  4.055491
  S     7.098762  9.839554  3.908093
