16  
    
  C     8.263974  6.653386  2.462597
  C     8.502980 10.085876  2.345454
  C     7.035483  6.256066  1.799652
  C     7.208485  9.715269  1.814933
  N     9.285155  6.818069  1.645745
  N     9.413900 10.246146  1.377262
  N     7.106565  6.130072  0.479636
  N     7.167390  9.586300  0.506320
  N     6.475077  6.279185  4.296526
  N     6.892752 10.205935  4.333522
  S     5.776148  5.928366  2.880379
  S     5.932944  9.758968  3.012645
  S     8.751775  6.441256  0.122773
  S     8.728224  9.910051 -0.024082
  S     8.058154  6.731792  4.181009
  S     8.484245 10.526566  3.994843
