16  
    
  C    10.923980  7.776551  3.132637
  C    11.463277 11.870290  2.991817
  C     9.804702  7.510132  2.331908
  C    10.311302 11.196304  2.421285
  N    12.085112  7.852598  2.480327
  N    12.424580 12.088167  2.099431
  N    10.067819  7.374251  1.045977
  N    10.431529 10.796742  1.144230
  N     8.954295  7.655193  4.828944
  N     9.886131 11.469926  4.953332
  S     8.356530  7.455754  3.248569
  S     9.072553 10.898963  3.626310
  S    11.694491  7.612334  0.875676
  S    11.953654 11.389436  0.732561
  S    10.621898  7.888442  4.850913
  S    11.295836 12.322950  4.641780
