16  
    
  C     7.019975  5.997253  1.919076
  C     7.253270  9.723955  2.498703
  C     5.939764  5.255756  1.266276
  C     5.990900  9.438364  1.840158
  N     8.049787  6.191074  1.122124
  N     8.295591  9.770661  1.669396
  N     6.153190  5.010271 -0.033864
  N     6.121153  9.146147  0.521593
  N     5.223994  5.811010  3.673704
  N     5.493551  9.831358  4.341323
  S     4.594875  4.966699  2.400087
  S     4.654834  9.591922  2.953482
  S     7.657183  5.628420 -0.356485
  S     7.808655  9.396340  0.195222
  S     6.828156  6.424068  3.574337
  S     7.178479 10.079095  4.179601
