16  
    
  C     6.986623  5.950096  1.685046
  C     7.342421  9.878044  2.502276
  C     5.888257  5.162206  1.209544
  C     6.046271  9.532916  1.931027
  N     7.930058  6.188068  0.771163
  N     8.306987  9.823646  1.579917
  N     6.032665  4.720221 -0.046738
  N     6.033314  9.162812  0.658282
  N     5.167704  5.794550  3.583571
  N     5.503994  9.886843  4.383773
  S     4.568474  4.990498  2.339701
  S     4.679995  9.545377  3.024324
  S     7.399488  5.427468 -0.614978
  S     7.644573  9.405806  0.144168
  S     6.698650  6.402291  3.361200
  S     7.154335 10.242076  4.202006
