16  
    
  C     4.428798  5.122507  1.689425
  C     4.571382  8.440738  1.490065
  C     3.236930  4.607962  1.092424
  C     3.349877  8.039551  0.831018
  N     5.453777  5.440352  0.938814
  N     5.619220  8.501694  0.688843
  N     3.377347  4.544659 -0.224595
  N     3.504874  7.799991 -0.458950
  N     2.852190  4.780725  3.620704
  N     2.701602  8.653853  3.186802
  S     1.956628  4.477103  2.251621
  S     2.013868  7.869526  1.900162
  S     5.005166  4.957820 -0.575329
  S     5.057313  8.064213 -0.804633
  S     4.387186  5.341899  3.370917
  S     4.306430  8.900419  3.111846
