16  
    
  C     7.598621  6.291181  2.257666
  C     7.692539 10.071260  2.447427
  C     6.324972  5.815653  1.739727
  C     6.561526  9.580058  1.728784
  N     8.586296  6.423233  1.366520
  N     8.800260 10.290937  1.737417
  N     6.299069  5.811029  0.398737
  N     6.778562  9.425576  0.407516
  N     6.037948  6.395826  4.281000
  N     5.998036  9.627456  4.290520
  S     5.071402  5.767322  2.939824
  S     5.220226  9.287493  2.836062
  S     7.851924  6.212991 -0.118956
  S     8.314558  9.917581  0.147021
  S     7.699082  6.554908  3.968304
  S     7.544890 10.307338  4.153225
