16  
    
  C     9.437120  7.123743  2.958168
  C     9.573863 10.844447  2.582490
  C     8.348932  6.552610  2.240091
  C     8.343157 10.477502  2.025042
  N    10.461417  7.558253  2.251218
  N    10.566876 11.123128  1.773134
  N     8.589479  6.508738  0.941448
  N     8.405871 10.320624  0.717187
  N     7.743973  6.467864  4.765684
  N     7.921698 10.412650  4.572101
  S     7.059063  6.029977  3.289381
  S     7.070177 10.113772  3.161389
  S    10.079016  7.286765  0.672805
  S     9.953201 10.799584  0.266739
  S     9.261793  7.033648  4.717928
  S     9.506678 10.917309  4.357140
