16  
    
  C     8.083559  6.555406  2.555123
  C     8.536418 10.251232  2.360800
  C     6.922850  6.166980  1.868306
  C     7.277018  9.836748  1.871579
  N     9.140111  6.737735  1.788234
  N     9.475021 10.315165  1.403382
  N     7.051823  5.962297  0.555550
  N     7.262473  9.503184  0.603013
  N     6.240066  6.314908  4.308638
  N     6.911503 10.415117  4.354023
  S     5.509151  5.961753  2.877067
  S     6.025516  9.745768  3.074782
  S     8.663503  6.438402  0.248306
  S     8.773046  9.905826  0.024174
  S     7.841008  6.772515  4.244811
  S     8.548342 10.482976  4.104894
