16  
    
  C     4.539289  5.189527  1.639452
  C     4.427594  8.486082  1.477063
  C     3.262232  4.838230  1.036260
  C     3.275486  7.905523  0.900085
  N     5.524056  5.282332  0.727968
  N     5.484595  8.496821  0.653231
  N     3.340953  4.481215 -0.242150
  N     3.382444  7.690256 -0.421772
  N     2.769871  4.879559  3.586172
  N     2.622846  8.732708  3.246936
  S     2.024360  4.456947  2.143282
  S     1.893525  7.872818  2.021224
  S     4.896134  4.891821 -0.787030
  S     4.945819  8.037364 -0.818516
  S     4.339715  5.417226  3.421810
  S     4.226005  8.889805  3.205262
