16  
    
  C     6.777714  5.912831  1.492474
  C     7.225930  9.935799  2.453615
  C     5.693276  5.120247  0.987470
  C     5.954901  9.523335  1.913632
  N     7.871457  6.020975  0.711900
  N     8.250368 10.036839  1.607953
  N     5.854773  4.695521 -0.274953
  N     6.029477  9.204626  0.605143
  N     5.115126  5.805037  3.423620
  N     5.692726  9.757556  4.500409
  S     4.434073  4.925838  2.219371
  S     4.709215  9.514350  3.143983
  S     7.416306  5.180618 -0.646689
  S     7.611939  9.456623  0.170700
  S     6.605510  6.341449  3.108760
  S     7.198715 10.299618  4.135613
