16  
    
  C     7.960518  6.552138  2.565008
  C     8.533312 10.334300  2.431377
  C     6.831420  6.029935  1.847045
  C     7.263332  9.861680  1.885212
  N     9.091646  6.749987  1.899772
  N     9.534912 10.435100  1.572742
  N     7.089998  5.971774  0.525051
  N     7.285638  9.623592  0.580639
  N     6.185960  6.290743  4.377094
  N     6.919910 10.413543  4.377039
  S     5.460779  5.975199  2.920302
  S     6.027589  9.716922  3.154201
  S     8.653438  6.407693  0.325231
  S     8.872274  9.846486  0.099044
  S     7.748534  6.797539  4.230154
  S     8.575857 10.522143  4.108031
