16  
    
  C     6.828001  5.901141  1.605649
  C     7.256328  9.954485  2.504673
  C     5.705850  5.175012  1.057685
  C     5.991659  9.492352  1.927110
  N     7.763555  6.103452  0.677612
  N     8.223465  9.936126  1.592117
  N     5.929660  4.689809 -0.157101
  N     6.002233  9.217117  0.605048
  N     5.157578  5.825191  3.483148
  N     5.606146  9.813706  4.445971
  S     4.471560  4.898208  2.228034
  S     4.738111  9.533062  3.096192
  S     7.405823  5.254208 -0.663381
  S     7.625929  9.414748  0.151413
  S     6.725079  6.410525  3.241457
  S     7.188689 10.301981  4.174760
