16  
    
  C     7.595389  6.567238  2.309037
  C     7.729557 10.031550  2.350502
  C     6.269994  6.164867  1.828931
  C     6.500529  9.709319  1.629399
  N     8.503628  6.613647  1.351325
  N     8.798203 10.095960  1.594854
  N     6.307331  5.774949  0.574249
  N     6.698574  9.510041  0.330064
  N     6.061794  6.387236  4.345093
  N     5.814769 10.030722  4.081029
  S     5.071005  6.100270  3.080881
  S     5.116929  9.593172  2.618866
  S     7.817018  6.052525 -0.028504
  S     8.351024  9.867986  0.059893
  S     7.737912  6.794863  4.040026
  S     7.483209 10.255486  4.067976
