16  
    
  C     9.241569  6.720700  2.386038
  C     9.565732 10.546165  2.821537
  C     8.033365  6.296917  1.693239
  C     8.261342 10.244998  2.186529
  N    10.343777  6.931593  1.657252
  N    10.583961 10.568087  1.929082
  N     8.280024  6.211753  0.367519
  N     8.380414  9.981845  0.866444
  N     7.437190  6.431878  4.236072
  N     7.844308 10.619897  4.728522
  S     6.652115  6.066330  2.839713
  S     6.973523 10.338259  3.375483
  S     9.871042  6.565487  0.089474
  S     9.915880 10.203152  0.426323
  S     9.084339  6.737263  4.116797
  S     9.461708 10.928150  4.513551
