16  
    
  C     6.766170  5.932457  2.340154
  C     7.015406  9.725676  2.336295
  C     5.561369  5.285159  1.869377
  C     5.803123  9.305693  1.721175
  N     7.539780  6.463903  1.394772
  N     8.003458 10.013554  1.472448
  N     5.532225  5.198691  0.563328
  N     5.816648  9.311247  0.392571
  N     5.240536  5.489220  4.425865
  N     5.202897  9.689227  4.260479
  S     4.385503  4.788295  3.096639
  S     4.401074  9.234043  2.779567
  S     6.860462  5.981656 -0.060110
  S     7.314566  9.677824 -0.091554
  S     6.770202  6.086203  4.130195
  S     6.862431  9.888720  4.077032
