16  
    
  C     5.063740  5.109088  1.876404
  C     5.133361  8.619691  1.927065
  C     3.748486  4.962652  1.289078
  C     3.904665  8.338343  1.242459
  N     6.087362  5.091911  1.028264
  N     6.192015  8.614712  1.141559
  N     3.804761  4.839365 -0.029305
  N     4.071497  7.996535 -0.023651
  N     3.505505  4.762195  3.822885
  N     3.246317  8.769376  3.692512
  S     2.466859  4.846092  2.563185
  S     2.504391  8.443788  2.224340
  S     5.394889  5.036277 -0.498690
  S     5.636740  8.191498 -0.361403
  S     5.155157  5.044109  3.571578
  S     4.893479  8.979451  3.571705
