16  
    
  C     9.842414  7.652481  2.705257
  C     9.895601 11.251423  2.933269
  C     8.621440  7.325373  2.026806
  C     8.675734 10.833519  2.247578
  N    10.898877  7.832758  1.927421
  N    10.979170 11.365911  2.155316
  N     8.809396  7.231144  0.720615
  N     8.846453 10.769614  0.913940
  N     8.148567  7.283152  4.546259
  N     8.022285 11.030626  4.729821
  S     7.285561  7.202143  3.141503
  S     7.309934 10.642937  3.293850
  S    10.412242  7.583855  0.410450
  S    10.428546 11.077937  0.607454
  S     9.753160  7.771362  4.437274
  S     9.641102 11.368543  4.655722
