16  
    
  C     4.481440  5.045772  1.756300
  C     4.161403  8.669629  1.628954
  C     3.250944  4.645870  1.110069
  C     3.037667  8.254278  0.823767
  N     5.508325  5.137283  0.920456
  N     5.187353  9.144685  0.922557
  N     3.293651  4.606630 -0.223955
  N     3.313890  8.263094 -0.483842
  N     2.755073  4.868450  3.589765
  N     2.208839  8.119999  3.223542
  S     1.884173  4.766027  2.192666
  S     1.643458  7.708908  1.701534
  S     4.938102  4.789848 -0.596585
  S     4.805836  8.902895 -0.641048
  S     4.337988  5.317290  3.404925
  S     3.881503  8.511063  3.327420
