16  
    
  C    12.059302  8.549687  3.286885
  C    12.122617 12.144811  3.216744
  C    10.777693  8.324299  2.739955
  C    10.879825 11.699833  2.620537
  N    12.992904  8.711609  2.318732
  N    13.128629 12.251754  2.368189
  N    10.733539  8.236879  1.400778
  N    10.916127 11.440802  1.333646
  N    10.387053  8.469001  5.337814
  N    10.255527 11.949130  5.097189
  S     9.488621  8.086250  3.903952
  S     9.565195 11.566445  3.629170
  S    12.293243  8.351106  0.890712
  S    12.442477 11.941541  0.890848
  S    12.007488  8.689910  5.020893
  S    11.889441 12.385811  4.960842
