16  
    
  C    12.475397  9.080255  3.401194
  C    12.333699 12.827378  3.498593
  C    11.316484  8.617515  2.684986
  C    11.181547 12.122265  3.000101
  N    13.496578  9.431876  2.639940
  N    13.220363 13.075983  2.536327
  N    11.584541  8.484012  1.384712
  N    11.113316 11.971784  1.670462
  N    10.665846  8.444182  5.101775
  N    10.674269 12.509951  5.487035
  S     9.950199  8.150629  3.628662
  S     9.882747 11.824994  4.208093
  S    13.041230  9.024445  1.057044
  S    12.615083 12.537359  1.072949
  S    12.199068  9.130558  5.165352
  S    12.253545 13.081742  5.219282
