16  
    
  C     8.282061  6.593089  2.428540
  C     8.428463 10.162895  2.305615
  C     7.044436  6.306291  1.743447
  C     7.122148  9.820425  1.782253
  N     9.348122  6.842975  1.675292
  N     9.479184 10.230806  1.487901
  N     7.215314  6.115977  0.436371
  N     7.167190  9.594659  0.464652
  N     6.600804  6.255619  4.343260
  N     6.848542 10.161288  4.321462
  S     5.789626  5.903961  2.902578
  S     5.914109  9.707259  3.010943
  S     8.780430  6.483606  0.108648
  S     8.740411  9.890287 -0.012643
  S     8.183231  6.753957  4.111396
  S     8.460609 10.531971  3.974027
