16  
    
  C    12.399882  9.183842  3.354148
  C    12.255634 12.694407  3.517717
  C    11.189004  8.610786  2.825671
  C    11.135569 12.172402  2.775781
  N    13.382492  9.315025  2.470730
  N    13.283845 12.844034  2.715279
  N    11.147551  8.389430  1.505473
  N    11.364204 11.740959  1.540473
  N    10.742909  8.936220  5.249378
  N    10.241130 12.599428  5.176213
  S     9.905403  8.466697  3.921885
  S     9.633489 12.082242  3.699881
  S    12.729413  8.732751  1.024389
  S    12.836552 12.317067  1.124802
  S    12.247623  9.487412  5.113915
  S    11.863281 13.002613  5.248327
