16  
    
  C     9.302769  6.983894  2.903807
  C     9.628568 10.824070  2.645174
  C     8.147633  6.485679  2.227950
  C     8.543252 10.211797  1.997276
  N    10.313052  7.274269  2.080953
  N    10.579124 11.228537  1.808990
  N     8.184441  6.555446  0.906638
  N     8.566896 10.199567  0.669342
  N     7.569437  6.558882  4.688274
  N     8.018344 10.263171  4.484337
  S     6.860404  5.954441  3.309893
  S     7.268336  9.725599  3.112598
  S     9.772988  7.012678  0.541170
  S    10.037616 10.887920  0.276198
  S     9.152017  6.940459  4.587125
  S     9.545465 10.883141  4.356309
