16  
    
  C     6.865632  5.729904  1.608113
  C     7.277891 10.032341  2.489329
  C     5.679448  5.164699  0.940018
  C     5.997582  9.520569  1.944341
  N     7.893613  5.795367  0.783480
  N     8.216986 10.072922  1.532025
  N     5.913633  4.660967 -0.272391
  N     6.000170  9.166493  0.664227
  N     4.945494  5.759364  3.331223
  N     5.660780  9.684091  4.453628
  S     4.300148  4.952952  2.032564
  S     4.737112  9.476292  3.108456
  S     7.469536  5.108202 -0.680768
  S     7.574152  9.554520  0.119631
  S     6.531020  6.395033  3.212587
  S     7.158752 10.290901  4.236153
