16  
    
  C     5.670310  5.256856  1.882253
  C     5.345184  8.899520  1.717555
  C     4.316866  5.109475  1.414542
  C     4.223922  8.307172  1.026232
  N     6.518791  5.527287  0.876668
  N     6.447511  9.080391  0.990114
  N     4.180316  5.038135  0.095397
  N     4.409554  8.294172 -0.296936
  N     4.041479  5.160144  3.947565
  N     3.464375  8.849686  3.393830
  S     3.128587  4.847279  2.654334
  S     2.776557  8.082556  2.064214
  S     5.681931  5.290103 -0.520080
  S     5.959483  8.694610 -0.555400
  S     5.630972  5.469044  3.619652
  S     5.053447  9.240212  3.409786
