16  
    
  C    10.818300  8.258237  3.277737
  C    10.747758 11.847553  3.265739
  C     9.682163  7.634938  2.682420
  C     9.517241 11.251084  2.686025
  N    11.860683  8.485492  2.467955
  N    11.661801 12.214980  2.360770
  N     9.852852  7.338192  1.403946
  N     9.524349 11.115261  1.365757
  N     9.223509  7.843681  5.176051
  N     9.067715 11.447039  5.207128
  S     8.340650  7.472469  3.789100
  S     8.244793 11.062608  3.809189
  S    11.359788  7.982818  0.924623
  S    11.044844 11.764185  0.881173
  S    10.669193  8.588000  4.972099
  S    10.639206 12.167624  5.013150
