16  
    
  C     9.720910  7.549593  2.840952
  C     9.939516 11.176458  2.769711
  C     8.560406  6.999732  2.113371
  C     8.650777 10.834591  2.103066
  N    10.795561  7.819330  2.112736
  N    10.923988 11.332680  1.918768
  N     8.800120  6.832763  0.812323
  N     8.737465 10.685901  0.806783
  N     7.802148  7.459155  4.602913
  N     8.220315 11.195362  4.626230
  S     7.188424  6.726502  3.213525
  S     7.353867 10.854130  3.227324
  S    10.374212  7.375614  0.560645
  S    10.314967 11.006485  0.365954
  S     9.395144  7.961803  4.450223
  S     9.873728 11.220650  4.469036
