16  
    
  C     8.907723  7.141875  2.370076
  C     9.161525 10.817660  2.268966
  C     7.709147  6.874821  1.630870
  C     7.893615 10.609855  1.639548
  N    10.000740  7.474564  1.689467
  N    10.210988 10.916559  1.483932
  N     7.901039  6.897961  0.322359
  N     8.009777 10.386988  0.319987
  N     7.123934  6.566344  4.155284
  N     7.470653 10.665536  4.192856
  S     6.314221  6.356996  2.724818
  S     6.567257 10.445572  2.835997
  S     9.488024  7.385758  0.076553
  S     9.555598 10.626906 -0.069345
  S     8.682290  7.164506  4.077378
  S     9.099591 10.885089  4.014060
