16  
    
  C     4.557596  5.113733  1.618713
  C     4.354930  8.491991  1.497078
  C     3.322046  4.606426  1.035442
  C     3.164004  8.019948  0.909700
  N     5.568653  5.234366  0.740629
  N     5.375347  8.673526  0.676921
  N     3.343159  4.604522 -0.289823
  N     3.257575  7.633994 -0.359294
  N     2.820665  4.824594  3.516783
  N     2.590943  8.518174  3.394084
  S     2.000728  4.550269  2.101815
  S     1.823142  7.943508  1.996636
  S     4.876079  4.849567 -0.715780
  S     4.837576  8.068914 -0.764709
  S     4.322860  5.504808  3.334294
  S     4.225869  8.881217  3.155813
