16  
    
  C     5.993136  5.561234  2.162310
  C     5.945806  9.193975  1.544499
  C     4.723759  5.487592  1.533551
  C     4.765748  8.713333  0.935277
  N     6.973132  5.547756  1.282984
  N     6.982158  9.266483  0.728996
  N     4.747364  5.329734  0.205995
  N     4.919050  8.481773 -0.367070
  N     4.266514  5.809712  4.069949
  N     4.266304  9.055315  3.457145
  S     3.406804  5.740563  2.685401
  S     3.408963  8.768578  2.026694
  S     6.345134  5.308992 -0.227162
  S     6.548749  8.838327 -0.760876
  S     6.013894  5.869953  3.890867
  S     5.820087  9.504912  3.269525
