16  
    
  C    10.537885  7.263036  2.746365
  C    10.317775 11.176104  2.666547
  C     9.211503  7.322380  2.179443
  C     9.029327 10.878026  2.044920
  N    11.523076  7.161263  1.843186
  N    11.339122 11.242689  1.827445
  N     9.227169  7.242958  0.836515
  N     9.118045 10.673818  0.735426
  N     8.773993  7.441815  4.752109
  N     8.552720 11.130094  4.622662
  S     7.968421  7.688717  3.303566
  S     7.733879 10.929042  3.194759
  S    10.775263  7.225971  0.373918
  S    10.738153 10.905639  0.375092
  S    10.444753  7.389605  4.475809
  S    10.176890 11.452855  4.396242
