16  
    
  C     4.456105  5.053448  1.746719
  C     4.179179  8.624181  1.615261
  C     3.235284  4.609079  1.098469
  C     3.057360  8.270257  0.825623
  N     5.516510  5.154329  0.921368
  N     5.184005  9.142500  0.892845
  N     3.322151  4.601666 -0.245111
  N     3.301123  8.241489 -0.490371
  N     2.764528  4.854872  3.601974
  N     2.238041  8.127164  3.235999
  S     1.876029  4.789774  2.220550
  S     1.647311  7.717258  1.721215
  S     4.965894  4.786710 -0.575191
  S     4.803866  8.895220 -0.654960
  S     4.328185  5.320664  3.406322
  S     3.870519  8.527768  3.332051
