16  
    
  C     5.109817  5.073830  1.916778
  C     5.128715  8.655553  1.915475
  C     3.780517  5.045573  1.323727
  C     3.941323  8.257632  1.233888
  N     6.114357  5.161816  1.065685
  N     6.254734  8.562749  1.176453
  N     3.834016  4.856750 -0.001008
  N     4.127662  8.025348 -0.066831
  N     3.469430  4.890011  3.863867
  N     3.224977  8.844908  3.618353
  S     2.510317  4.858330  2.504643
  S     2.502438  8.462962  2.188871
  S     5.456794  4.982647 -0.454632
  S     5.753941  8.225634 -0.341524
  S     5.078766  5.076553  3.655718
  S     4.861697  8.902440  3.618719
