16  
    
  C     9.860214  7.573532  2.663566
  C     9.865975 11.254477  3.006352
  C     8.603380  7.252420  2.026906
  C     8.738920 10.637663  2.251060
  N    10.840482  7.840502  1.798524
  N    10.862332 11.576750  2.165597
  N     8.699588  7.155265  0.689652
  N     8.974968 10.452120  0.955737
  N     8.117740  7.380384  4.584542
  N     8.078642 10.657908  4.779490
  S     7.272064  7.109031  3.188991
  S     7.376477 10.351297  3.301298
  S    10.285895  7.472465  0.325761
  S    10.460973 11.057497  0.627193
  S     9.783727  7.705149  4.315543
  S     9.559404 11.444110  4.689751
