16  
    
  C    12.009758  8.585864  3.233175
  C    12.002869 12.157054  3.236928
  C    10.667172  8.325680  2.688333
  C    10.808992 11.716216  2.610279
  N    13.002922  8.643569  2.375858
  N    13.030244 12.197937  2.380248
  N    10.665188  8.206801  1.362127
  N    10.848488 11.692872  1.261135
  N    10.413702  8.470685  5.282024
  N    10.298114 11.936784  5.143456
  S     9.496363  8.116427  3.942598
  S     9.474630 11.552761  3.707196
  S    12.286480  8.422437  0.877361
  S    12.414985 11.904088  0.856972
  S    12.028146  8.678448  4.994277
  S    11.946564 12.394470  4.911169
