16  
    
  C     7.989422  6.704397  2.642549
  C     8.610730 10.366657  2.574261
  C     6.887750  6.131151  1.962984
  C     7.382346  9.949719  1.991910
  N     9.096703  6.761835  1.892799
  N     9.632333 10.331929  1.751406
  N     7.078539  5.948497  0.668025
  N     7.416512  9.641045  0.693473
  N     6.122551  6.225312  4.364544
  N     6.905900 10.258373  4.528037
  S     5.415778  5.896263  2.873437
  S     6.098521  9.766989  3.166201
  S     8.619723  6.326153  0.352551
  S     8.990379  9.935127  0.201302
  S     7.649701  6.815289  4.404626
  S     8.497982 10.704188  4.282947
