16  
    
  C     4.470261  5.036015  1.624909
  C     4.274391  8.666921  1.479045
  C     3.219031  4.710832  0.975226
  C     3.113695  8.083672  0.910995
  N     5.539871  5.159156  0.869969
  N     5.313753  8.763286  0.669273
  N     3.411479  4.461143 -0.310641
  N     3.238406  7.747607 -0.363926
  N     2.793723  4.914657  3.532579
  N     2.599625  8.351902  3.367646
  S     1.916292  4.606433  2.165936
  S     1.758312  7.944466  2.045000
  S     5.025662  4.877319 -0.688996
  S     4.777603  8.137718 -0.821822
  S     4.355533  5.476894  3.253163
  S     4.168042  8.865151  3.227765
