16  
    
  C    12.412505  9.130300  3.455829
  C    12.509536 12.589521  3.431892
  C    11.150144  8.746223  2.966267
  C    11.304741 12.152075  2.850511
  N    13.433066  9.012531  2.582276
  N    13.456271 12.855159  2.534675
  N    11.200209  8.344583  1.703922
  N    11.280129 11.932039  1.558416
  N    10.693421  9.232992  5.371383
  N    10.711539 12.495127  5.290151
  S     9.876265  8.658087  4.127634
  S     9.974348 12.003258  3.901598
  S    12.710538  8.477160  1.159460
  S    12.802528 12.311999  1.048924
  S    12.311071  9.501837  5.188754
  S    12.153916 13.153554  5.075424
