16  
    
  C     7.499247  6.103216  2.184502
  C     7.955319  9.895226  2.218936
  C     6.364998  5.449171  1.620993
  C     6.681450  9.484034  1.728281
  N     8.469569  6.338543  1.295409
  N     8.886876  9.971530  1.300399
  N     6.361218  5.405071  0.300092
  N     6.639010  9.292846  0.427947
  N     5.717253  5.782507  4.050454
  N     6.345287  9.397823  4.264022
  S     5.037960  5.157048  2.646039
  S     5.479425  9.165778  2.866600
  S     7.831256  6.014162 -0.191769
  S     8.151446  9.663295 -0.152971
  S     7.380581  6.157763  3.918112
  S     7.879890 10.113537  3.972028
