16  
    
  C     4.329009  5.017799  1.292240
  C     4.423762  8.295493  1.335855
  C     3.093279  4.652620  0.643206
  C     3.140974  8.009191  0.649943
  N     5.345352  4.922520  0.438146
  N     5.448158  8.431946  0.510081
  N     3.103865  4.533742 -0.667848
  N     3.252751  7.726993 -0.639404
  N     2.525677  4.824424  3.106454
  N     2.683298  8.171314  3.139972
  S     1.730303  4.592943  1.667511
  S     1.895509  7.737971  1.762683
  S     4.678770  4.801911 -1.137108
  S     4.829135  8.076887 -1.014759
  S     4.134637  5.137164  3.029070
  S     4.250871  8.591833  2.971978
