16  
    
  C     8.994646  7.237078  2.554447
  C     8.799087 11.139027  2.325613
  C     7.823568  6.565516  2.054249
  C     7.677037 10.476820  1.748452
  N     9.969465  7.298004  1.658101
  N     9.761807 11.452015  1.478422
  N     7.957729  6.199415  0.776191
  N     7.844937 10.166806  0.435204
  N     7.501854  7.008013  4.659805
  N     7.181319 10.663990  4.267207
  S     6.646643  6.299924  3.416709
  S     6.413878 10.112784  2.876688
  S     9.474977  6.656515  0.267875
  S     9.351884 10.905256  0.015031
  S     9.074677  7.437632  4.270854
  S     8.705093 11.234065  4.033671
