16  
    
  C     9.077410  6.950797  2.624758
  C     9.706044 10.800196  2.752202
  C     7.945445  6.410477  1.923452
  C     8.547207 10.164700  2.209223
  N    10.142776  7.175775  1.861584
  N    10.613759 11.169487  1.861479
  N     8.134002  6.277593  0.591494
  N     8.560720 10.028531  0.857885
  N     7.403717  6.519043  4.432807
  N     8.163023 10.160745  4.709434
  S     6.667814  6.005498  3.032159
  S     7.319182  9.675643  3.353740
  S     9.710434  6.784581  0.330971
  S    10.017838 10.736936  0.386270
  S     9.028970  6.785083  4.338606
  S     9.591391 10.965439  4.489742
