16  
    
  C     9.105946  7.092404  2.366615
  C     9.146735 10.907536  2.586578
  C     7.902835  6.703048  1.691459
  C     7.924914 10.458873  1.982385
  N    10.151029  7.239000  1.551570
  N    10.142900 11.121309  1.718311
  N     8.020202  6.618470  0.379603
  N     8.000757 10.266726  0.688335
  N     7.202738  6.828476  4.090129
  N     7.433086 10.613097  4.471255
  S     6.474655  6.502370  2.606476
  S     6.571986 10.393886  3.064607
  S     9.538046  6.965525  0.033611
  S     9.512425 10.804153  0.242921
  S     8.850380  7.051058  4.136177
  S     8.974779 11.227904  4.332198
