16  
    
  C     7.924317  6.359118  2.213527
  C     8.060205 10.215133  2.188664
  C     6.716766  5.848910  1.560261
  C     6.809917  9.792569  1.532879
  N     8.952492  6.517748  1.374575
  N     9.146202 10.314435  1.430125
  N     6.811510  5.884087  0.212580
  N     6.979950  9.669620  0.233192
  N     6.220383  5.942740  4.124986
  N     6.293863 10.056604  4.061359
  S     5.463522  5.467296  2.705363
  S     5.519492  9.623787  2.692453
  S     8.338979  6.293450 -0.160905
  S     8.507818 10.086828 -0.143758
  S     7.829898  6.239723  3.952770
  S     7.877884 10.544452  3.873368
