16  
    
  C     6.770965  6.152792  2.400588
  C     7.277776  9.617298  2.184483
  C     5.675889  5.460981  1.806965
  C     5.992144  9.396568  1.566401
  N     7.591464  6.672789  1.498402
  N     8.252899  9.740117  1.306173
  N     5.731881  5.326600  0.491183
  N     5.995965  9.332068  0.242747
  N     5.343912  5.196612  4.355846
  N     5.511244  9.511652  4.035312
  S     4.559913  4.744753  2.907066
  S     4.632282  9.455106  2.606818
  S     7.084691  6.132561  0.005319
  S     7.565824  9.482131 -0.253535
  S     6.582337  6.221198  4.103971
  S     7.104776  9.816630  3.947452
