16  
    
  C     7.799871  6.405405  2.148470
  C     8.044264 10.520987  2.162274
  C     6.645170  5.875839  1.522225
  C     6.912985  9.915136  1.564832
  N     8.835312  6.625013  1.352053
  N     9.052287 10.772441  1.354544
  N     6.700759  5.847532  0.194870
  N     7.031123  9.757062  0.266671
  N     6.140691  5.856522  3.982606
  N     6.421035 10.209185  4.088807
  S     5.304988  5.528345  2.603837
  S     5.602145  9.657587  2.728121
  S     8.351224  6.277142 -0.167180
  S     8.644234 10.234331 -0.137639
  S     7.779436  6.382335  3.859595
  S     7.886391 10.918335  3.856552
