16  
    
  C     9.086597  6.872856  2.554616
  C     9.692259 10.752176  2.747134
  C     7.905310  6.425222  1.858867
  C     8.496209 10.205921  2.179344
  N    10.191510  7.143324  1.848042
  N    10.643117 11.127542  1.866006
  N     8.180443  6.275746  0.557768
  N     8.587007 10.035909  0.889369
  N     7.384867  6.543593  4.432969
  N     8.109167 10.203762  4.756656
  S     6.659041  5.981429  3.035805
  S     7.316275  9.714320  3.396981
  S     9.716590  6.770642  0.311537
  S     9.990278 10.692809  0.378192
  S     9.017435  6.766789  4.299954
  S     9.588328 10.954438  4.494087
