16  
    
  C     7.560783  6.005373  2.184585
  C     7.939486  9.867338  2.276487
  C     6.347075  5.535488  1.530763
  C     6.688247  9.362762  1.685046
  N     8.465920  6.473386  1.318186
  N     8.871130 10.111129  1.387006
  N     6.457090  5.378891  0.199754
  N     6.659692  9.315436  0.343982
  N     5.879456  5.777448  4.092835
  N     6.351023  9.612625  4.266894
  S     5.059461  5.211492  2.736429
  S     5.473627  9.078266  2.961762
  S     7.910746  6.022985 -0.221688
  S     8.219701  9.772747 -0.137483
  S     7.418164  6.209314  3.941570
  S     7.847638 10.153812  4.007795
