16  
    
  C    11.796227  8.559919  3.374164
  C    11.591135 12.002148  3.432858
  C    10.586150  8.333670  2.619313
  C    10.357090 11.675583  2.757619
  N    12.897191  8.621728  2.638838
  N    12.677701 12.192909  2.657667
  N    10.767108  8.226309  1.313484
  N    10.617353 11.406615  1.468012
  N    10.013474  8.353142  5.171897
  N     9.785610 11.556723  5.369344
  S     9.202573  8.212502  3.720130
  S     9.025757 11.316831  3.865400
  S    12.381399  8.338643  1.112091
  S    12.132642 11.863585  1.091931
  S    11.662250  8.672840  5.131265
  S    11.450007 11.957443  5.131681
