16  
    
  C    12.877213  9.000869  3.480220
  C    12.746397 12.795097  3.439546
  C    11.566259  8.529576  2.965039
  C    11.581539 12.230643  2.772072
  N    13.696846  9.319315  2.473020
  N    13.804656 12.975231  2.650496
  N    11.519592  8.345364  1.662582
  N    11.771925 12.071317  1.472731
  N    11.090759  9.064797  5.408888
  N    11.017353 12.361479  5.251805
  S    10.255080  8.376567  4.173944
  S    10.233560 11.957492  3.834525
  S    12.942473  8.857230  1.068272
  S    13.295515 12.556597  1.044657
  S    12.734341  9.331167  5.202726
  S    12.555920 12.937626  5.196839
