16  
    
  C     6.729457  6.022457  2.349235
  C     7.041808  9.722322  2.321977
  C     5.605686  5.254853  1.860760
  C     5.807449  9.359299  1.689860
  N     7.570300  6.486953  1.416290
  N     8.008267 10.023632  1.467488
  N     5.522468  5.212925  0.529457
  N     5.845024  9.321218  0.349610
  N     5.230155  5.446697  4.416248
  N     5.257688  9.636661  4.253890
  S     4.429296  4.767752  3.131053
  S     4.399765  9.266962  2.766932
  S     6.870927  5.999175 -0.026131
  S     7.370078  9.653839 -0.079152
  S     6.755155  6.095482  4.105592
  S     6.903757  9.879509  4.063252
