16  
    
  C    11.001884  8.344120  2.917459
  C    10.824458 11.871765  3.070253
  C     9.871435  7.729503  2.337717
  C     9.635024 11.386620  2.392887
  N    12.001555  8.485612  2.041670
  N    11.778821 12.218730  2.191899
  N    10.007057  7.370909  1.044650
  N     9.800857 11.168646  1.072639
  N     9.472742  7.890448  4.893534
  N     9.053307 11.532079  4.859779
  S     8.636046  7.370581  3.539714
  S     8.377190 10.975988  3.496493
  S    11.494553  7.943617  0.607498
  S    11.302993 11.598549  0.700825
  S    10.974074  8.536888  4.668186
  S    10.633624 12.001962  4.800008
