16  
    
  C     9.085200  7.188119  2.266298
  C     9.063518 10.642953  2.363726
  C     7.864986  6.611530  1.679580
  C     7.823005 10.153268  1.774958
  N    10.075225  7.192825  1.370648
  N    10.030112 10.740089  1.459443
  N     7.923400  6.319528  0.387610
  N     7.932504  9.852399  0.466167
  N     7.324339  6.736165  4.181459
  N     7.195645 10.587030  4.248931
  S     6.584314  6.340665  2.743762
  S     6.455099 10.085455  2.819341
  S     9.477107  6.660703 -0.098284
  S     9.441539 10.342377  0.019547
  S     8.894360  7.209149  4.068765
  S     8.822889 10.879735  4.101384
