16  
    
  C     7.206422  6.044447  2.151028
  C     7.441509  9.707191  2.426127
  C     6.098415  5.473350  1.404427
  C     6.208652  9.446264  1.730943
  N     8.367903  6.217542  1.510637
  N     8.568739  9.684055  1.701089
  N     6.384122  5.333237  0.105561
  N     6.383529  9.264151  0.430073
  N     5.231482  5.637574  3.844807
  N     5.600684  9.512685  4.263817
  S     4.673149  5.218280  2.351447
  S     4.811054  9.437148  2.817307
  S     7.963869  5.830807 -0.052453
  S     8.037465  9.455791  0.140462
  S     6.886266  6.163579  3.844920
  S     7.273374  9.884441  4.150222
