16  
    
  C    12.853836  9.004709  3.474095
  C    12.744112 12.777043  3.428824
  C    11.556480  8.485521  2.995605
  C    11.538774 12.285712  2.771536
  N    13.674768  9.348926  2.478187
  N    13.803972 12.968639  2.649060
  N    11.505402  8.336276  1.664672
  N    11.779870 12.054000  1.474580
  N    11.089392  9.080543  5.467278
  N    11.034477 12.356107  5.266915
  S    10.272439  8.373030  4.193939
  S    10.256054 11.949791  3.857203
  S    12.960388  8.866478  1.078830
  S    13.288006 12.541231  1.047814
  S    12.735912  9.306952  5.205936
  S    12.571402 12.904288  5.181822
