16  
    
  C    12.691438  8.899597  3.898733
  C    12.620911 12.757403  3.925517
  C    11.581837  8.339068  3.237198
  C    11.484818 12.348589  3.173858
  N    13.646771  9.229727  3.029351
  N    13.706083 13.003418  3.154378
  N    11.590195  8.289235  1.907291
  N    11.709849 11.992636  1.904645
  N    10.978009  8.603146  5.788774
  N    10.729942 12.366294  5.673893
  S    10.312118  8.106559  4.350718
  S    10.142220 11.851769  4.180882
  S    13.088219  8.872362  1.480244
  S    13.290484 12.516680  1.631618
  S    12.616369  9.074282  5.598706
  S    12.301390 12.703929  5.639842
