16  
    
  C    10.995122  7.679072  3.162150
  C    11.247009 11.791411  2.862721
  C     9.731196  7.538061  2.396932
  C    10.127801 11.102085  2.307976
  N    12.030000  7.757464  2.336666
  N    12.234535 11.948869  2.007189
  N     9.891819  7.543774  1.088259
  N    10.177469 10.870474  1.004156
  N     9.123113  7.621851  4.878899
  N     9.512031 11.806346  4.725998
  S     8.394316  7.262285  3.483934
  S     8.877523 10.901872  3.474582
  S    11.524922  7.662989  0.821370
  S    11.628324 11.370386  0.517381
  S    10.754055  7.642230  4.901381
  S    11.168691 12.151411  4.562244
