16  
    
  C    10.938118  8.179119  2.954238
  C    10.854712 11.848008  3.075179
  C     9.721157  7.759559  2.261686
  C     9.687816 11.270383  2.377675
  N    11.979152  8.275344  2.156524
  N    11.876326 12.084659  2.278563
  N     9.822304  7.554558  0.973515
  N     9.779320 11.189436  1.058404
  N     9.145335  7.895130  4.844124
  N     9.016291 11.676162  4.837818
  S     8.398783  7.611472  3.341698
  S     8.297696 11.158299  3.416774
  S    11.393058  8.036139  0.577624
  S    11.417659 11.667970  0.759707
  S    10.782297  8.458668  4.649497
  S    10.548125 12.238879  4.713443
