16  
    
  C     9.800728  7.604015  2.748453
  C     9.795516 11.169570  2.937646
  C     8.622548  7.142298  2.049168
  C     8.648604 10.698932  2.247623
  N    10.799489  7.786959  1.905771
  N    10.827316 11.436853  2.169294
  N     8.740279  6.903060  0.749563
  N     8.845390 10.463169  0.949568
  N     7.951248  7.158538  4.560285
  N     8.006005 10.683009  4.740605
  S     7.248819  6.893066  3.096084
  S     7.314201 10.214481  3.278310
  S    10.251057  7.420006  0.368585
  S    10.346027 10.970423  0.600916
  S     9.594161  7.650018  4.519743
  S     9.561537 11.315880  4.629456
