16  
    
  C     9.619347  7.248021  3.012497
  C     9.604613 10.867246  2.703621
  C     8.487866  6.720707  2.279032
  C     8.342448 10.469133  2.073361
  N    10.609067  7.715073  2.223343
  N    10.580694 11.163014  1.811586
  N     8.652971  6.707176  0.968443
  N     8.408560 10.353229  0.743783
  N     7.702567  6.577809  4.680922
  N     7.895073 10.577965  4.645397
  S     7.166943  6.135699  3.111312
  S     7.093362 10.215982  3.205705
  S    10.159345  7.293265  0.665660
  S     9.995665 10.818083  0.337775
  S     9.223229  7.237002  4.721401
  S     9.516861 10.977205  4.442329
