16  
    
  C     9.034467  6.997612  2.399738
  C     9.167379 10.830657  2.524394
  C     7.814831  6.750831  1.635000
  C     7.922024 10.407050  1.857454
  N    10.056970  7.340820  1.632527
  N    10.147727 11.074543  1.649058
  N     7.941054  6.720127  0.305599
  N     8.001516 10.288090  0.539396
  N     7.146435  6.698670  4.120198
  N     7.443781 10.549698  4.399328
  S     6.475108  6.503000  2.629194
  S     6.595797 10.460567  2.979048
  S     9.559624  7.156528  0.025331
  S     9.535357 10.741181  0.087494
  S     8.767303  7.101637  4.117370
  S     9.023493 11.116886  4.214421
