16  
    
  C     6.698655  5.675752  2.021807
  C     6.647220  9.533806  2.091779
  C     5.398788  5.506441  1.382420
  C     5.380512  9.074718  1.553008
  N     7.646087  5.842807  1.119291
  N     7.613958  9.649228  1.174267
  N     5.460608  5.377594  0.065553
  N     5.382110  8.964519  0.221139
  N     4.951208  5.789366  3.908807
  N     5.094991  9.327027  4.209206
  S     4.137626  5.390266  2.556699
  S     4.182983  9.072912  2.793179
  S     7.040176  5.597734 -0.400734
  S     6.949441  9.386723 -0.277100
  S     6.639964  5.950230  3.717973
  S     6.635354  9.818729  3.762815
