16  
    
  C     9.278218  6.868863  2.377375
  C     9.134743 10.971986  2.978519
  C     8.025689  6.403601  1.804714
  C     7.883509 10.454364  2.391542
  N    10.269252  6.799102  1.493794
  N    10.094811 11.148952  2.065148
  N     8.078349  6.049562  0.534160
  N     7.954131 10.170692  1.114462
  N     7.355566  6.944607  4.200932
  N     7.386637 10.826488  4.837845
  S     6.675044  6.311870  2.839697
  S     6.570707 10.403696  3.464189
  S     9.630378  6.269907  0.069223
  S     9.527365 10.632785  0.635718
  S     9.003057  7.289578  4.070052
  S     8.920037 11.356544  4.655855
