16  
    
  C     6.273382  5.718600  2.009095
  C     6.039034  9.120842  1.652629
  C     5.004497  5.453531  1.423724
  C     4.819859  8.722461  1.027112
  N     7.286697  5.743107  1.146843
  N     7.022307  9.289766  0.788426
  N     5.003716  5.173953  0.117015
  N     4.874075  8.582767 -0.303530
  N     4.541525  5.721331  3.968610
  N     4.340664  9.097699  3.609172
  S     3.778509  5.470948  2.596678
  S     3.518879  8.545348  2.190864
  S     6.601853  5.326238 -0.304729
  S     6.478856  8.919477 -0.713563
  S     6.173397  6.053715  3.752430
  S     5.943120  9.416192  3.359567
