16  
    
  C     7.649959  6.236126  2.212351
  C     7.779955 10.120166  2.436392
  C     6.384333  5.915055  1.659985
  C     6.657362  9.507889  1.809139
  N     8.642756  6.440223  1.332832
  N     8.774057 10.492019  1.632077
  N     6.415964  5.779319  0.342442
  N     6.786943  9.308869  0.492248
  N     5.946073  6.193924  4.183008
  N     6.087860  9.499434  4.319827
  S     5.164929  5.589629  2.870373
  S     5.306323  9.213253  2.898967
  S     7.906161  6.129899 -0.160112
  S     8.302652  9.908782  0.109618
  S     7.545933  6.414633  3.960445
  S     7.591671 10.222179  4.175160
