16  
    
  C    12.329814  8.923967  3.661749
  C    12.449323 12.671500  3.413808
  C    11.098708  8.376058  3.061606
  C    11.178128 12.218038  2.804076
  N    13.334669  8.979655  2.821899
  N    13.453830 12.939830  2.605543
  N    11.248273  8.127905  1.737633
  N    11.416856 11.922869  1.524698
  N    10.688244  9.025102  5.494889
  N    10.762139 12.700041  5.361728
  S     9.782243  8.617846  4.242614
  S     9.923100 12.068019  3.999357
  S    12.817908  8.495203  1.336748
  S    12.921288 12.516940  1.061058
  S    12.289084  9.429075  5.306445
  S    12.411606 12.932232  5.121593
