16  
    
  C     3.498630  4.762853  1.480737
  C     3.561206  8.286777  1.297051
  C     2.375392  4.091835  0.886728
  C     2.275417  8.137180  0.687191
  N     4.577766  4.829714  0.691355
  N     4.543398  8.428578  0.407635
  N     2.451017  3.753814 -0.397774
  N     2.267611  8.104896 -0.629904
  N     1.689785  4.187813  3.293148
  N     1.866800  8.105745  3.239057
  S     1.003782  3.731932  1.835547
  S     1.069032  7.793073  1.835139
  S     3.956923  4.334011 -0.840813
  S     3.864880  8.302987 -1.096057
  S     3.143053  4.941652  3.241738
  S     3.451679  8.625901  3.042175
