16  
    
  C    10.306865  7.701235  2.630198
  C    10.559448 11.408227  2.937580
  C     9.062432  7.158207  2.035042
  C     9.362036 11.249975  2.128024
  N    11.294807  7.802839  1.771849
  N    11.660703 11.338401  2.205294
  N     9.110634  6.878381  0.748447
  N     9.602650 11.147861  0.818989
  N     8.439090  7.701847  4.439602
  N     8.542697 11.424993  4.548077
  S     7.693038  7.057044  3.139226
  S     7.912172 11.414262  3.044790
  S    10.636333  7.316658  0.304369
  S    11.200955 11.204472  0.602708
  S    10.066310  8.069101  4.295059
  S    10.184385 11.605169  4.589004
