16  
    
  C     8.505193  6.583136  2.415573
  C     8.430114 10.309415  2.373851
  C     7.233112  6.215261  1.776753
  C     7.152059  9.924341  1.761499
  N     9.474705  6.879536  1.549142
  N     9.449565 10.357647  1.533553
  N     7.284642  6.065139  0.449429
  N     7.203603  9.691471  0.445339
  N     6.814799  6.186157  4.335313
  N     6.637671 10.147048  4.308020
  S     5.991969  5.927049  2.926036
  S     5.916167  9.569480  2.917197
  S     8.814717  6.542884 -0.022310
  S     8.819059  9.828970  0.011936
  S     8.345838  6.772929  4.142091
  S     8.265817 10.548339  4.131423
