16  
    
  C    10.027949  7.767837  2.654979
  C    10.555215 11.522418  3.070360
  C     8.984339  6.976967  2.021165
  C     9.434072 11.151201  2.292438
  N    11.030403  8.109578  1.847855
  N    11.701140 11.569170  2.372147
  N     9.209498  6.688887  0.722487
  N     9.719725 10.984765  0.983032
  N     8.176125  7.606088  4.411399
  N     8.568337 11.375576  4.641167
  S     7.580555  6.786504  3.096622
  S     7.913770 11.303567  3.149089
  S    10.709591  7.370666  0.391048
  S    11.297803 11.272213  0.766312
  S     9.806452  8.161700  4.351468
  S    10.236125 11.578270  4.764223
