16  
    
  C     3.766056  4.746308  1.592434
  C     3.780518  8.365984  1.718597
  C     2.457792  4.503067  0.951370
  C     2.595227  7.898146  1.058056
  N     4.827421  4.625939  0.776874
  N     4.821522  8.525497  0.903425
  N     2.543324  4.458977 -0.375865
  N     2.815593  7.452078 -0.181798
  N     2.056524  4.801039  3.436144
  N     1.962179  8.392291  3.477691
  S     1.118846  4.479426  2.087215
  S     1.210528  7.913673  2.053768
  S     4.165504  4.367408 -0.701053
  S     4.374194  7.855052 -0.521182
  S     3.695643  4.904408  3.293401
  S     3.557227  8.823317  3.379541
