16  
    
  C     9.738158  7.676834  2.897215
  C     9.939882 11.166954  2.804627
  C     8.632258  7.118464  2.105078
  C     8.635573 10.872957  2.146729
  N    10.789061  7.847844  2.130678
  N    10.927314 11.299666  1.910293
  N     8.862043  6.949093  0.810053
  N     8.710871 10.689137  0.831115
  N     7.823548  7.603782  4.488611
  N     8.143668 11.003865  4.712523
  S     7.258628  6.824263  3.144063
  S     7.292467 10.900194  3.272149
  S    10.411867  7.501240  0.561242
  S    10.298488 10.987155  0.461891
  S     9.487431  7.862405  4.574853
  S     9.783809 11.216111  4.511511
