16  
    
  C    11.343939  8.762991  3.291985
  C    11.405423 12.264485  3.296708
  C    10.228561  8.013139  2.717123
  C    10.274809 11.786180  2.526491
  N    12.319272  8.958597  2.419028
  N    12.500632 12.477495  2.609820
  N    10.385463  7.639826  1.455773
  N    10.506977 11.612139  1.234806
  N     9.692749  8.410550  5.249118
  N     9.654145 11.777915  5.048190
  S     9.010218  7.735342  3.888290
  S     8.925295 11.436403  3.587416
  S    11.934100  8.210465  1.008675
  S    12.087977 12.182497  1.003873
  S    11.203547  9.162233  4.921202
  S    11.090953 12.622708  4.991051
