16  
    
  C     3.482568  4.654571  1.531056
  C     3.684522  8.355010  1.410347
  C     2.409569  3.902049  0.976351
  C     2.432384  8.098062  0.804738
  N     4.468826  4.901929  0.668524
  N     4.719797  8.607993  0.626155
  N     2.526353  3.666990 -0.315271
  N     2.498931  8.110183 -0.520072
  N     2.012857  3.856903  3.488434
  N     1.915065  8.197357  3.337806
  S     1.203944  3.383295  2.102909
  S     1.116287  7.637078  1.924830
  S     3.999360  4.272450 -0.776109
  S     4.079681  8.450482 -0.916611
  S     3.483967  4.604794  3.292750
  S     3.520921  8.600506  3.137415
