16  
    
  C     4.528580  5.115002  1.823445
  C     4.604862  8.514863  1.435806
  C     3.357359  4.630755  1.146786
  C     3.399954  8.062678  0.757087
  N     5.557445  5.328217  1.010627
  N     5.681763  8.599002  0.679912
  N     3.498550  4.458417 -0.172037
  N     3.542424  7.856340 -0.545852
  N     2.745702  4.688270  3.689859
  N     2.767434  8.423380  3.275520
  S     1.973048  4.508920  2.242313
  S     2.029470  7.948093  1.836106
  S     4.994133  5.018452 -0.539096
  S     5.198370  8.136838 -0.877188
  S     4.326020  5.337642  3.585744
  S     4.383249  8.903527  3.117579
