16  
    
  C     5.387783  5.589862  1.747568
  C     5.188157  8.927104  1.775593
  C     4.181747  5.390653  0.953744
  C     3.987199  8.570629  1.075477
  N     6.518229  5.616646  1.013699
  N     6.258293  9.071609  0.997378
  N     4.411185  5.092228 -0.315621
  N     4.077326  8.681142 -0.249748
  N     3.435116  5.317260  3.340115
  N     3.373065  8.547852  3.582171
  S     2.783453  5.092955  1.901023
  S     2.635224  8.176738  2.117152
  S     6.035348  5.313922 -0.572527
  S     5.736954  8.964962 -0.592014
  S     4.987957  5.750077  3.408636
  S     5.016123  8.881930  3.532801
