16  
    
  C    11.839217  8.707594  3.550068
  C    11.621496 12.268171  3.307739
  C    10.611875  8.360273  2.885449
  C    10.437996 11.834867  2.570207
  N    12.855545  8.825346  2.712929
  N    12.727181 12.391386  2.520004
  N    10.679171  8.239393  1.586725
  N    10.682672 11.416778  1.332728
  N    10.000654  8.527085  5.332983
  N     9.580266 11.861477  5.040437
  S     9.249429  8.253536  3.915606
  S     8.977065 11.481157  3.448741
  S    12.268242  8.411739  1.186135
  S    12.279443 11.899863  0.989499
  S    11.621232  9.003561  5.231802
  S    11.195416 12.262890  4.966884
