16  
    
  C     4.736845  4.959017  2.022062
  C     4.720833  8.871823  1.673411
  C     3.540346  4.683773  1.284574
  C     3.491465  8.418282  1.024012
  N     5.874140  5.013917  1.336089
  N     5.683710  9.177679  0.808919
  N     3.748221  4.501996 -0.003883
  N     3.544171  8.520851 -0.305055
  N     2.835550  4.808896  3.796860
  N     3.099996  8.174607  3.551752
  S     2.161236  4.506011  2.294376
  S     2.259925  7.929905  2.122522
  S     5.367604  4.834746 -0.264718
  S     5.041305  8.985678 -0.729179
  S     4.490893  5.064519  3.738834
  S     4.643915  8.874807  3.407580
