16  
    
  C     3.982974  4.669887  1.678565
  C     3.947528  8.507270  1.540338
  C     2.723366  4.507215  0.986983
  C     2.823195  7.947941  0.890980
  N     5.067489  4.715260  0.892947
  N     5.059960  8.471536  0.811303
  N     2.887853  4.202281 -0.300875
  N     2.977266  7.724810 -0.431098
  N     2.284440  4.836127  3.587225
  N     2.045857  8.352694  3.360542
  S     1.463913  4.344220  2.255629
  S     1.406026  7.895535  1.900363
  S     4.587464  4.344090 -0.646813
  S     4.589204  8.047200 -0.725590
  S     3.989397  4.979701  3.358451
  S     3.692976  8.674720  3.276739
