16  
    
  C     6.777780  6.121990  2.395520
  C     7.258714  9.614327  2.156780
  C     5.672592  5.478685  1.788585
  C     6.001517  9.369954  1.543467
  N     7.607050  6.677298  1.505487
  N     8.275147  9.717947  1.312121
  N     5.751582  5.305738  0.467974
  N     6.021965  9.318912  0.227825
  N     5.309019  5.182962  4.339136
  N     5.515513  9.553693  4.046075
  S     4.571900  4.767333  2.892955
  S     4.652257  9.450782  2.590540
  S     7.097224  6.146575  0.016606
  S     7.556698  9.488310 -0.261261
  S     6.571794  6.224108  4.095638
  S     7.115377  9.810457  3.938332
