16  
    
  C     9.832143  7.590143  2.646389
  C     9.844246 11.270871  2.939765
  C     8.588547  7.208856  2.022072
  C     8.751855 10.612533  2.254551
  N    10.825232  7.847202  1.824068
  N    10.856678 11.536661  2.148678
  N     8.701396  7.104719  0.713731
  N     8.921532 10.451673  0.953534
  N     8.114738  7.355580  4.584523
  N     8.085617 10.639268  4.764957
  S     7.263512  7.077317  3.186619
  S     7.368059 10.327098  3.306584
  S    10.299437  7.460855  0.324189
  S    10.457623 11.044316  0.634527
  S     9.741468  7.686423  4.341621
  S     9.541893 11.421231  4.695801
