16  
    
  C    12.060446  8.524185  3.608100
  C    12.114048 12.058840  3.319086
  C    10.902002  8.200555  2.854129
  C    10.924646 11.515432  2.720398
  N    13.152935  8.794745  2.896134
  N    13.199080 12.184061  2.546387
  N    11.143120  8.121700  1.562327
  N    11.037692 11.379531  1.398363
  N    10.096499  8.339524  5.344598
  N    10.298175 11.963543  5.249142
  S     9.448375  8.000041  3.853820
  S     9.563160 11.357812  3.788400
  S    12.763167  8.395780  1.319858
  S    12.619770 11.940004  1.047351
  S    11.754518  8.722387  5.293430
  S    11.908096 12.464303  4.977097
