16  
    
  C    12.767383  9.083213  3.748605
  C    12.820249 12.547972  3.644537
  C    11.503982  8.597855  3.202949
  C    11.624425 12.055501  2.981726
  N    13.674578  9.352193  2.773875
  N    13.857886 12.629948  2.812986
  N    11.480722  8.462899  1.861677
  N    11.661204 12.072517  1.643053
  N    11.218171  8.451801  5.726153
  N    11.026715 12.275754  5.535442
  S    10.372651  8.201578  4.396542
  S    10.302353 11.896000  4.066172
  S    12.941201  8.868178  1.367858
  S    13.174308 12.602193  1.231570
  S    12.671153  9.245729  5.533116
  S    12.586785 12.710217  5.342831
