16  
    
  C     5.555679  5.500756  1.939479
  C     5.572307  8.951426  1.862836
  C     4.403868  4.739927  1.438735
  C     4.380216  8.443281  1.177142
  N     6.474243  5.806710  1.037081
  N     6.543243  9.277077  1.023473
  N     4.402441  4.593660  0.113662
  N     4.558720  8.226711 -0.118597
  N     4.123392  4.916049  3.975463
  N     3.719641  8.541451  3.633044
  S     3.175508  4.587452  2.687927
  S     3.000666  8.149617  2.131395
  S     5.886255  5.167959 -0.404358
  S     6.123754  8.775806 -0.505555
  S     5.568037  5.600500  3.622623
  S     5.319026  9.117440  3.558621
