16  
    
  C    12.903032  9.371007  3.456269
  C    12.807374 13.015908  3.573811
  C    11.708940  8.877074  2.815404
  C    11.577239 12.512620  3.017841
  N    13.940196  9.431355  2.616515
  N    13.787851 12.909815  2.708746
  N    11.844069  8.574738  1.528332
  N    11.606368 12.226242  1.722834
  N    11.060037  9.010935  5.273718
  N    11.066601 12.868853  5.484088
  S    10.354161  8.503821  3.917118
  S    10.192447 12.414161  4.098806
  S    13.441867  8.818691  1.140106
  S    13.168590 12.421681  1.225871
  S    12.503170  9.755657  5.186950
  S    12.743482 13.203260  5.340996
