16  
    
  C     3.565185  4.471918  1.602172
  C     3.816336  8.345743  1.651678
  C     2.438074  3.887569  0.962656
  C     2.595974  8.009808  1.013340
  N     4.507741  4.897362  0.800422
  N     4.847401  8.639580  0.856414
  N     2.506935  4.017217 -0.379816
  N     2.697080  7.839484 -0.292465
  N     1.931491  4.272192  3.467204
  N     2.132019  7.940742  3.524066
  S     1.185746  3.606292  2.154240
  S     1.244304  7.860288  2.149316
  S     3.970316  4.665671 -0.726936
  S     4.241759  8.288357 -0.681920
  S     3.493656  4.818057  3.262738
  S     3.733233  8.365801  3.386077
