16  
    
  C     8.272502  6.572007  2.303820
  C     8.082342 10.111117  2.471337
  C     7.022567  6.053227  1.689649
  C     6.916685  9.449401  1.865246
  N     9.278559  6.630337  1.445486
  N     9.015876 10.427739  1.591631
  N     7.098333  5.751339  0.419406
  N     7.044253  9.187904  0.562025
  N     6.444966  6.382171  4.190848
  N     6.263736  9.912448  4.285732
  S     5.705632  5.966722  2.722642
  S     5.575654  9.363416  2.871985
  S     8.678019  6.047203 -0.014263
  S     8.563185  9.822973  0.126967
  S     8.012527  6.863348  4.000957
  S     7.863638 10.301603  4.183791
