16  
    
  C     9.532154  7.649987  2.638194
  C    10.135787 11.268604  2.601105
  C     8.485248  6.869127  2.106865
  C     8.916541 10.921925  2.000557
  N    10.543296  7.829200  1.795236
  N    11.152226 11.377744  1.734812
  N     8.688578  6.440153  0.863398
  N     8.908045 10.751096  0.667851
  N     7.853711  7.328872  4.574608
  N     8.489033 11.004517  4.544535
  S     7.133889  6.581585  3.237996
  S     7.608406 10.724701  3.164479
  S    10.180130  7.002070  0.433267
  S    10.478113 11.049326  0.255780
  S     9.340375  7.970298  4.291136
  S    10.061372 11.609530  4.304865
