16  
    
  C     4.443104  5.019723  1.534201
  C     4.136957  8.657604  1.648697
  C     3.170011  4.698120  0.946201
  C     3.067999  8.297839  0.807939
  N     5.474490  5.082353  0.682293
  N     5.226125  9.088083  1.021972
  N     3.196618  4.695096 -0.382269
  N     3.334685  8.354478 -0.504882
  N     2.721531  5.110578  3.465914
  N     2.177686  7.867674  3.248509
  S     1.921803  4.579773  2.135538
  S     1.639404  7.727371  1.679951
  S     4.837288  4.814699 -0.858863
  S     4.894416  8.867499 -0.640832
  S     4.356364  5.172589  3.284214
  S     3.769560  8.476520  3.366415
