16  
    
  C     7.581988  6.654936  2.311542
  C     7.706440 10.066861  2.246409
  C     6.339607  6.080987  1.849283
  C     6.472473  9.741597  1.515193
  N     8.615917  6.646938  1.441675
  N     8.843992 10.208569  1.537241
  N     6.381770  5.802707  0.522628
  N     6.735662  9.587721  0.202497
  N     5.975106  6.632269  4.374131
  N     5.833497 10.020929  4.034765
  S     5.117865  6.183017  3.081687
  S     5.079670  9.820098  2.589482
  S     7.920951  6.046423  0.065083
  S     8.356494  9.771797 -0.020769
  S     7.623061  6.911222  4.006166
  S     7.514758 10.191821  3.940923
