16  
    
  C     7.204818  6.016720  2.179605
  C     7.504468  9.670686  2.446459
  C     6.150832  5.442490  1.414093
  C     6.251096  9.447707  1.729960
  N     8.351288  6.192742  1.515433
  N     8.556511  9.681174  1.654120
  N     6.443045  5.356125  0.117995
  N     6.400707  9.259738  0.414323
  N     5.279504  5.654714  3.904959
  N     5.660028  9.577451  4.306563
  S     4.679962  5.259743  2.385612
  S     4.857318  9.394121  2.806790
  S     7.983041  5.874875 -0.046847
  S     8.094035  9.498407  0.126025
  S     6.871369  6.106055  3.835205
  S     7.295003  9.840654  4.096148
