16  
    
  C     3.473042  4.501384  1.470589
  C     3.572246  8.413984  1.216032
  C     2.309127  4.041357  0.812758
  C     2.284537  8.002697  0.682996
  N     4.508608  4.803371  0.691568
  N     4.575998  8.465806  0.317626
  N     2.539292  3.835053 -0.486681
  N     2.231261  8.065118 -0.633363
  N     1.690256  4.288584  3.337226
  N     1.913735  8.136857  3.188926
  S     1.065665  3.556201  2.000459
  S     1.004860  7.804097  1.852746
  S     4.121184  4.283793 -0.790613
  S     3.775625  8.311397 -1.150316
  S     3.318227  4.799940  3.170510
  S     3.513050  8.563581  2.946355
