16  
    
  C    12.402951  9.092044  3.346248
  C    12.286546 12.743779  3.448710
  C    11.303703  8.512762  2.652611
  C    11.068151 12.243831  2.932638
  N    13.513704  9.409392  2.688752
  N    13.231883 13.021913  2.558811
  N    11.476614  8.532197  1.320579
  N    11.089583 12.021191  1.611304
  N    10.573574  8.440663  5.165950
  N    10.753340 12.715171  5.472947
  S     9.961851  8.077181  3.692707
  S     9.996667 11.802317  4.230392
  S    13.089877  9.192262  1.101511
  S    12.622006 12.477268  1.149639
  S    12.095414  9.168612  5.048320
  S    12.320779 13.041002  5.139363
