16  
    
  C     5.495431  5.298094  1.794670
  C     5.071958  9.083876  1.666736
  C     4.209611  5.154003  1.214815
  C     3.894310  8.547375  1.037104
  N     6.446333  5.480844  0.864610
  N     6.147446  9.238941  0.877384
  N     4.189754  5.005342 -0.103808
  N     4.037667  8.329924 -0.269419
  N     3.779307  5.330310  3.673957
  N     3.355865  8.744138  3.536461
  S     2.881151  5.206205  2.310737
  S     2.578542  8.296940  2.150973
  S     5.748621  5.210235 -0.601865
  S     5.580465  8.752023 -0.600993
  S     5.432474  5.401360  3.596523
  S     4.982149  8.989348  3.374422
