16  
    
  C     5.921536  5.096279  1.626917
  C     5.985455  8.943043  2.031056
  C     4.696750  4.602515  1.026935
  C     4.757341  8.696648  1.365145
  N     6.950742  5.239128  0.796621
  N     7.034332  9.132941  1.236436
  N     4.725401  4.622001 -0.286557
  N     4.850471  8.461211  0.066872
  N     4.250576  4.967625  3.468753
  N     4.236845  8.857309  3.914085
  S     3.359474  4.587038  2.136692
  S     3.437567  8.609188  2.469008
  S     6.318075  4.939985 -0.718779
  S     6.489239  8.765964 -0.319149
  S     5.887362  5.282613  3.363728
  S     5.851738  9.125292  3.771133
