16  
    
  C     5.372803  5.341714  1.765112
  C     5.157266  8.890999  1.744252
  C     4.146340  5.218690  1.011256
  C     3.926550  8.442486  1.121394
  N     6.453902  5.577712  1.040676
  N     6.167058  9.122075  0.914743
  N     4.355983  5.091989 -0.305210
  N     3.956485  8.499747 -0.204584
  N     3.481949  5.337196  3.463439
  N     3.406441  8.468227  3.587034
  S     2.697688  5.203445  2.028474
  S     2.600922  8.328950  2.177339
  S     6.008330  5.258380 -0.561626
  S     5.524759  8.995084 -0.607127
  S     5.106124  5.711595  3.465836
  S     4.990653  8.892029  3.449959
