16  
    
  C    12.370896  9.010015  3.775694
  C    12.626520 12.713784  3.590165
  C    11.172898  8.432214  3.138278
  C    11.337133 12.462145  2.906292
  N    13.352069  9.366433  2.945846
  N    13.623099 12.833569  2.717050
  N    11.281508  8.243966  1.822248
  N    11.411282 12.463629  1.572062
  N    10.596032  8.626497  5.620231
  N    10.879958 12.447036  5.430698
  S     9.917185  7.997449  4.240032
  S     9.980205 12.251860  4.059848
  S    12.828541  8.870922  1.441055
  S    13.011094 12.744338  1.185495
  S    12.114687  9.254836  5.494021
  S    12.473283 12.965540  5.298571
