16  
    
  C     9.594714  7.235050  3.002637
  C     9.576450 10.878642  2.655718
  C     8.480621  6.703192  2.273502
  C     8.356584 10.458306  2.070656
  N    10.604322  7.710272  2.228830
  N    10.583386 11.155140  1.810214
  N     8.643135  6.679311  0.963263
  N     8.398500 10.353989  0.738273
  N     7.683614  6.558968  4.693946
  N     7.902101 10.557124  4.637854
  S     7.164602  6.119081  3.125382
  S     7.085922 10.207238  3.207798
  S    10.143366  7.289095  0.661033
  S     9.992913 10.811415  0.319729
  S     9.229569  7.210298  4.741738
  S     9.510304 10.965598  4.438357
