16  
    
  C    11.019650  7.655048  3.135017
  C    11.171668 11.756811  2.794401
  C     9.698542  7.415021  2.487518
  C     9.937412 11.213995  2.206288
  N    12.056079  7.875330  2.338350
  N    12.141225 11.913451  1.919099
  N     9.767152  7.499433  1.191147
  N    10.050802 10.824998  0.949674
  N     9.184053  7.715069  5.027990
  N     9.486072 11.709173  4.695432
  S     8.382051  7.162349  3.563030
  S     8.710513 10.912480  3.434500
  S    11.368824  7.696713  0.771638
  S    11.618017 11.390513  0.471565
  S    10.876175  7.666344  4.859251
  S    11.091260 12.086891  4.506728
