16  
    
  C    10.977033  7.696534  3.138949
  C    11.437771 11.795164  2.959773
  C     9.802879  7.531405  2.405197
  C    10.265186 11.106117  2.407028
  N    12.122096  7.802887  2.425539
  N    12.396870 11.998799  2.053803
  N    10.060234  7.502214  1.084196
  N    10.378801 10.786970  1.105893
  N     9.002658  7.521633  4.769206
  N     9.767803 11.592934  4.873584
  S     8.299590  7.425913  3.295128
  S     8.969122 10.914016  3.613010
  S    11.687109  7.609591  0.877227
  S    11.786988 11.405472  0.588098
  S    10.653400  7.751723  4.857887
  S    11.238884 12.303944  4.614164
