16  
    
  C     6.831167  6.108838  2.337950
  C     7.273587  9.694196  2.106740
  C     5.820119  5.389238  1.591390
  C     5.980803  9.394261  1.485116
  N     7.887360  6.491874  1.618957
  N     8.278081  9.831712  1.238634
  N     6.000432  5.352034  0.275182
  N     6.065632  9.300541  0.145896
  N     4.908126  5.597776  4.017317
  N     5.461659  9.749706  4.005787
  S     4.464928  4.910435  2.551017
  S     4.676853  9.344139  2.583559
  S     7.487612  6.032966  0.053081
  S     7.711643  9.495183 -0.245922
  S     6.454818  6.102793  4.020492
  S     7.170062  9.782472  3.849417
