16  
    
  C    11.961315  8.643616  3.425351
  C    11.815646 12.057447  3.179341
  C    10.757821  8.051682  2.937262
  C    10.519510 11.668255  2.611445
  N    12.916230  8.915419  2.537538
  N    12.808492 12.105178  2.286374
  N    10.802242  7.822088  1.625265
  N    10.485591 11.674584  1.303045
  N    10.362457  8.449441  5.395048
  N    10.070856 11.877623  5.122884
  S     9.484139  7.898237  4.088671
  S     9.215905 11.540725  3.756846
  S    12.305641  8.252741  1.092895
  S    12.106332 12.016696  0.809835
  S    11.873199  8.952165  5.119264
  S    11.671057 12.346650  4.912111
