16  
    
  C     9.859617  7.383510  2.564571
  C    10.363403 11.334598  2.563031
  C     8.678094  6.711684  2.079255
  C     9.126168 10.858847  1.962221
  N    10.754703  7.656960  1.611404
  N    11.327864 11.528087  1.641420
  N     8.692589  6.454476  0.783191
  N     9.196610 10.645453  0.634278
  N     8.018231  7.324938  4.443548
  N     8.651578 11.075645  4.452863
  S     7.318824  6.552245  3.141100
  S     7.803723 10.868296  3.066244
  S    10.087938  7.060096  0.179577
  S    10.713840 11.119498  0.217444
  S     9.548973  7.929733  4.190323
  S    10.265654 11.534394  4.291734
