16  
    
  C     7.576377  6.595940  2.313392
  C     7.663090 10.050251  2.269127
  C     6.286755  6.152423  1.815686
  C     6.494131  9.707943  1.527421
  N     8.543521  6.668493  1.432756
  N     8.790899 10.171978  1.608111
  N     6.281760  5.771450  0.554055
  N     6.747314  9.558484  0.234648
  N     6.119383  6.545278  4.372378
  N     5.864512 10.044029  4.033664
  S     5.091933  6.154008  3.069808
  S     5.072936  9.737524  2.612785
  S     7.899661  6.039863  0.044739
  S     8.360695  9.809331  0.021760
  S     7.655663  6.859248  4.005454
  S     7.509973 10.205643  3.981333
