16  
    
  C    12.374907  8.869797  3.691588
  C    12.480010 12.751426  3.424124
  C    11.148959  8.430332  3.127267
  C    11.306922 12.256426  2.830107
  N    13.373420  8.990786  2.840322
  N    13.462760 13.052967  2.576585
  N    11.270818  8.029264  1.883096
  N    11.355940 12.039858  1.495583
  N    10.661795  8.952774  5.607282
  N    10.785585 12.701003  5.334676
  S     9.794644  8.526495  4.210644
  S     9.992139 12.133815  4.045162
  S    12.774806  8.518307  1.391840
  S    12.966384 12.517354  1.122297
  S    12.254431  9.376097  5.371349
  S    12.377621 12.816648  5.131888
