16  
    
  C    11.173905  8.188569  3.176286
  C    11.414380 11.650223  3.297762
  C     9.936212  7.689016  2.625456
  C    10.163403 11.518563  2.602670
  N    12.198720  8.279649  2.301036
  N    12.444626 11.643946  2.467762
  N     9.961687  7.381438  1.320757
  N    10.225161 11.239125  1.315105
  N     9.501708  8.136981  5.178406
  N     9.656466 11.683254  5.177373
  S     8.716768  7.602758  3.783870
  S     8.833008 11.587219  3.715371
  S    11.570676  7.657171  0.873121
  S    11.830945 11.477368  0.871230
  S    11.132788  8.451265  4.896341
  S    11.331161 11.914753  4.969046
