16  
    
  C    11.302506  8.532446  3.349962
  C    11.475477 12.237807  3.280550
  C    10.192246  7.922026  2.728344
  C    10.194009 11.727764  2.814649
  N    12.376286  8.612521  2.575835
  N    12.429719 12.371897  2.359920
  N    10.447624  7.495847  1.473484
  N    10.294760 11.301452  1.553397
  N     9.520787  8.386059  5.207099
  N     9.756095 12.322942  5.328403
  S     8.763733  7.803420  3.749134
  S     8.881826 11.776130  4.014554
  S    11.966800  7.939287  1.131510
  S    11.835883 11.634083  1.053003
  S    11.120879  8.883128  5.022579
  S    11.315723 12.784804  4.937044
