16  
    
  C     8.848475  7.115109  2.706882
  C     8.954082 10.985127  2.307720
  C     7.603818  6.526796  2.210514
  C     7.757410 10.541057  1.650481
  N     9.729075  7.394531  1.743282
  N     9.918922 11.395463  1.444812
  N     7.722116  6.189947  0.924228
  N     7.804259 10.598490  0.346309
  N     7.237160  6.924811  4.766768
  N     7.183689 10.560669  4.156062
  S     6.403906  6.239025  3.491096
  S     6.472617 10.033626  2.736762
  S     9.134036  6.804339  0.334531
  S     9.359765 11.202926 -0.047314
  S     8.696271  7.618352  4.359081
  S     8.714324 11.151290  4.041126
