16  
    
  C     4.790061  4.897765  2.135999
  C     4.719450  8.820815  1.621256
  C     3.608742  4.695695  1.323522
  C     3.542731  8.313956  0.964731
  N     5.843916  5.099926  1.326518
  N     5.713968  9.151321  0.822907
  N     3.754462  4.552517  0.015158
  N     3.526501  8.438451 -0.353749
  N     2.778446  4.773214  3.726407
  N     3.111870  8.225457  3.457892
  S     2.149157  4.554499  2.208550
  S     2.271606  7.885121  2.054684
  S     5.325970  4.827115 -0.227229
  S     5.104981  8.954635 -0.733357
  S     4.409066  5.127233  3.831710
  S     4.618469  8.858022  3.357419
