16  
    
  C     5.939805  5.728384  2.193131
  C     5.973160  9.212506  1.631276
  C     4.652722  5.579526  1.570197
  C     4.707404  8.940684  0.957317
  N     6.935166  5.442344  1.357164
  N     7.044316  9.156532  0.840550
  N     4.673990  5.404117  0.260673
  N     4.899024  8.683643 -0.321884
  N     4.140320  5.902618  4.022902
  N     4.162791  9.101704  3.403124
  S     3.352726  5.662504  2.662341
  S     3.343565  8.774891  1.989937
  S     6.257792  5.278795 -0.141037
  S     6.515016  8.750339 -0.659217
  S     5.797948  5.809878  3.874061
  S     5.711234  9.521198  3.326709
