16  
    
  C     9.673094  7.589300  2.806229
  C     9.880703 11.205014  2.738612
  C     8.562648  7.043507  2.117418
  C     8.664148 10.820760  2.162772
  N    10.796665  7.803755  2.117196
  N    10.944213 11.321288  1.941534
  N     8.848747  6.881383  0.820943
  N     8.727738 10.700749  0.825701
  N     7.843081  7.546777  4.527394
  N     8.172787 11.136144  4.613864
  S     7.217517  6.762890  3.194062
  S     7.325109 10.880308  3.253503
  S    10.406259  7.456554  0.581943
  S    10.294372 10.989749  0.405881
  S     9.433437  7.920582  4.518000
  S     9.844052 11.195016  4.492135
