16  
    
  C     5.613947  5.427676  1.965104
  C     5.561033  9.015745  1.875238
  C     4.420722  4.799672  1.409332
  C     4.416965  8.427104  1.201927
  N     6.513249  5.717498  1.028959
  N     6.621693  9.208778  1.095800
  N     4.513204  4.367314  0.161715
  N     4.553336  8.361971 -0.119951
  N     4.081686  4.922851  3.959150
  N     3.891811  8.433622  3.734374
  S     3.212725  4.372726  2.607250
  S     3.133399  8.123383  2.362495
  S     5.924124  5.074958 -0.427985
  S     6.109153  8.870898 -0.456414
  S     5.531624  5.717455  3.733017
  S     5.396016  9.115730  3.588105
