16  
    
  C     7.976285  6.674005  2.655880
  C     8.673806 10.289770  2.741566
  C     6.885616  6.097316  1.909677
  C     7.452978  9.839850  2.106974
  N     9.112604  6.831489  1.984948
  N     9.713942 10.526702  1.968205
  N     7.190968  5.995363  0.608056
  N     7.579937  9.712474  0.795846
  N     6.153563  6.325588  4.388115
  N     6.891356 10.203725  4.598515
  S     5.442293  5.801421  2.955155
  S     6.101028  9.936639  3.182261
  S     8.786135  6.357971  0.425250
  S     9.160856 10.081222  0.401830
  S     7.752698  6.774502  4.375185
  S     8.479416 10.730960  4.404341
