16  
    
  C     9.205831  6.835364  2.373197
  C     9.122383 10.904650  3.012930
  C     8.019927  6.268444  1.785155
  C     7.937600 10.314007  2.422525
  N    10.256055  6.824286  1.552870
  N    10.116765 11.062114  2.138669
  N     8.104458  5.907722  0.498153
  N     8.025641 10.114930  1.086119
  N     7.387643  7.053195  4.189409
  N     7.344313 10.888960  4.905024
  S     6.684013  6.307092  2.900189
  S     6.565127 10.493377  3.500343
  S     9.706453  6.147990  0.085120
  S     9.532771 10.523956  0.620244
  S     9.012198  7.263384  4.079399
  S     8.977282 11.299613  4.704610
