16  
    
  C    12.650792  8.778701  3.548731
  C    12.227849 13.015583  3.711603
  C    11.449581  8.432114  2.900097
  C    11.121734 12.310201  3.109419
  N    13.591545  9.099196  2.678909
  N    13.266819 13.154965  2.907156
  N    11.481743  8.325065  1.561089
  N    11.269878 11.976231  1.825126
  N    10.869658  8.703608  5.313722
  N    10.524954 12.545978  5.598329
  S    10.151241  8.243373  3.991487
  S     9.947917 11.728563  4.242392
  S    12.998644  8.756136  1.134880
  S    12.803109 12.601515  1.432589
  S    12.467082  9.105071  5.257010
  S    12.030412 13.105302  5.443877
