16  
    
  C     4.449872  5.253230  1.642545
  C     4.554004  8.423814  1.506815
  C     3.269611  4.691926  1.035292
  C     3.288787  8.017929  0.867343
  N     5.495584  5.364824  0.832610
  N     5.603267  8.486935  0.689871
  N     3.386215  4.528352 -0.287688
  N     3.409564  7.719401 -0.413142
  N     2.805789  4.858450  3.593691
  N     2.594863  8.765746  3.216220
  S     1.984795  4.451605  2.245604
  S     1.956033  7.832551  1.956719
  S     4.935770  4.922647 -0.651812
  S     5.021010  8.045307 -0.837982
  S     4.366395  5.344930  3.353781
  S     4.287535  8.897298  3.160687
