16  
    
  C     4.394246  4.924890  1.190462
  C     4.436852  8.335946  1.344242
  C     3.112957  4.770453  0.559594
  C     3.239226  7.789824  0.665941
  N     5.376378  5.054897  0.290657
  N     5.471923  8.502501  0.513897
  N     3.142572  4.686127 -0.784824
  N     3.378579  7.700047 -0.654092
  N     2.558436  4.676792  3.106198
  N     2.564688  8.184461  3.190525
  S     1.741851  4.641562  1.672427
  S     1.863472  7.737201  1.753151
  S     4.699855  4.732966 -1.205891
  S     4.928508  8.187859 -1.058744
  S     4.153580  5.239344  2.960470
  S     4.250559  8.494326  3.070446
