16  
    
  C     4.405128  4.890909  1.212352
  C     4.406201  8.363741  1.279471
  C     3.101329  4.794041  0.583524
  C     3.248214  7.820118  0.675009
  N     5.390466  5.028409  0.299232
  N     5.457512  8.435114  0.474270
  N     3.107852  4.627514 -0.721553
  N     3.343285  7.712987 -0.652514
  N     2.517338  4.715330  3.107341
  N     2.611231  8.172963  3.189457
  S     1.737694  4.618894  1.642793
  S     1.882321  7.741101  1.753961
  S     4.687165  4.752246 -1.201354
  S     4.900194  8.158481 -1.029460
  S     4.147016  5.225421  3.020749
  S     4.254005  8.524197  3.037507
