16  
    
  C     9.194431  6.901078  2.423819
  C     8.879716 10.875619  2.314854
  C     7.997589  6.400716  1.861531
  C     7.732581 10.319842  1.698943
  N    10.217564  7.063874  1.601984
  N     9.971168 10.966814  1.567769
  N     8.073179  6.263209  0.537430
  N     7.848885 10.102721  0.399205
  N     7.576741  6.905296  4.422776
  N     7.162560 10.676509  4.208146
  S     6.714624  6.384190  3.114424
  S     6.434483 10.059417  2.833394
  S     9.590935  6.786882  0.053985
  S     9.433560 10.555746 -0.010802
  S     9.128944  7.331518  4.125299
  S     8.738961 11.211649  3.982159
