16  
    
  C     4.744930  4.884483  1.914773
  C     4.708080  8.957663  1.702959
  C     3.510132  4.643378  1.217800
  C     3.427373  8.549367  1.106805
  N     5.846564  5.050116  1.177267
  N     5.667621  9.233605  0.821701
  N     3.725172  4.560445 -0.083894
  N     3.403716  8.541855 -0.223260
  N     3.030594  4.773874  3.774743
  N     3.145072  8.240747  3.662794
  S     2.133704  4.410976  2.423843
  S     2.257426  8.036308  2.277781
  S     5.358462  4.751214 -0.359547
  S     4.966432  9.018886 -0.704768
  S     4.658303  4.981064  3.645792
  S     4.634989  8.839340  3.438913
