16  
    
  C     6.584736  5.721808  2.084389
  C     6.450618  9.446198  1.897240
  C     5.350496  5.414743  1.432997
  C     5.324541  8.883927  1.191722
  N     7.585997  6.002312  1.262690
  N     7.541605  9.679677  1.171214
  N     5.430478  5.208568  0.112947
  N     5.487176  8.794900 -0.135161
  N     4.803534  5.730249  3.959386
  N     4.685308  9.110526  3.753544
  S     4.128573  5.203538  2.597505
  S     4.041438  8.459274  2.296461
  S     7.037416  5.609197 -0.240346
  S     7.059722  9.220877 -0.384719
  S     6.440813  6.071830  3.778474
  S     6.333846  9.495622  3.592602
