16  
    
  C     6.892860  5.839478  2.207060
  C     7.213774  9.878448  2.334781
  C     5.847751  5.467099  1.248612
  C     5.975102  9.455130  1.643083
  N     8.090790  5.925561  1.622865
  N     8.236399  9.980197  1.517514
  N     6.258565  5.114147  0.022147
  N     6.091599  9.344260  0.325637
  N     4.746785  5.635587  3.670715
  N     5.519277  9.509175  4.239445
  S     4.284402  5.287039  2.021402
  S     4.653887  9.355973  2.773332
  S     7.882446  5.472956  0.017688
  S     7.702802  9.748311 -0.006518
  S     6.321974  6.162868  3.838852
  S     7.043310 10.033149  4.031527
