16  
    
  C    10.731685  8.367680  2.970811
  C    10.754820 11.860768  3.063140
  C     9.547877  7.883889  2.323469
  C     9.628314 11.410126  2.313700
  N    11.733689  8.440114  2.102070
  N    11.853304 12.024264  2.350557
  N     9.649807  7.552384  1.040110
  N     9.871850 11.209180  1.027635
  N     8.976257  8.038829  4.802818
  N     8.854126 11.782518  4.790146
  S     8.207876  7.698559  3.414688
  S     8.206570 11.279724  3.318101
  S    11.187964  8.042619  0.626827
  S    11.448363 11.490111  0.825667
  S    10.587578  8.483309  4.724216
  S    10.495594 12.126775  4.754763
