16  
    
  C    11.576607  8.751368  3.212874
  C    11.348625 12.309632  3.296740
  C    10.402468  8.047405  2.651782
  C    10.245921 11.750543  2.572114
  N    12.493384  9.069707  2.323440
  N    12.391472 12.625797  2.522288
  N    10.495918  7.733308  1.373119
  N    10.385622 11.750454  1.253731
  N     9.959862  8.304870  5.208998
  N     9.495233 11.879904  4.955291
  S     9.135313  7.764333  3.808535
  S     8.931715 11.356278  3.544372
  S    11.906053  8.456447  0.877696
  S    11.934936 12.202769  0.904763
  S    11.457993  8.925602  4.931957
  S    11.077720 12.267689  5.074335
