16  
    
  C    12.792328  9.240674  3.437323
  C    12.665896 13.129464  3.578648
  C    11.572454  8.776514  2.774782
  C    11.578757 12.444283  2.898703
  N    13.761951  9.410116  2.578526
  N    13.746023 13.209028  2.793825
  N    11.687879  8.414158  1.514197
  N    11.715399 12.182446  1.597967
  N    10.986741  9.134277  5.197970
  N    10.827402 12.584597  5.356481
  S    10.261807  8.627762  3.815018
  S    10.218383 12.111678  3.902900
  S    13.210323  8.882878  1.047117
  S    13.306844 12.598248  1.360224
  S    12.558774  9.476748  5.137765
  S    12.337648 13.199274  5.259571
