16  
    
  C    12.796040  9.282335  3.486762
  C    12.828987 12.974543  3.493099
  C    11.666853  8.739237  2.796334
  C    11.581857 12.592661  2.898546
  N    13.873001  9.410280  2.714984
  N    13.868473 12.949484  2.628229
  N    11.884068  8.360427  1.545087
  N    11.618189 12.241143  1.601100
  N    11.044499  9.043292  5.289632
  N    11.133273 13.084874  5.428363
  S    10.374167  8.480374  3.863703
  S    10.325607 12.473595  4.142368
  S    13.452793  8.887211  1.195550
  S    13.248544 12.382382  1.269450
  S    12.648769  9.712208  5.078210
  S    12.697621 13.226632  5.191951
