16  
    
  C    11.865510  8.828907  3.406304
  C    11.600003 12.189819  3.249852
  C    10.602319  8.312419  2.916458
  C    10.460703 11.585650  2.569152
  N    12.809045  8.863315  2.447973
  N    12.532974 12.606497  2.410285
  N    10.584876  8.012887  1.624310
  N    10.599607 11.387397  1.269553
  N    10.256882  8.600813  5.403717
  N     9.698553 11.820879  5.005434
  S     9.332149  8.285165  4.045976
  S     9.120760 11.246236  3.571685
  S    12.091288  8.300492  1.028129
  S    12.141212 12.060076  0.903432
  S    11.819935  9.098773  5.089838
  S    11.189300 12.642263  4.965104
