16  
    
  C     9.821257  7.648224  2.849589
  C    10.595320 11.485727  3.107006
  C     8.769077  7.098826  2.075177
  C     9.387368 11.026502  2.493045
  N    10.973477  7.930938  2.229118
  N    11.639955 11.592886  2.274716
  N     9.120104  6.992670  0.777010
  N     9.441230 10.933616  1.150576
  N     7.827949  7.352237  4.443035
  N     8.831149 11.459771  4.958909
  S     7.360470  6.615267  3.010404
  S     8.065064 10.872143  3.594503
  S    10.600376  7.622805  0.654337
  S    11.082242 11.251999  0.778376
  S     9.392985  7.782514  4.517512
  S    10.391552 11.900137  4.796899
