16  
    
  C    12.048175  8.830298  3.441207
  C    11.813175 12.262509  3.310215
  C    10.849682  8.527127  2.714055
  C    10.503947 12.028195  2.728824
  N    13.125718  9.036565  2.733284
  N    12.786250 12.479809  2.434056
  N    11.017574  8.461185  1.387612
  N    10.568066 11.777790  1.393436
  N    10.192361  8.543125  5.221922
  N    10.341194 12.083780  5.303071
  S     9.449204  8.303280  3.782655
  S     9.320951 11.892060  4.014321
  S    12.694357  8.699181  1.190394
  S    12.122073 12.264828  0.934020
  S    11.837747  8.855951  5.150575
  S    11.913631 12.231752  5.010980
