16  
    
  C    12.011080  8.609904  3.544191
  C    11.930361 12.301380  3.212668
  C    10.853521  8.103957  2.924353
  C    10.647597 11.838389  2.683237
  N    13.037432  8.810101  2.722827
  N    12.926476 12.253146  2.339089
  N    10.973701  7.922166  1.592980
  N    10.644662 11.557909  1.399092
  N    10.252942  8.335722  5.388850
  N    10.255289 11.897075  5.171673
  S     9.499986  7.895132  4.012738
  S     9.313394 11.543796  3.830797
  S    12.543129  8.318227  1.216481
  S    12.256148 11.855056  0.883139
  S    11.798369  8.827219  5.259118
  S    11.864578 12.209798  4.943189
