16  
    
  C     7.819704  6.560414  2.419826
  C     7.945363 10.415811  2.018752
  C     6.642144  6.101083  1.653533
  C     6.662409  9.888054  1.552400
  N     8.925997  6.673572  1.675996
  N     8.863480 10.571362  1.087092
  N     6.901891  5.861357  0.378935
  N     6.711960  9.546362  0.260686
  N     5.862434  6.301482  4.116780
  N     6.346102 10.358623  4.082366
  S     5.175014  5.921107  2.612595
  S     5.448566  9.866306  2.759771
  S     8.569898  6.234413  0.103820
  S     8.219124  9.954157 -0.329545
  S     7.500849  6.762601  4.122566
  S     7.981722 10.632098  3.768358
