16  
    
  C     8.136744  6.350037  2.299805
  C     7.997466 10.168774  2.313891
  C     6.855203  5.986820  1.635673
  C     6.759029  9.677996  1.708390
  N     9.144024  6.570225  1.462284
  N     9.004694 10.291038  1.482560
  N     7.046144  5.716693  0.337028
  N     6.934613  9.398638  0.421492
  N     6.424884  6.266633  4.200962
  N     6.317424  9.883803  4.268430
  S     5.529443  5.842841  2.802146
  S     5.477217  9.441483  2.874829
  S     8.664421  6.183455 -0.065077
  S     8.533289  9.832624  0.016682
  S     7.982180  6.646717  3.990818
  S     7.919308 10.322757  4.012135
