16  
    
  C    12.708408  8.798508  3.553334
  C    12.234946 13.048577  3.776881
  C    11.433874  8.417282  2.948712
  C    11.172997 12.274756  3.131769
  N    13.670113  9.065500  2.664910
  N    13.287926 13.127337  2.937787
  N    11.443789  8.321476  1.632922
  N    11.284720 11.999023  1.829930
  N    10.860688  8.684463  5.402043
  N    10.511007 12.565162  5.591185
  S    10.175585  8.234690  3.999739
  S     9.969690 11.728211  4.218776
  S    12.998530  8.737743  1.152766
  S    12.809614 12.593839  1.482782
  S    12.460142  9.110494  5.266039
  S    12.033732 13.106820  5.485510
