16  
    
  C     4.543495  5.027181  1.627542
  C     4.327657  8.621428  1.488435
  C     3.295872  4.664121  1.032529
  C     3.124926  7.982029  0.929687
  N     5.541283  5.222410  0.785077
  N     5.348504  8.679796  0.633797
  N     3.341168  4.555651 -0.291767
  N     3.265135  7.686773 -0.357367
  N     2.828842  4.836656  3.528598
  N     2.627347  8.442682  3.404274
  S     1.967761  4.574865  2.118323
  S     1.778734  7.954371  1.998194
  S     4.939440  4.861680 -0.683803
  S     4.804255  8.097616 -0.758264
  S     4.331363  5.504918  3.262840
  S     4.207153  8.875634  3.177712
