16  
    
  C     7.797732  6.389291  2.159542
  C     8.058903 10.512246  2.172967
  C     6.623563  5.896376  1.514942
  C     6.905316  9.914470  1.581747
  N     8.838893  6.634636  1.363100
  N     9.048040 10.757296  1.338752
  N     6.713916  5.855253  0.187709
  N     7.012755  9.772040  0.258884
  N     6.141021  5.888713  3.980358
  N     6.428404 10.219326  4.094320
  S     5.301655  5.525870  2.610310
  S     5.601569  9.653428  2.740363
  S     8.361492  6.277624 -0.159202
  S     8.641724 10.238854 -0.136040
  S     7.774331  6.385346  3.855052
  S     7.887346 10.928309  3.839550
