16  
    
  C    10.989157  7.733031  3.153339
  C    11.451996 11.721096  2.890730
  C     9.778681  7.592100  2.372883
  C    10.241035 11.099674  2.436636
  N    12.136017  7.711202  2.466297
  N    12.349484 12.033496  1.937470
  N     9.967556  7.492653  1.056170
  N    10.226551 10.863940  1.132780
  N     9.042796  7.547996  4.927802
  N     9.600398 11.732836  4.838599
  S     8.349291  7.349652  3.348099
  S     8.911518 10.897252  3.551976
  S    11.614839  7.648329  0.827228
  S    11.737277 11.384259  0.547094
  S    10.686157  7.675992  4.859560
  S    11.183818 12.221784  4.568853
