16  
    
  C    12.340163  8.974466  3.786066
  C    12.618555 12.834092  3.540403
  C    11.142094  8.429738  3.181592
  C    11.328443 12.515015  2.892793
  N    13.326665  9.189476  2.892755
  N    13.621051 12.930905  2.660825
  N    11.261508  8.142301  1.891677
  N    11.412867 12.241413  1.604686
  N    10.640181  8.860426  5.666446
  N    10.836177 12.411533  5.347904
  S     9.848311  8.221749  4.317649
  S     9.991442 12.223894  3.948156
  S    12.829023  8.556007  1.444564
  S    12.984655 12.634895  1.164435
  S    12.200105  9.266322  5.544610
  S    12.471745 12.863309  5.308111
