16  
    
  C     5.845509  5.528279  2.144566
  C     5.906193  9.082388  1.838041
  C     4.558720  5.377804  1.498220
  C     4.660109  8.799870  1.132018
  N     6.900102  5.466417  1.353535
  N     6.979756  9.042302  1.076362
  N     4.689597  5.224569  0.181819
  N     4.842750  8.623019 -0.172008
  N     4.022262  5.780449  3.982861
  N     3.997619  9.237546  3.515157
  S     3.182576  5.590002  2.549756
  S     3.241775  8.809824  2.134535
  S     6.282241  5.304883 -0.181765
  S     6.511211  8.819018 -0.467121
  S     5.658275  5.856088  3.813206
  S     5.635304  9.357400  3.482203
