16  
    
  C     6.877142  5.653366  1.760963
  C     7.239599 10.021383  2.462765
  C     5.774718  5.084560  1.084519
  C     6.029401  9.470685  1.929714
  N     7.965413  5.754805  1.003335
  N     8.186521 10.144681  1.559979
  N     6.011634  4.732423 -0.167690
  N     6.013118  9.260572  0.622082
  N     4.731125  5.954698  3.267001
  N     5.562280  9.689837  4.431621
  S     4.284380  5.065428  1.966552
  S     4.687081  9.383293  3.069104
  S     7.580594  5.122910 -0.460588
  S     7.603720  9.669582  0.124522
  S     6.418472  6.228613  3.265020
  S     7.171033 10.266677  4.169370
