16  
    
  C    10.887248  8.073360  3.147775
  C    10.611839 11.971257  3.176472
  C     9.601750  7.639401  2.557152
  C     9.385410 11.319394  2.698433
  N    11.858480  8.151999  2.257428
  N    11.395227 12.386350  2.201133
  N     9.683262  7.404491  1.255789
  N     9.475985 11.043585  1.407778
  N     9.187812  7.669581  5.070039
  N     9.134486 11.740633  5.258442
  S     8.388845  7.164852  3.780169
  S     8.311232 10.936699  3.985609
  S    11.170857  7.815270  0.756512
  S    10.894826 11.689685  0.796791
  S    10.783158  8.042631  4.960489
  S    10.724078 12.097920  4.932953
