16  
    
  C    11.790792  8.772852  3.520967
  C    11.575953 12.185661  3.269065
  C    10.568145  8.379491  2.839123
  C    10.423124 11.775846  2.539648
  N    12.863362  8.788298  2.729976
  N    12.699685 12.335198  2.589516
  N    10.703869  8.207776  1.503496
  N    10.735808 11.464723  1.285541
  N    10.007416  8.535175  5.350467
  N     9.653449 11.850415  4.935021
  S     9.224089  8.225861  3.907107
  S     8.982599 11.544374  3.506005
  S    12.305053  8.417138  1.196808
  S    12.270298 11.891654  1.012165
  S    11.594664  8.981267  5.280552
  S    11.232202 12.189615  4.988017
