16  
    
  C     9.154392  7.133236  2.546094
  C     8.829488 11.103402  2.314732
  C     7.921335  6.618562  2.027323
  C     7.722786 10.422327  1.749297
  N    10.118240  7.319119  1.659485
  N     9.843280 11.396522  1.511211
  N     7.920369  6.234255  0.759527
  N     7.869922 10.136455  0.436245
  N     7.529265  7.030643  4.539876
  N     7.213634 10.507301  4.230921
  S     6.744167  6.298751  3.250686
  S     6.413758 10.157580  2.823837
  S     9.456819  6.631879  0.209480
  S     9.300167 10.731064 -0.002445
  S     9.124335  7.383023  4.298662
  S     8.704408 11.307138  4.073069
