16  
    
  C     9.357004  6.612304  2.382565
  C     9.357939 10.558896  2.786199
  C     8.130535  6.274127  1.710920
  C     8.131100 10.394806  2.129883
  N    10.431408  6.723331  1.590999
  N    10.444433 10.305036  2.032776
  N     8.313871  6.064559  0.410545
  N     8.206917 10.045818  0.849855
  N     7.364860  6.745651  4.109815
  N     7.506358 11.013017  4.605927
  S     6.680441  6.203715  2.681864
  S     6.747081 10.682372  3.159944
  S     9.925831  6.363463  0.048371
  S     9.902396  9.929898  0.539440
  S     8.997645  6.968035  4.124373
  S     9.186897 10.953814  4.522011
