16  
    
  C     5.965250  4.788261  1.854952
  C     5.785349  9.241908  1.987152
  C     4.774022  4.545710  1.044104
  C     4.629022  8.579067  1.373761
  N     7.046192  5.010147  1.073777
  N     6.801835  9.379364  1.162231
  N     5.012264  4.413001 -0.253714
  N     4.707795  8.469755  0.059817
  N     3.868216  4.917806  3.426835
  N     4.148748  8.976391  3.884402
  S     3.342140  4.225526  1.982575
  S     3.410427  8.344925  2.505113
  S     6.594420  4.783957 -0.523553
  S     6.308140  8.957449 -0.333122
  S     5.572986  5.094412  3.549493
  S     5.635114  9.589450  3.655552
