16  
    
  C     7.598544  6.571489  2.304073
  C     7.732705 10.029161  2.349380
  C     6.274191  6.155233  1.828737
  C     6.504615  9.707377  1.632111
  N     8.508140  6.608506  1.349087
  N     8.807534 10.096145  1.600420
  N     6.310382  5.777974  0.571912
  N     6.698211  9.510720  0.337432
  N     6.055245  6.379568  4.346813
  N     5.807749 10.027401  4.084184
  S     5.071576  6.097319  3.081892
  S     5.120304  9.585037  2.620929
  S     7.809474  6.054153 -0.032395
  S     8.346088  9.869033  0.059175
  S     7.739280  6.790260  4.041499
  S     7.481612 10.258691  4.073719
