16  
    
  C     6.279948  5.704872  2.009885
  C     6.023364  9.135415  1.657096
  C     5.025663  5.502973  1.415462
  C     4.828251  8.696030  1.055667
  N     7.302085  5.760546  1.150642
  N     7.030125  9.274196  0.784587
  N     5.070551  5.156010  0.127850
  N     4.883497  8.617981 -0.271705
  N     4.566818  5.686105  3.987766
  N     4.323743  9.027298  3.658592
  S     3.798411  5.432546  2.589818
  S     3.519085  8.558048  2.209497
  S     6.644987  5.339417 -0.300389
  S     6.507023  8.925367 -0.694626
  S     6.178215  6.078803  3.717246
  S     5.937517  9.418002  3.353501
