16  
    
  C     5.997089  5.054420  1.608373
  C     5.975828  9.170034  1.939344
  C     4.761377  4.778279  0.991176
  C     4.761947  8.721954  1.367681
  N     7.010046  5.242288  0.755951
  N     7.028943  9.194194  1.118202
  N     4.904404  4.472179 -0.295042
  N     4.880272  8.455132  0.074765
  N     4.200327  4.742645  3.573815
  N     4.194554  8.834126  3.863603
  S     3.439223  4.496999  2.059076
  S     3.371767  8.599670  2.447938
  S     6.424838  4.838437 -0.753526
  S     6.484736  8.749519 -0.351104
  S     5.801706  5.056155  3.359666
  S     5.864557  9.219727  3.674686
