16  
    
  C     5.557105  5.320909  1.870961
  C     5.340075  8.832164  1.743249
  C     4.209378  5.027989  1.350585
  C     4.122382  8.453363  1.054173
  N     6.506190  5.400202  0.929334
  N     6.390607  9.024373  0.949592
  N     4.128703  5.142254  0.027798
  N     4.275914  8.287800 -0.242018
  N     4.066531  5.142662  3.980098
  N     3.367229  8.733314  3.475089
  S     3.035264  4.945871  2.613676
  S     2.773627  8.133309  2.047667
  S     5.692600  5.276269 -0.545375
  S     5.888914  8.705118 -0.590134
  S     5.708204  5.468435  3.576419
  S     4.962373  9.281804  3.321790
