16  
    
  C    10.939058  8.160424  3.002511
  C    10.823027 11.644196  2.785151
  C     9.758362  7.450569  2.532428
  C     9.639585 11.147827  2.146242
  N    11.790672  8.354875  1.979984
  N    11.846399 11.849171  1.942369
  N     9.761891  7.156181  1.213283
  N     9.742429 11.103301  0.795438
  N     9.580286  7.718846  5.152996
  N     9.149209 11.519889  4.726461
  S     8.709120  7.036658  3.849759
  S     8.397682 10.888051  3.347391
  S    11.185550  7.730994  0.616878
  S    11.288295 11.483812  0.425991
  S    11.004639  8.437619  4.728606
  S    10.828825 11.675380  4.540270
