16  
    
  C     9.171471  6.943101  2.403930
  C     8.921278 10.821180  2.318587
  C     7.956241  6.366382  1.841892
  C     7.706478 10.282750  1.702628
  N    10.179581  7.060590  1.545329
  N     9.956423 10.914892  1.505822
  N     8.084270  6.294692  0.498686
  N     7.847438 10.103435  0.413564
  N     7.546600  6.871616  4.376547
  N     7.161319 10.727379  4.191991
  S     6.706459  6.393827  3.091282
  S     6.432801 10.031752  2.815272
  S     9.617176  6.781431  0.066314
  S     9.461542 10.534098  0.017619
  S     9.127074  7.309814  4.077299
  S     8.764890 11.176923  3.998679
