16  
    
  C    10.807550  8.432660  3.292249
  C    10.734249 11.905958  3.197216
  C     9.634576  7.769071  2.689800
  C     9.493516 11.522730  2.548523
  N    11.745582  8.673814  2.399995
  N    11.809259 12.021424  2.429036
  N     9.694542  7.517532  1.410689
  N     9.611426 11.250676  1.259793
  N     9.037397  8.198655  5.069593
  N     8.899242 11.655825  5.104362
  S     8.332236  7.493372  3.752652
  S     8.215750 11.048424  3.697606
  S    11.248307  7.950594  0.937603
  S    11.270285 11.616342  0.901764
  S    10.540723  8.725498  4.956912
  S    10.531605 12.061147  4.914878
