16  
    
  C    12.067568  8.586715  3.357225
  C    12.105851 12.148783  3.260611
  C    10.815770  8.246902  2.748121
  C    11.006630 11.448859  2.654292
  N    13.064758  8.638271  2.506345
  N    13.114879 12.478096  2.440080
  N    10.794866  8.080772  1.424225
  N    11.207762 11.315370  1.340247
  N    10.379978  8.430410  5.259763
  N    10.228659 12.019522  5.081523
  S     9.499937  8.062751  3.866485
  S     9.527151 11.523208  3.644785
  S    12.379065  8.386115  1.003880
  S    12.658960 11.916169  0.880686
  S    11.949535  8.746057  5.101610
  S    11.910703 12.375081  5.000287
