16  
    
  C    12.040181  8.574430  3.334441
  C    11.951051 12.148449  3.218342
  C    10.775663  8.304937  2.730447
  C    10.657728 11.941464  2.667362
  N    13.036082  8.722961  2.431212
  N    12.874494 12.183695  2.271082
  N    10.757974  8.393386  1.403715
  N    10.524433 11.791075  1.370816
  N    10.302708  8.419595  5.219304
  N    10.315300 12.031291  5.190957
  S     9.457926  8.241726  3.848891
  S     9.394766 11.710305  3.825810
  S    12.306016  8.602358  0.912619
  S    12.082010 12.040400  0.821447
  S    11.904095  8.711641  5.088508
  S    11.925731 12.249999  4.974893
