16  
    
  C     5.487601  5.468406  1.653356
  C     5.280422  8.925721  1.591515
  C     4.226313  5.089466  1.076898
  C     4.158319  8.373318  0.917293
  N     6.396978  5.761820  0.740493
  N     6.349541  9.112038  0.819995
  N     4.163554  5.045238 -0.225159
  N     4.340866  8.141817 -0.360492
  N     3.710347  5.300737  3.560594
  N     3.395403  8.756100  3.362665
  S     2.874287  5.009774  2.192647
  S     2.727420  8.337563  1.896828
  S     5.705142  5.397171 -0.780027
  S     5.926376  8.620814 -0.711590
  S     5.362523  5.683516  3.425560
  S     4.931886  9.272001  3.252600
