16  
    
  C     8.183637  6.556838  2.570337
  C     8.585640 10.200206  2.368117
  C     6.908185  6.239064  1.843837
  C     7.271388  9.776046  1.858805
  N     9.222309  6.779361  1.753707
  N     9.493076 10.290522  1.412238
  N     7.080807  5.992567  0.555207
  N     7.215793  9.467754  0.536743
  N     6.258292  6.315673  4.317922
  N     6.885170 10.379331  4.360401
  S     5.541121  5.940179  2.839331
  S     6.025046  9.770724  3.048382
  S     8.652829  6.423489  0.164452
  S     8.712611  9.917516 -0.041672
  S     7.910162  6.768942  4.287396
  S     8.528469 10.487856  4.102877
