16  
    
  C     9.892048  7.753615  2.859576
  C     9.866061 11.161754  2.884740
  C     8.747703  7.263114  2.157967
  C     8.649760 10.824283  2.192791
  N    10.897904  7.987999  1.997632
  N    10.916937 11.213851  2.058156
  N     8.872166  7.126547  0.835612
  N     8.733273 10.769317  0.839723
  N     7.932526  7.463443  4.539055
  N     8.124484 10.773470  4.680906
  S     7.288376  7.039102  3.089291
  S     7.268607 10.857837  3.300785
  S    10.420237  7.530407  0.479514
  S    10.333523 11.014604  0.526222
  S     9.535767  7.761352  4.561194
  S     9.704852 11.346626  4.624351
