16  
    
  C    11.992235  8.620938  3.545130
  C    11.893256 12.291253  3.200320
  C    10.828858  8.119336  2.900061
  C    10.629114 11.817850  2.674695
  N    13.021554  8.814187  2.728086
  N    12.913056 12.236621  2.333334
  N    10.968403  7.893341  1.586217
  N    10.629972 11.586993  1.372519
  N    10.272965  8.343044  5.405403
  N    10.230173 11.886308  5.199237
  S     9.496747  7.890608  4.018790
  S     9.303875 11.546278  3.830289
  S    12.531932  8.314892  1.205205
  S    12.253459 11.862966  0.887562
  S    11.811444  8.834786  5.249966
  S    11.868206 12.219184  4.926298
