16  
    
  C     3.568002  4.390441  1.522043
  C     3.551105  8.516805  1.304462
  C     2.392738  3.773247  0.891199
  C     2.341554  7.960721  0.690883
  N     4.491006  4.854060  0.693783
  N     4.528794  8.695198  0.409876
  N     2.579378  3.565546 -0.431408
  N     2.361219  7.910910 -0.643142
  N     1.998814  3.868273  3.510070
  N     1.909542  8.197267  3.262798
  S     1.167246  3.454096  2.086750
  S     1.095292  7.756775  1.851950
  S     4.087630  4.298352 -0.779148
  S     3.904443  8.400091 -1.085717
  S     3.461415  4.624404  3.227602
  S     3.505032  8.592722  3.038179
