16  
    
  C    11.818056  8.684279  3.448449
  C    11.514674 12.207068  3.252080
  C    10.567843  8.283009  2.856809
  C    10.396444 11.614453  2.553923
  N    12.770135  8.813370  2.571744
  N    12.631078 12.450998  2.549323
  N    10.636015  8.044254  1.554529
  N    10.672898 11.435427  1.257500
  N    10.154942  8.709913  5.416046
  N     9.553421 11.971854  5.010727
  S     9.285293  8.324588  4.029739
  S     9.046924 11.213346  3.590762
  S    12.203919  8.438997  1.073814
  S    12.230117 12.069226  1.003560
  S    11.757314  9.049990  5.166786
  S    11.189837 12.569313  4.860183
