16  
    
  C    12.093366  8.592120  3.303633
  C    12.170541 12.104626  3.273100
  C    10.773621  8.252156  2.762947
  C    10.960274 11.663633  2.625779
  N    13.053040  8.711351  2.388605
  N    13.159661 12.352555  2.379399
  N    10.765829  8.213759  1.451074
  N    11.053103 11.296717  1.347436
  N    10.330318  8.441029  5.241770
  N    10.301822 11.986120  5.029579
  S     9.508366  8.077033  3.897602
  S     9.560783 11.563086  3.635262
  S    12.307252  8.334439  0.916930
  S    12.509887 11.947268  0.871261
  S    11.995330  8.708368  5.062324
  S    11.841890 12.371900  5.001664
