16  
    
  C    11.874759  8.682539  3.536397
  C    11.594632 12.307339  3.275526
  C    10.595317  8.353960  2.919875
  C    10.462742 11.776792  2.580074
  N    12.860892  8.825878  2.680207
  N    12.702125 12.422437  2.521348
  N    10.676035  8.222523  1.613046
  N    10.670448 11.445540  1.304255
  N    10.027498  8.543832  5.356856
  N     9.557908 11.869669  5.018398
  S     9.251038  8.268518  3.918654
  S     8.987524 11.448926  3.442652
  S    12.256441  8.425825  1.180486
  S    12.269242 11.896026  0.990833
  S    11.629587  9.010103  5.208601
  S    11.196120 12.316818  4.990746
