16  
    
  C    11.981577  8.611102  3.409904
  C    11.825771 12.093417  3.181992
  C    10.757328  8.049779  2.919592
  C    10.557418 11.673276  2.641554
  N    12.923888  8.922283  2.503874
  N    12.833708 12.100983  2.280140
  N    10.770060  7.813580  1.626720
  N    10.518868 11.649317  1.318130
  N    10.334562  8.469859  5.414603
  N    10.014712 11.891920  5.160220
  S     9.497228  7.909073  4.093201
  S     9.178472 11.523923  3.716483
  S    12.263808  8.251603  1.068356
  S    12.055589 12.033956  0.798073
  S    11.869822  8.973785  5.113730
  S    11.651658 12.353443  4.898216
