16  
    
  C     9.214008  6.776184  2.387119
  C     9.139506 10.861152  3.010642
  C     7.980363  6.279286  1.746201
  C     7.909946 10.328573  2.387413
  N    10.241190  6.832986  1.560539
  N    10.137722 11.010099  2.137840
  N     8.167739  5.820816  0.490657
  N     8.047371 10.062109  1.097959
  N     7.399086  7.062735  4.175006
  N     7.348656 10.932704  4.906874
  S     6.647088  6.308108  2.922095
  S     6.562035 10.524275  3.497266
  S     9.736376  6.116956  0.126507
  S     9.540114 10.473279  0.644467
  S     9.045971  7.256096  4.057513
  S     8.998577 11.260703  4.720942
