16  
    
  C     6.877432  6.008645  1.591135
  C     7.271627  9.915986  2.458552
  C     5.821305  5.104637  1.145983
  C     6.016061  9.533019  1.907728
  N     7.874568  6.143732  0.730348
  N     8.316109  9.881669  1.628480
  N     5.944204  4.682430 -0.113060
  N     6.087468  9.188149  0.639172
  N     5.183173  5.835060  3.561709
  N     5.574126  9.862990  4.484284
  S     4.492231  4.919515  2.253780
  S     4.692704  9.531977  3.033128
  S     7.386790  5.328128 -0.666247
  S     7.584690  9.399111  0.120812
  S     6.732508  6.421060  3.331069
  S     7.181826 10.293029  4.219556
