16  
    
  C     5.535359  5.346288  1.856636
  C     5.312164  8.829089  1.728873
  C     4.191470  5.034277  1.328576
  C     4.119208  8.483303  1.041034
  N     6.495539  5.357938  0.941516
  N     6.364824  9.009897  0.946722
  N     4.113556  5.131411 -0.004660
  N     4.260331  8.293021 -0.259145
  N     4.079125  5.139162  3.940843
  N     3.356533  8.702521  3.498710
  S     3.013104  4.976545  2.617117
  S     2.767852  8.151945  2.052303
  S     5.698649  5.278906 -0.545107
  S     5.856423  8.703596 -0.605052
  S     5.709818  5.461683  3.571322
  S     4.938770  9.289392  3.329901
