16  
    
  C     5.499320  5.506761  1.660912
  C     5.299451  8.892563  1.617211
  C     4.241185  5.043921  1.090935
  C     4.172460  8.398505  0.920196
  N     6.412124  5.748862  0.732490
  N     6.359473  9.151511  0.849987
  N     4.194486  5.045405 -0.225444
  N     4.348346  8.130099 -0.356724
  N     3.680022  5.255276  3.557552
  N     3.380866  8.746152  3.372090
  S     2.866192  5.022880  2.158337
  S     2.719180  8.344443  1.899969
  S     5.724850  5.422260 -0.774251
  S     5.948005  8.644037 -0.693775
  S     5.355016  5.680373  3.424116
  S     4.933032  9.243059  3.278851
