16  
    
  C    12.770437  8.958936  3.816436
  C    12.548451 12.773866  3.999291
  C    11.545633  8.470970  3.241429
  C    11.514077 12.122418  3.245911
  N    13.739873  9.240700  2.911181
  N    13.600025 13.057630  3.221366
  N    11.608664  8.158525  1.948246
  N    11.679651 12.067344  1.935669
  N    11.029055  8.558936  5.696803
  N    10.657674 12.279403  5.636784
  S    10.189522  8.126885  4.295590
  S     9.997418 11.885853  4.144883
  S    13.102770  8.769177  1.415299
  S    13.220622 12.542677  1.683308
  S    12.567214  9.025157  5.627127
  S    12.273792 12.899015  5.700087
