16  
    
  C    11.777765  8.560129  3.509206
  C    11.721045 11.892690  3.385329
  C    10.600517  8.216742  2.814170
  C    10.462183 11.658663  2.672252
  N    12.835009  8.764392  2.719096
  N    12.760355 11.937104  2.562946
  N    10.765674  8.012892  1.490359
  N    10.527279 11.645414  1.352506
  N     9.888365  8.566329  5.255604
  N     9.727600 11.807268  5.166400
  S     9.197986  8.283736  3.755884
  S     9.061242 11.453339  3.619986
  S    12.339455  8.472651  1.133724
  S    12.191844 11.872652  1.019830
  S    11.564231  8.857298  5.245839
  S    11.405874 11.972441  5.136206
