16  
    
  C     8.578885  6.615560  2.377547
  C     8.412778 10.301807  2.443180
  C     7.342692  6.178704  1.801202
  C     7.196188  9.831195  1.804390
  N     9.487200  6.877959  1.455320
  N     9.442355 10.419944  1.592736
  N     7.332407  6.064459  0.487480
  N     7.296021  9.651600  0.509546
  N     6.850050  6.188626  4.358581
  N     6.565858 10.148372  4.246135
  S     6.094860  5.936847  2.915903
  S     5.888549  9.528845  2.864257
  S     8.795482  6.540061 -0.010113
  S     8.850624  9.900940  0.100013
  S     8.402473  6.765528  4.132609
  S     8.181344 10.551501  4.146138
