16  
    
  C    11.917723  8.520405  3.218466
  C    11.375026 12.040102  3.498812
  C    10.634282  8.218550  2.587471
  C    10.229979 11.586822  2.781482
  N    12.931156  8.741498  2.366158
  N    12.398179 12.448944  2.744774
  N    10.693202  8.169688  1.254116
  N    10.413002 11.525223  1.456926
  N    10.202127  8.023300  5.145963
  N     9.621637 11.661565  5.375366
  S     9.331449  8.044971  3.755417
  S     9.026257 11.104121  3.895333
  S    12.243430  8.611775  0.856981
  S    11.968632 11.967449  1.167868
  S    11.827110  8.414930  4.930699
  S    11.253425 12.264357  5.224884
