16  
    
  C    10.813158  8.366957  3.277968
  C    10.700494 11.896013  3.259829
  C     9.668025  7.698523  2.660043
  C     9.534828 11.322197  2.626004
  N    11.806509  8.544703  2.411887
  N    11.687235 12.083251  2.412866
  N     9.831023  7.377002  1.384443
  N     9.632524 11.249746  1.302285
  N     9.051931  7.978044  5.230593
  N     9.061701 11.495661  5.159479
  S     8.359049  7.499824  3.774446
  S     8.249113 11.064986  3.788219
  S    11.306028  7.989119  0.961287
  S    11.122638 11.686882  0.893076
  S    10.622849  8.686798  4.987213
  S    10.556150 12.125503  4.967227
