16  
    
  C     6.701159  5.707363  2.034166
  C     6.652767  9.531576  2.102913
  C     5.412549  5.490292  1.404075
  C     5.384167  9.083351  1.572216
  N     7.649527  5.844037  1.118046
  N     7.621936  9.679396  1.194571
  N     5.465472  5.398143  0.089352
  N     5.381449  8.975832  0.250720
  N     4.963326  5.771815  3.911529
  N     5.088673  9.317681  4.210165
  S     4.119505  5.383379  2.562833
  S     4.187414  9.077306  2.798834
  S     7.044073  5.592875 -0.403102
  S     6.946430  9.382353 -0.269547
  S     6.649349  5.952625  3.735446
  S     6.646782  9.821480  3.773219
