16  
    
  C     6.769961  5.850117  2.064586
  C     6.761418  9.613294  2.214395
  C     5.441755  5.512008  1.508035
  C     5.440306  9.206810  1.654500
  N     7.759832  5.866471  1.161098
  N     7.660068  9.836050  1.237953
  N     5.437618  5.426303  0.195536
  N     5.418944  9.023286  0.341028
  N     5.039561  5.646762  4.014726
  N     5.172526  9.286390  4.130009
  S     4.110502  5.332255  2.615644
  S     4.162433  9.089374  2.836033
  S     6.993568  5.590212 -0.311462
  S     6.904791  9.371636 -0.181723
  S     6.658547  5.963633  3.808510
  S     6.706200  9.845010  3.946997
