16  
    
  C     7.871337  6.334588  2.158173
  C     8.070128 10.624025  2.201968
  C     6.652175  5.897064  1.499190
  C     6.934082  9.963094  1.540674
  N     8.869530  6.629288  1.290364
  N     9.103021 10.828411  1.388989
  N     6.778301  5.766120  0.167115
  N     7.145298  9.615787  0.249682
  N     6.198999  5.738186  4.070609
  N     6.326900 10.133294  4.076766
  S     5.375981  5.547502  2.582955
  S     5.625039  9.690701  2.643601
  S     8.234294  6.272998 -0.221675
  S     8.589859 10.199447 -0.140740
  S     7.717365  6.348917  3.902635
  S     7.874531 10.830138  3.916994
