16  
    
  C     4.750368  4.859931  1.909049
  C     4.697938  8.974400  1.709396
  C     3.507007  4.650190  1.215187
  C     3.423232  8.532935  1.110892
  N     5.847812  5.061839  1.166020
  N     5.663969  9.234135  0.831448
  N     3.717439  4.560993 -0.086591
  N     3.397056  8.551542 -0.217009
  N     3.041970  4.761409  3.777869
  N     3.148386  8.253117  3.663593
  S     2.143569  4.407561  2.420625
  S     2.256214  8.047170  2.288372
  S     5.345466  4.742172 -0.373554
  S     4.957531  9.017011 -0.702281
  S     4.673310  4.977069  3.643523
  S     4.642018  8.836665  3.440052
