16  
    
  C     8.424840  6.669638  2.402442
  C     8.396119 10.325407  2.336317
  C     7.192522  6.162951  1.775787
  C     7.124410  9.929531  1.756519
  N     9.425037  6.817724  1.562325
  N     9.416903 10.265263  1.453366
  N     7.241953  6.095625  0.457035
  N     7.196543  9.687605  0.458053
  N     6.773880  6.192990  4.291982
  N     6.717392 10.148252  4.318002
  S     5.892328  5.911758  2.936611
  S     5.922977  9.602391  2.954295
  S     8.852605  6.551974  0.005816
  S     8.821647  9.834186 -0.002199
  S     8.339657  6.778328  4.142498
  S     8.307964 10.540138  4.101853
