16  
    
  C    10.752574  7.749390  3.103499
  C    10.616785 11.967567  3.118923
  C     9.484146  7.367909  2.509967
  C     9.416563 11.235034  2.731238
  N    11.689284  8.076942  2.232155
  N    11.520056 12.197576  2.158613
  N     9.468527  7.439871  1.191410
  N     9.330451 10.980605  1.427659
  N     9.095950  7.573978  5.095692
  N     9.191677 11.551382  5.263291
  S     8.289549  7.084418  3.724222
  S     8.307314 10.924881  4.001872
  S    11.023153  7.791077  0.729196
  S    10.780680 11.631579  0.783891
  S    10.736344  7.830059  4.782022
  S    10.651037 12.223437  4.815329
