16  
    
  C    10.988328  7.810715  3.081438
  C    10.995016 11.687793  2.754833
  C     9.718680  7.317023  2.535482
  C     9.758237 11.197820  2.142035
  N    11.882773  8.116597  2.165032
  N    11.957638 11.849847  1.885063
  N     9.648078  7.255493  1.213289
  N     9.867782 10.890940  0.878416
  N     9.372483  7.524779  5.172601
  N     9.415034 11.222033  4.653073
  S     8.494318  7.108205  3.779315
  S     8.520010 11.041699  3.256506
  S    11.165683  7.730106  0.685142
  S    11.397787 11.407849  0.367719
  S    11.025752  8.010391  4.828126
  S    10.904206 11.978511  4.489405
