16  
    
  C     5.046826  5.063508  1.799557
  C     5.110998  8.635533  1.894722
  C     3.726607  4.832329  1.272508
  C     3.827477  8.358492  1.255682
  N     6.038968  5.083749  0.905505
  N     6.167589  8.662160  1.069311
  N     3.716648  4.867217 -0.067003
  N     3.898325  8.005048 -0.023559
  N     3.561480  4.660562  3.890248
  N     3.288163  8.702948  3.723964
  S     2.509695  4.821541  2.548961
  S     2.465714  8.410406  2.292861
  S     5.294061  5.044165 -0.542700
  S     5.544690  8.171623 -0.419699
  S     5.174813  5.002058  3.516741
  S     4.941977  9.063742  3.577483
