16  
    
  C    10.077042  7.516746  2.515909
  C    10.365004 11.061757  2.678358
  C     8.796081  6.954875  1.987372
  C     9.064265 11.021200  2.016876
  N    11.080484  7.665320  1.638246
  N    11.415762 10.979506  1.872375
  N     8.848632  6.723158  0.675591
  N     9.197198 11.046190  0.685210
  N     8.320799  7.252743  4.464310
  N     8.587303 11.095303  4.526641
  S     7.582378  6.644657  3.131140
  S     7.796290 10.884501  3.120170
  S    10.415510  7.005170  0.214064
  S    10.809924 11.000493  0.313605
  S     9.953265  7.635503  4.263372
  S    10.280370 11.148600  4.377511
