16  
    
  C    12.067613  8.843530  3.498347
  C    11.846888 12.381352  3.337473
  C    10.859859  8.547776  2.715175
  C    10.567091 12.010616  2.771834
  N    13.199147  9.060150  2.778023
  N    12.810845 12.512193  2.454866
  N    11.081316  8.382496  1.411287
  N    10.610858 11.960834  1.456163
  N    10.156456  8.550998  5.268347
  N    10.297298 12.057977  5.355855
  S     9.504447  8.322717  3.727161
  S     9.285781 11.884362  3.964269
  S    12.729342  8.754937  1.165670
  S    12.143099 12.235481  0.954033
  S    11.822755  8.927684  5.216606
  S    11.958830 12.295457  5.055130
