16  
    
  C     9.210170  6.905265  2.772990
  C     9.675746 10.936245  2.696252
  C     8.025816  6.400249  2.094391
  C     8.559504 10.168515  2.046155
  N    10.229320  7.190104  1.984317
  N    10.616572 11.294791  1.821923
  N     8.166546  6.371850  0.773577
  N     8.684950 10.121410  0.751603
  N     7.513393  6.386471  4.653071
  N     8.097317 10.095958  4.594205
  S     6.747079  6.057435  3.209364
  S     7.357702  9.615027  3.199289
  S     9.697023  6.989046  0.439942
  S    10.080176 10.859015  0.274603
  S     9.046905  6.996877  4.507050
  S     9.540784 10.912278  4.422407
