16  
    
  C     5.388098  5.582587  1.744519
  C     5.187220  8.934985  1.776297
  C     4.181014  5.393727  0.953584
  C     3.995212  8.569645  1.077967
  N     6.520369  5.626966  1.014520
  N     6.258343  9.073919  0.998870
  N     4.412159  5.091596 -0.319521
  N     4.085059  8.683054 -0.249339
  N     3.433995  5.315175  3.338116
  N     3.373332  8.557771  3.580894
  S     2.781056  5.090220  1.903672
  S     2.637977  8.174794  2.114996
  S     6.038413  5.314913 -0.575577
  S     5.744841  8.960882 -0.592256
  S     4.991712  5.748989  3.407150
  S     5.012938  8.879516  3.531931
