16  
    
  C     4.583819  5.109581  1.737902
  C     4.216703  8.694263  1.557612
  C     3.350169  4.765290  1.097541
  C     3.029005  8.147347  0.887750
  N     5.582068  5.307732  0.879025
  N     5.262354  8.882437  0.779825
  N     3.409270  4.490526 -0.185921
  N     3.168343  8.033286 -0.424593
  N     2.640706  5.148205  3.500924
  N     2.474558  8.332360  3.305626
  S     1.965591  4.675872  2.059859
  S     1.737166  7.796950  1.970203
  S     4.973795  4.708188 -0.609074
  S     4.730597  8.470830 -0.776441
  S     4.298659  5.319190  3.448859
  S     4.079774  8.810191  3.252841
