16  
    
  C     6.895645  5.976231  2.278313
  C     7.277796  9.830376  2.177879
  C     5.800361  5.510697  1.436790
  C     6.020177  9.491370  1.564816
  N     8.049433  6.266303  1.651101
  N     8.327704  9.866018  1.370265
  N     6.173415  5.288829  0.180843
  N     6.100312  9.332711  0.271199
  N     4.791642  5.624551  3.836556
  N     5.472505  9.397109  4.055047
  S     4.314207  5.065858  2.271029
  S     4.640141  9.372756  2.622948
  S     7.750169  5.786905  0.058121
  S     7.688959  9.588913 -0.161216
  S     6.422536  6.127441  3.988733
  S     7.098474  9.937517  3.945703
