16  
    
  C     5.737824  5.176486  1.874763
  C     5.675293  9.259618  2.012704
  C     4.603944  4.540282  1.176412
  C     4.544377  8.584099  1.423209
  N     6.827786  5.272734  1.137482
  N     6.604577  9.639854  1.132983
  N     4.857227  4.235800 -0.099428
  N     4.681163  8.288563  0.126315
  N     3.958702  4.666157  3.743609
  N     4.103450  8.705153  4.003548
  S     3.207318  4.320952  2.232547
  S     3.349074  8.270507  2.610258
  S     6.437246  4.750342 -0.409146
  S     6.074654  8.980400 -0.309421
  S     5.503682  5.352321  3.624241
  S     5.624697  9.490294  3.723716
