16  
    
  C    12.263732  9.246259  3.538339
  C    12.444628 12.707625  3.460428
  C    11.236482  8.574768  2.781487
  C    11.182700 12.300972  2.938286
  N    13.239115  9.734861  2.773493
  N    13.426685 12.919553  2.602015
  N    11.420357  8.410717  1.458713
  N    11.263450 11.993743  1.649719
  N    10.623843  8.367618  5.255711
  N    10.933957 12.559372  5.492425
  S     9.969227  7.923478  3.865228
  S     9.972307 12.182452  4.163578
  S    12.973159  9.206385  1.221061
  S    12.732773 12.536783  1.149332
  S    12.055472  9.183322  5.304018
  S    12.475140 13.011421  5.161642
