16  
    
  C     8.541832  6.616531  2.365705
  C     8.326750 10.202918  2.534870
  C     7.251080  6.240074  1.754016
  C     7.193080  9.614427  1.794260
  N     9.505790  6.905280  1.489423
  N     9.417835 10.521383  1.848396
  N     7.418781  6.023441  0.427680
  N     7.524108  9.408059  0.499391
  N     6.996483  6.311149  4.338905
  N     6.394520 10.079471  4.257575
  S     6.059754  5.859888  3.002864
  S     5.781526  9.474101  2.827497
  S     8.892948  6.514770 -0.025443
  S     9.011445 10.090683  0.240170
  S     8.593845  6.800332  4.069299
  S     8.015259 10.576342  4.211587
