16  
    
  C     5.340456  5.419943  1.720202
  C     5.136792  8.966240  1.279864
  C     4.000503  5.092794  1.229124
  C     3.882098  8.470531  0.736357
  N     6.223804  5.474640  0.720687
  N     6.184608  8.951742  0.453675
  N     3.924096  4.865521 -0.080667
  N     3.932933  8.186892 -0.561964
  N     3.712380  5.427532  3.765817
  N     3.476418  8.941535  3.287517
  S     2.782106  5.144055  2.473573
  S     2.691525  8.269134  2.000641
  S     5.455844  4.990975 -0.648962
  S     5.550204  8.410090 -0.992567
  S     5.309607  5.939870  3.411323
  S     5.039978  9.339088  2.973736
