16  
    
  C     8.248163  6.586908  2.677626
  C     8.727015 10.515502  2.827544
  C     7.116332  6.054922  1.912809
  C     7.500320 10.067967  2.139369
  N     9.318424  6.821728  1.925462
  N     9.780964 10.677553  2.036814
  N     7.334799  5.945951  0.604369
  N     7.664267  9.791934  0.873660
  N     6.256140  6.308043  4.301043
  N     6.892063 10.347727  4.625525
  S     5.711666  5.853513  2.816611
  S     6.126195  9.953674  3.195220
  S     8.825152  6.486664  0.334881
  S     9.252611 10.119704  0.467458
  S     7.832298  6.823328  4.345359
  S     8.572517 10.534873  4.530352
