16  
    
  C     6.598196  5.798101  2.132411
  C     6.223756  9.211656  1.893198
  C     5.478705  5.286363  1.422273
  C     5.071677  8.714700  1.183904
  N     7.606489  6.127540  1.347970
  N     7.343512  9.427690  1.215144
  N     5.637293  5.072112  0.118545
  N     5.296090  8.598715 -0.131798
  N     4.717128  5.530546  3.920542
  N     4.445032  8.990555  3.697339
  S     4.063026  5.098723  2.435227
  S     3.674370  8.558975  2.206401
  S     7.185179  5.654274 -0.196911
  S     6.827892  9.135354 -0.384163
  S     6.349283  6.054738  3.827088
  S     6.044645  9.378149  3.639087
