16  
    
  C     6.990235  5.934237  1.807530
  C     7.231149  9.766960  2.487600
  C     5.916694  5.128448  1.267828
  C     5.987628  9.393523  1.834352
  N     8.007144  6.227308  1.010230
  N     8.301098  9.835586  1.710818
  N     6.065629  4.885646 -0.046275
  N     6.129532  9.196609  0.528083
  N     5.220626  5.833046  3.694324
  N     5.516391  9.902250  4.397395
  S     4.580818  4.975902  2.358853
  S     4.689225  9.577589  2.970197
  S     7.553196  5.568255 -0.460160
  S     7.698894  9.380002  0.194545
  S     6.795807  6.438630  3.480213
  S     7.162794 10.134570  4.163633
