16  
    
  C     8.756381  7.122365  2.679828
  C     8.955140 10.965842  2.293580
  C     7.573711  6.541479  2.204550
  C     7.770754 10.553805  1.634177
  N     9.679258  7.421531  1.764695
  N     9.892566 11.398361  1.481081
  N     7.682305  6.239144  0.911437
  N     7.805820 10.612687  0.310327
  N     7.233880  6.969020  4.765972
  N     7.208721 10.521728  4.140386
  S     6.379348  6.210833  3.483650
  S     6.457611 10.045676  2.726873
  S     9.137138  6.821485  0.365065
  S     9.389541 11.202778 -0.064354
  S     8.694958  7.590977  4.342490
  S     8.729174 11.145743  4.017653
