16  
    
  C     3.948313  4.641872  1.695856
  C     3.823534  8.400653  1.701911
  C     2.659217  4.358148  1.094192
  C     2.644113  7.971601  0.954076
  N     4.935399  4.623629  0.805573
  N     4.954161  8.402016  1.000575
  N     2.708603  4.121234 -0.207190
  N     2.868899  7.684309 -0.314837
  N     2.131423  4.788516  3.571115
  N     1.925238  8.268506  3.455534
  S     1.314826  4.594346  2.118387
  S     1.269827  7.849824  1.986496
  S     4.239526  4.183342 -0.670300
  S     4.487916  7.955451 -0.567549
  S     3.768988  4.954963  3.466047
  S     3.477332  8.850135  3.355641
