16  
    
  C     9.245790  6.581882  2.404156
  C     9.302362 10.528565  2.888302
  C     8.021926  6.296739  1.680909
  C     8.027803 10.453178  2.193390
  N    10.384530  6.583651  1.720079
  N    10.374011 10.320066  2.120030
  N     8.278018  6.037087  0.407050
  N     8.144802 10.059430  0.934002
  N     7.399792  6.937187  4.081579
  N     7.446701 10.781043  4.604856
  S     6.697318  6.183945  2.756987
  S     6.667452 10.761071  3.159717
  S     9.957943  6.257213  0.178184
  S     9.811508  9.936413  0.623446
  S     9.027423  7.091865  3.999680
  S     9.101425 11.063672  4.501149
