16  
    
  C     6.004680  5.036984  1.619658
  C     5.979099  9.177248  1.940153
  C     4.761250  4.782977  0.992734
  C     4.771374  8.702251  1.356955
  N     7.001164  5.258469  0.743326
  N     7.049916  9.180197  1.126911
  N     4.883376  4.487599 -0.292962
  N     4.900694  8.465654  0.066009
  N     4.212815  4.771506  3.578518
  N     4.194567  8.840832  3.852674
  S     3.437143  4.507534  2.072363
  S     3.360819  8.600911  2.468265
  S     6.402998  4.848694 -0.746448
  S     6.482989  8.746586 -0.348354
  S     5.801522  5.079986  3.343899
  S     5.870374  9.196031  3.690787
