16  
    
  C     4.207475  4.897174  1.431937
  C     4.278663  8.339095  1.376344
  C     2.974650  4.467592  0.791098
  C     2.976736  8.041031  0.694929
  N     5.278595  4.969995  0.624275
  N     5.298217  8.452283  0.549372
  N     3.134112  4.430243 -0.524194
  N     3.124537  7.696422 -0.588742
  N     2.455696  4.775377  3.308279
  N     2.455530  8.284644  3.209594
  S     1.622942  4.526234  1.950144
  S     1.710744  7.875461  1.848373
  S     4.718333  4.669386 -0.921357
  S     4.712533  8.042738 -1.004644
  S     4.118877  4.988990  3.207539
  S     4.072381  8.646853  3.068732
