16  
    
  C    12.064236  8.576468  3.362183
  C    12.090355 12.150769  3.255052
  C    10.809741  8.247944  2.742724
  C    11.010087 11.436669  2.653734
  N    13.057348  8.630543  2.513288
  N    13.114392 12.492707  2.443654
  N    10.812559  8.068318  1.426863
  N    11.206839 11.314531  1.336800
  N    10.375046  8.427359  5.273612
  N    10.223439 12.023715  5.093681
  S     9.498772  8.061742  3.863716
  S     9.527363 11.514755  3.644113
  S    12.392973  8.394266  1.016325
  S    12.679820 11.913300  0.893023
  S    11.946327  8.751769  5.103885
  S    11.919586 12.376534  4.996399
