16  
    
  C    12.712707  9.071674  3.343368
  C    12.714582 12.816713  3.524106
  C    11.431091  8.726775  2.769855
  C    11.610578 12.271224  2.785043
  N    13.737025  9.180217  2.496168
  N    13.802437 13.056149  2.801529
  N    11.530831  8.542977  1.442715
  N    11.828886 12.088024  1.487465
  N    11.099910  8.885662  5.394148
  N    10.863987 12.498799  5.224928
  S    10.254637  8.486920  4.052945
  S    10.219973 12.046088  3.801404
  S    13.113855  8.779466  1.031066
  S    13.338909 12.707632  1.184581
  S    12.642905  9.488358  5.051241
  S    12.337887 13.149454  5.111322
