16  
    
  C     9.844962  7.762618  2.772739
  C     9.883672 11.131423  2.876886
  C     8.664214  7.298208  2.091334
  C     8.633116 10.868551  2.201491
  N    10.931005  7.944649  2.029199
  N    10.936214 11.240866  2.081100
  N     8.860878  7.126009  0.808541
  N     8.742196 10.769447  0.895526
  N     7.992480  7.368637  4.556323
  N     8.122090 10.804140  4.721662
  S     7.294132  7.110919  3.097815
  S     7.269162 10.805377  3.272919
  S    10.431098  7.562813  0.450837
  S    10.360548 11.037911  0.581694
  S     9.615837  7.755951  4.537145
  S     9.683893 11.372594  4.630186
