16  
    
  C     7.799422  6.616324  2.448369
  C     7.924329 10.211800  2.042342
  C     6.631198  6.277403  1.708722
  C     6.654068  9.878492  1.495578
  N     8.896626  6.738591  1.693619
  N     8.965489 10.257149  1.165220
  N     6.811590  5.858938  0.439857
  N     6.652914  9.673080  0.182464
  N     5.845237  6.372545  4.113954
  N     6.210398 10.369578  3.972730
  S     5.251810  6.047556  2.659098
  S     5.376408  9.887705  2.627125
  S     8.423448  6.138953  0.219732
  S     8.145230  9.881981 -0.333891
  S     7.447008  6.923860  4.123401
  S     7.850798 10.599765  3.768510
