16  
    
  C     8.792544  6.808968  2.258932
  C     9.022600 10.441928  2.526961
  C     7.598904  6.468002  1.574085
  C     7.758072 10.127063  1.929096
  N     9.825371  7.110249  1.467962
  N    10.051617 10.477810  1.718254
  N     7.763701  6.292631  0.256179
  N     7.827347  9.868338  0.628654
  N     6.881296  6.704230  4.044129
  N     7.274194 10.268177  4.450409
  S     6.264128  6.173803  2.635459
  S     6.447578  9.957052  3.054313
  S     9.275832  6.843939 -0.088933
  S     9.412950 10.121993  0.133583
  S     8.502954  7.189694  3.961450
  S     8.866281 10.625755  4.284298
