16  
    
  C     6.010055  5.059220  1.630285
  C     6.010230  9.128447  1.989511
  C     4.741422  4.706541  1.015841
  C     4.758884  8.687657  1.333325
  N     6.994634  5.270927  0.752361
  N     7.074374  9.169453  1.182808
  N     4.794060  4.542520 -0.308695
  N     4.919246  8.467197  0.022752
  N     4.217776  4.838225  3.515479
  N     4.239161  8.860796  3.859667
  S     3.417436  4.536456  2.110623
  S     3.362515  8.602905  2.488337
  S     6.365785  4.877425 -0.727411
  S     6.471259  8.743410 -0.344500
  S     5.831628  5.148642  3.333499
  S     5.861557  9.154361  3.728709
