16  
    
  C     5.064251  5.104420  1.880115
  C     5.135203  8.625375  1.928558
  C     3.753222  4.975353  1.290348
  C     3.906620  8.330004  1.241852
  N     6.090190  5.097202  1.034146
  N     6.194191  8.608313  1.143210
  N     3.807293  4.838091 -0.024408
  N     4.082637  7.998911 -0.026093
  N     3.502622  4.772057  3.820810
  N     3.245509  8.775403  3.687572
  S     2.467965  4.846870  2.561185
  S     2.505888  8.446135  2.221079
  S     5.401603  5.033317 -0.495969
  S     5.644932  8.194107 -0.358050
  S     5.150284  5.046846  3.577977
  S     4.889186  8.972638  3.573795
