16  
    
  C    12.724600  8.991860  3.809193
  C    12.801162 12.401492  3.718018
  C    11.480814  8.528291  3.236350
  C    11.557989 12.099298  3.067391
  N    13.687686  9.197478  2.921769
  N    13.805221 12.799887  2.924967
  N    11.480125  8.435281  1.910119
  N    11.673820 12.108154  1.735468
  N    11.217722  8.432434  5.834971
  N    10.950108 12.297172  5.515897
  S    10.319297  8.132503  4.414932
  S    10.202878 11.859237  4.110678
  S    13.027985  8.960611  1.373149
  S    13.240837 12.572448  1.408003
  S    12.644730  9.248651  5.565605
  S    12.570210 12.705800  5.439673
