16  
    
  C     6.016108  5.567520  2.173961
  C     5.962050  9.234291  1.573127
  C     4.662201  5.584963  1.554177
  C     4.728281  8.805844  0.911509
  N     7.032782  5.518335  1.294192
  N     7.046185  9.216601  0.812841
  N     4.706045  5.362267  0.245095
  N     4.901911  8.522529 -0.374503
  N     4.249943  5.823858  4.091312
  N     4.176208  9.005667  3.467712
  S     3.306983  5.723249  2.651622
  S     3.381551  8.785866  2.005928
  S     6.301583  5.291722 -0.207207
  S     6.530160  8.813709 -0.719826
  S     5.955308  5.856728  3.930885
  S     5.805405  9.526037  3.236823
