16  
    
  C    11.871548  8.564406  3.186194
  C    11.398116 12.316849  3.438375
  C    10.584126  8.289390  2.568814
  C    10.236664 11.700553  2.821127
  N    12.811923  8.829225  2.315072
  N    12.473452 12.413261  2.631420
  N    10.602162  8.291807  1.240651
  N    10.398175 11.535937  1.516750
  N    10.206948  7.973858  5.139457
  N     9.644191 11.602812  5.194844
  S     9.347280  7.861243  3.751988
  S     8.936157 11.143013  3.807566
  S    12.142431  8.578875  0.809799
  S    11.891720 12.014660  1.115710
  S    11.850378  8.491085  4.975851
  S    11.112101 12.278053  5.186789
