16  
    
  C    10.930206  7.952541  3.107517
  C    11.556521 11.777927  3.140552
  C     9.687755  7.516107  2.436227
  C    10.459462 11.164794  2.459339
  N    12.024720  8.018536  2.313211
  N    12.605196 12.023282  2.379296
  N     9.846838  7.274427  1.111774
  N    10.640543 10.952984  1.155466
  N     9.182246  7.979230  4.911151
  N     9.738911 11.573298  4.827235
  S     8.462862  7.273356  3.590590
  S     9.062169 10.974415  3.465343
  S    11.462287  7.597330  0.804000
  S    12.177652 11.504820  0.813613
  S    10.771114  8.257045  4.803300
  S    11.265943 12.132911  4.770418
