16  
    
  C     9.537466  7.614016  2.586188
  C    10.161565 11.376824  2.580379
  C     8.432325  6.772512  2.091109
  C     8.887304 10.888341  1.981734
  N    10.546952  7.880349  1.754352
  N    11.168082 11.418126  1.752931
  N     8.664920  6.405458  0.827430
  N     8.961554 10.760785  0.676254
  N     7.844256  7.409811  4.520345
  N     8.553351 11.060720  4.518808
  S     7.140371  6.563637  3.273789
  S     7.670397 10.717441  3.153814
  S    10.193100  6.994433  0.407413
  S    10.527679 11.036781  0.206904
  S     9.370734  7.933156  4.263439
  S    10.082355 11.606297  4.286496
