16  
    
  C     5.390941  5.555055  1.707840
  C     5.196743  8.964116  1.786371
  C     4.189927  5.373143  0.944992
  C     4.025511  8.580505  1.077628
  N     6.519890  5.682719  1.016666
  N     6.265152  9.098233  1.004233
  N     4.419888  5.099728 -0.345281
  N     4.147516  8.677102 -0.249520
  N     3.431153  5.298682  3.357024
  N     3.369490  8.616688  3.568398
  S     2.760174  5.076543  1.912051
  S     2.661906  8.168957  2.100961
  S     6.053895  5.321396 -0.590373
  S     5.781134  8.934234 -0.585149
  S     5.023438  5.741921  3.403223
  S     4.992366  8.868033  3.521623
