16  
    
  C     3.963386  4.739586  1.672877
  C     3.914114  8.376520  1.633972
  C     2.727312  4.347667  1.076798
  C     2.711244  8.098475  0.924229
  N     5.061591  4.574472  0.890499
  N     5.034422  8.488921  0.907063
  N     2.849554  4.065639 -0.221404
  N     2.939470  7.765919 -0.355324
  N     2.281313  4.852744  3.563747
  N     2.028921  8.311423  3.349757
  S     1.404421  4.439790  2.222054
  S     1.315826  7.822312  1.910375
  S     4.416253  4.306366 -0.595278
  S     4.543850  7.998152 -0.628736
  S     3.883298  4.949647  3.398859
  S     3.615484  8.763565  3.312069
