16  
    
  C     5.668659  5.199632  1.964756
  C     5.656874  9.026741  1.974338
  C     4.461641  4.596963  1.395092
  C     4.493934  8.443178  1.340240
  N     6.598768  5.602449  1.092978
  N     6.625730  9.281916  1.106674
  N     4.581977  4.341893  0.087995
  N     4.496313  8.469678 -0.000341
  N     3.934337  5.068177  3.927193
  N     3.934266  8.669878  3.818729
  S     3.303970  4.211727  2.616555
  S     3.245921  8.015562  2.485264
  S     6.061403  5.003552 -0.377886
  S     6.003637  8.948014 -0.416175
  S     5.459668  5.639281  3.603960
  S     5.579908  9.165342  3.724185
