16  
    
  C     9.983460  7.747384  2.980288
  C    10.541733 11.710380  3.005009
  C     8.790424  7.325888  2.263723
  C     9.308794 11.065274  2.589109
  N    11.106225  7.931807  2.254048
  N    11.406245 11.944778  1.997149
  N     9.054917  7.158784  0.958634
  N     9.383741 10.718508  1.301323
  N     8.307059  6.999812  4.773479
  N     9.072820 11.400040  5.120654
  S     7.485459  6.844910  3.299023
  S     8.174242 10.856853  3.816427
  S    10.622605  7.646978  0.703903
  S    10.804241 11.190385  0.650022
  S     9.851245  7.544556  4.708937
  S    10.613737 12.006267  4.728752
