16  
    
  C    12.001481  8.748566  3.402350
  C    11.899023 12.151039  3.247534
  C    10.763428  8.561322  2.707952
  C    10.641499 11.750321  2.745245
  N    13.097560  8.837365  2.616436
  N    12.798594 12.406874  2.317690
  N    10.849041  8.389388  1.374752
  N    10.551593 11.813533  1.430628
  N    10.201139  8.465947  5.256120
  N    10.296623 12.101403  5.318783
  S     9.418581  8.261861  3.799267
  S     9.311644 11.841274  3.894724
  S    12.500971  8.655239  1.038207
  S    12.020168 12.151091  0.833386
  S    11.907407  8.752678  5.120527
  S    11.934915 12.178547  4.988846
