16  
    
  C     3.441008  4.661572  1.512844
  C     3.655021  8.352933  1.407882
  C     2.370408  3.855476  0.935176
  C     2.358460  8.083117  0.732282
  N     4.492248  4.844198  0.727579
  N     4.644488  8.646618  0.546357
  N     2.612437  3.612641 -0.358890
  N     2.459955  8.064284 -0.601112
  N     2.016030  3.834396  3.472127
  N     1.895370  8.213484  3.286931
  S     1.162363  3.389184  2.156256
  S     1.122568  7.667456  1.939288
  S     4.045599  4.289341 -0.770273
  S     4.035759  8.440173 -0.997687
  S     3.490774  4.583076  3.201471
  S     3.482252  8.623386  3.093432
