16  
    
  C     8.413289  6.877699  2.348312
  C     8.906063 10.226384  2.744892
  C     7.321358  6.394552  1.627496
  C     7.684966  9.945089  2.110814
  N     9.507458  7.088511  1.637876
  N     9.927473 10.353802  1.880727
  N     7.577554  6.196812  0.340205
  N     7.729455  9.945058  0.778768
  N     6.693547  6.451812  4.176324
  N     7.154286 10.281617  4.606828
  S     5.961638  5.957244  2.703291
  S     6.306370  9.889128  3.250776
  S     9.198843  6.626427  0.139937
  S     9.335101 10.227679  0.411663
  S     8.246489  6.956891  4.051583
  S     8.775262 10.553195  4.423297
