16  
    
  C     8.961257  7.057297  2.348557
  C     9.145804 10.837143  2.399790
  C     7.802438  6.704276  1.613877
  C     7.929580 10.406801  1.826082
  N    10.026754  7.349977  1.618240
  N    10.141808 11.030430  1.570873
  N     7.959162  6.812372  0.303929
  N     7.953137 10.319954  0.504808
  N     7.138098  6.627007  4.149632
  N     7.452316 10.562547  4.375987
  S     6.422826  6.484228  2.680154
  S     6.603406 10.471594  2.931642
  S     9.574116  7.245514  0.038085
  S     9.582733 10.706436  0.040845
  S     8.725962  7.129215  4.098314
  S     9.041987 11.040631  4.148080
