16  
    
  C    12.081915  8.515972  3.477265
  C    12.083939 12.368768  3.291718
  C    10.852768  8.123353  2.808248
  C    10.961863 11.710577  2.620802
  N    13.152256  8.735821  2.704187
  N    13.203168 12.400008  2.562984
  N    11.013333  8.098825  1.471684
  N    11.236719 11.391486  1.369214
  N    10.258168  8.340862  5.302886
  N    10.276627 11.952910  5.072846
  S     9.445298  8.060074  3.877764
  S     9.662258 11.299846  3.697352
  S    12.630688  8.408136  1.175257
  S    12.770458 11.802019  1.048222
  S    11.802111  8.777607  5.195337
  S    11.885306 12.437350  4.980210
