16  
    
  C     5.531152  5.519088  1.921699
  C     5.575205  8.928001  1.870423
  C     4.436870  4.734930  1.442566
  C     4.389688  8.465536  1.167170
  N     6.480900  5.779841  1.026961
  N     6.540798  9.276688  1.034917
  N     4.438964  4.561213  0.128969
  N     4.557830  8.237937 -0.130546
  N     4.098627  4.886070  4.004097
  N     3.770999  8.503992  3.680382
  S     3.187503  4.560411  2.678097
  S     3.014355  8.148523  2.148230
  S     5.892529  5.153298 -0.404725
  S     6.126392  8.790164 -0.494643
  S     5.558449  5.625777  3.631653
  S     5.341376  9.124564  3.577359
