16  
    
  C     5.434832  5.454141  1.688263
  C     5.251280  9.020728  1.730305
  C     4.184057  5.168790  0.964963
  C     4.171128  8.443035  1.004127
  N     6.464076  5.744360  0.897809
  N     6.339178  9.186867  0.986464
  N     4.367797  4.916534 -0.353023
  N     4.410950  8.310555 -0.297508
  N     3.654115  5.134051  3.444114
  N     3.364063  8.754538  3.383550
  S     2.858897  5.082996  2.036276
  S     2.703163  8.304964  1.896212
  S     5.903590  5.495437 -0.676411
  S     5.950387  8.786517 -0.569211
  S     5.189718  5.680158  3.370619
  S     4.994580  9.024169  3.466152
