16  
    
  C     4.794145  4.925997  2.132771
  C     4.744821  8.773760  1.610170
  C     3.625243  4.653880  1.345780
  C     3.524237  8.318715  0.949828
  N     5.837594  5.117800  1.325816
  N     5.711221  9.148171  0.786398
  N     3.739052  4.589985  0.034622
  N     3.562488  8.394870 -0.377566
  N     2.758831  4.764920  3.694907
  N     3.080464  8.238968  3.446688
  S     2.131134  4.567891  2.198619
  S     2.281168  7.872422  2.040377
  S     5.333530  4.824613 -0.222477
  S     5.124764  8.939913 -0.732057
  S     4.385646  5.142055  3.852325
  S     4.606487  8.849659  3.331826
