16  
    
  C    12.243375  8.894343  3.512838
  C    11.974534 12.439462  3.423908
  C    11.064990  8.463538  2.803445
  C    10.716909 12.300580  2.828884
  N    13.314113  9.194285  2.794441
  N    13.012399 12.500437  2.566919
  N    11.204967  8.340109  1.499902
  N    10.744487 12.130182  1.501926
  N    10.240952  8.634008  5.212145
  N    10.298990 12.093282  5.295683
  S     9.579336  8.355000  3.713477
  S     9.497459 11.861148  3.896669
  S    12.793970  8.845495  1.206403
  S    12.275024 12.264947  1.035215
  S    11.842162  9.134155  5.212813
  S    11.807350 12.546812  5.193492
