16  
    
  C     6.550434  5.829046  1.988821
  C     6.635736  9.398168  1.905688
  C     5.282685  5.392640  1.418881
  C     5.443877  8.862846  1.257471
  N     7.530524  5.926313  1.098562
  N     7.578007  9.653144  0.994667
  N     5.295750  5.214940  0.101001
  N     5.507867  8.727074 -0.054088
  N     4.963170  5.744440  4.003990
  N     4.918626  8.949263  3.790284
  S     4.097732  5.391610  2.611089
  S     4.117561  8.760883  2.348228
  S     6.847141  5.487928 -0.349070
  S     7.011851  9.327021 -0.478322
  S     6.522718  6.071760  3.717383
  S     6.443154  9.670526  3.592427
