16  
    
  C    11.888313  8.624902  3.313641
  C    11.500643 12.345133  3.126902
  C    10.606505  8.119242  2.886391
  C    10.373157 11.738237  2.518804
  N    12.809366  8.824022  2.388986
  N    12.537380 12.632594  2.352904
  N    10.609014  7.904341  1.570253
  N    10.625204 11.426925  1.238253
  N    10.353677  8.610075  5.417106
  N     9.835472 11.991053  5.144200
  S     9.417237  8.041031  4.150820
  S     9.077045 11.341709  3.697857
  S    12.136366  8.280163  1.023534
  S    12.125218 12.014778  0.852722
  S    11.894489  9.096922  4.955580
  S    11.484877 12.390953  4.847788
