16  
    
  C     8.230779  6.565110  2.670066
  C     8.706766 10.508659  2.817396
  C     7.100777  6.076889  1.912368
  C     7.491876 10.069748  2.135856
  N     9.297493  6.818432  1.926097
  N     9.772033 10.666829  2.028420
  N     7.332789  5.937327  0.610624
  N     7.668227  9.778739  0.875719
  N     6.254229  6.316938  4.314127
  N     6.889481 10.343509  4.625525
  S     5.701371  5.848711  2.826928
  S     6.119637  9.954547  3.197348
  S     8.822970  6.484990  0.348739
  S     9.258231 10.122846  0.465089
  S     7.821173  6.817768  4.342293
  S     8.569060 10.542966  4.529168
