16  
    
  C     4.437887  5.085514  1.777920
  C     4.171003  8.663527  1.567823
  C     3.228323  4.787935  1.036614
  C     3.111192  8.082124  0.830000
  N     5.496558  5.181410  0.983899
  N     5.257277  8.985674  0.848314
  N     3.421961  4.385839 -0.237668
  N     3.239922  8.203537 -0.494897
  N     2.705397  4.899628  3.629156
  N     2.283419  8.183342  3.318508
  S     1.859307  4.803072  2.201810
  S     1.707829  7.782016  1.863809
  S     5.046258  4.789298 -0.580529
  S     4.768842  8.789177 -0.773958
  S     4.350217  5.329471  3.455630
  S     3.907660  8.658821  3.313299
