16  
    
  C    11.872452  8.816514  3.401970
  C    11.601000 12.198864  3.254549
  C    10.603743  8.292616  2.918960
  C    10.458736 11.579881  2.577558
  N    12.819306  8.879401  2.466126
  N    12.559936 12.578206  2.424030
  N    10.584459  8.033301  1.622581
  N    10.619591 11.391050  1.268039
  N    10.232755  8.611565  5.392275
  N     9.709218 11.838614  4.976931
  S     9.329173  8.294192  4.048360
  S     9.102561 11.237210  3.593275
  S    12.095033  8.306241  1.041210
  S    12.147850 12.071624  0.904838
  S    11.814528  9.091394  5.084862
  S    11.169668 12.638464  4.955306
