16  
    
  C    10.060542  7.745052  2.662011
  C    10.584860 11.489884  3.049011
  C     9.010092  7.004591  2.032659
  C     9.429290 11.166400  2.210199
  N    11.066642  8.025965  1.841649
  N    11.713512 11.531210  2.374849
  N     9.186583  6.686061  0.744815
  N     9.672917 11.008144  0.930613
  N     8.217480  7.683258  4.451577
  N     8.563492 11.424792  4.633097
  S     7.627269  6.843336  3.112333
  S     7.913402 11.329166  3.101939
  S    10.712021  7.379292  0.341604
  S    11.278563 11.269920  0.726897
  S     9.860278  8.142267  4.318497
  S    10.218379 11.573676  4.749996
