16  
    
  C     6.998397  5.912271  1.799920
  C     7.235861  9.784442  2.488478
  C     5.901336  5.137827  1.268042
  C     5.974822  9.395122  1.859719
  N     7.987368  6.230493  0.977065
  N     8.306699  9.837821  1.698699
  N     6.065989  4.861891 -0.034403
  N     6.129939  9.203398  0.543752
  N     5.226626  5.838399  3.694877
  N     5.531163  9.909305  4.397505
  S     4.586285  4.980373  2.352398
  S     4.695609  9.573579  2.972115
  S     7.532022  5.552678 -0.485590
  S     7.684678  9.379880  0.188868
  S     6.773902  6.430859  3.457758
  S     7.151654 10.145744  4.165112
