16  
    
  C    10.857722  8.184290  2.905970
  C    10.782416 11.896943  3.042350
  C     9.654556  7.782612  2.251135
  C     9.650065 11.369208  2.354726
  N    11.919475  8.345254  2.125862
  N    11.867794 12.015101  2.299939
  N     9.813275  7.614673  0.916607
  N     9.859818 11.245025  1.044882
  N     9.123677  8.012752  4.789748
  N     8.908499 11.733399  4.825478
  S     8.292769  7.633968  3.368730
  S     8.318321 11.160145  3.386119
  S    11.367680  8.022127  0.594726
  S    11.429342 11.606172  0.732979
  S    10.730677  8.399600  4.652218
  S    10.550584 12.237998  4.757287
