16  
    
  C     5.185683  5.058983  2.061288
  C     5.192488  8.616550  1.915356
  C     3.912148  4.980320  1.387893
  C     3.998599  8.332994  1.118167
  N     6.228162  5.061716  1.243440
  N     6.345314  8.523652  1.243148
  N     4.014286  4.688383  0.092968
  N     4.204848  8.244759 -0.196857
  N     3.342687  5.263486  3.833662
  N     3.193739  8.874920  3.452354
  S     2.473930  4.979873  2.411047
  S     2.547236  8.437663  2.015593
  S     5.610624  4.894334 -0.303716
  S     5.885831  8.308489 -0.329132
  S     4.964718  5.333768  3.778958
  S     4.828538  8.761183  3.561884
