16  
    
  C    10.261213  7.702532  2.625599
  C    10.572106 11.381089  2.946478
  C     9.072768  7.146455  2.035714
  C     9.406705 11.264505  2.130488
  N    11.281441  7.833730  1.771723
  N    11.661814 11.384709  2.209173
  N     9.150484  6.821958  0.743741
  N     9.599357 11.116564  0.841625
  N     8.410222  7.704299  4.420845
  N     8.523849 11.447391  4.559508
  S     7.689576  7.028851  3.151726
  S     7.928642 11.397879  3.055384
  S    10.628656  7.337547  0.321479
  S    11.221068 11.222093  0.639900
  S    10.006203  8.077062  4.285093
  S    10.178488 11.596852  4.618621
