16  
    
  C     7.708783  6.696243  2.393030
  C     7.805084 10.086913  2.014055
  C     6.570544  6.135577  1.732674
  C     6.534700  9.887332  1.408896
  N     8.835192  6.646069  1.684282
  N     8.878454  9.997681  1.251400
  N     6.808833  5.878678  0.449164
  N     6.630418  9.730252  0.091977
  N     5.850020  6.635572  4.236952
  N     6.142738 10.266874  3.969807
  S     5.092406  6.119053  2.825353
  S     5.227656  9.924626  2.614585
  S     8.389521  6.145032  0.161862
  S     8.299766  9.859265 -0.277938
  S     7.494676  7.047955  4.135567
  S     7.749129 10.524626  3.721034
