16  
    
  C     6.436033  5.748895  2.067791
  C     6.093092  9.238091  1.794935
  C     5.205454  5.381579  1.379748
  C     4.874355  8.828130  1.162664
  N     7.447285  5.906261  1.222610
  N     7.120586  9.286715  0.936204
  N     5.352978  5.134471  0.074684
  N     4.978435  8.624564 -0.133976
  N     4.667373  5.672046  3.902087
  N     4.330240  8.851297  3.648091
  S     3.874665  5.201955  2.516563
  S     3.567967  8.559516  2.170762
  S     6.927758  5.464626 -0.277790
  S     6.567875  8.939308 -0.533088
  S     6.275105  6.142866  3.733097
  S     5.952747  9.384236  3.546029
