16  
    
  C    10.513782  7.273302  2.844220
  C    10.281292 11.071840  2.816668
  C     9.252947  7.481038  2.210364
  C     9.001873 10.826361  2.154796
  N    11.502073  7.025565  1.979414
  N    11.304252 11.165882  1.979654
  N     9.263968  7.445335  0.867149
  N     9.040216 10.717997  0.826387
  N     8.668725  7.426164  4.637297
  N     8.478073 11.014006  4.658427
  S     7.854156  7.315227  3.234868
  S     7.684270 10.654623  3.277965
  S    10.847068  7.134487  0.426458
  S    10.655809 10.899604  0.415681
  S    10.298467  7.241331  4.563848
  S    10.147501 11.137091  4.534458
