16  
    
  C     4.303073  4.996877  1.131474
  C     4.349136  8.484729  1.432993
  C     3.013523  4.818649  0.464996
  C     3.278651  7.894916  0.736454
  N     5.348889  5.076594  0.324307
  N     5.430983  8.669297  0.686339
  N     3.174517  4.507310 -0.821274
  N     3.392178  7.816089 -0.578994
  N     2.731481  4.734141  3.090355
  N     2.448290  8.261826  3.123420
  S     1.742464  4.697183  1.743861
  S     1.852754  7.674398  1.676097
  S     4.758176  4.827068 -1.156859
  S     4.935096  8.346018 -0.847817
  S     4.343017  5.215901  2.827239
  S     4.138873  8.360757  3.141701
