16  
    
  C    12.436470  9.185060  3.438850
  C    12.512153 12.612359  3.445925
  C    11.139891  8.749901  2.960791
  C    11.299590 12.172863  2.838210
  N    13.448714  9.018157  2.567707
  N    13.437400 12.849625  2.546991
  N    11.162418  8.356080  1.679821
  N    11.298236 11.932721  1.541164
  N    10.725110  9.248760  5.338776
  N    10.675790 12.470429  5.312475
  S     9.879396  8.651271  4.098712
  S     9.963047 11.997031  3.902521
  S    12.695255  8.485826  1.127428
  S    12.806606 12.281063  1.042654
  S    12.330519  9.517971  5.200528
  S    12.130912 13.169828  5.057182
