16  
    
  C    12.080402  8.561204  3.279411
  C    12.143112 12.115585  3.228848
  C    10.792771  8.297444  2.757498
  C    10.912203 11.704649  2.629927
  N    13.003970  8.719604  2.342755
  N    13.160731 12.294196  2.364023
  N    10.757273  8.238606  1.425270
  N    10.960105 11.358507  1.344244
  N    10.357284  8.457779  5.306106
  N    10.277581 11.964030  5.062040
  S     9.494755  8.081275  3.900125
  S     9.573178 11.566869  3.625269
  S    12.295586  8.336763  0.899438
  S    12.467048 11.949347  0.887916
  S    12.003721  8.696781  5.037306
  S    11.861390 12.379377  4.982854
