16  
    
  C    12.005258  8.623950  3.408657
  C    11.830383 12.073341  3.198244
  C    10.757144  8.051796  2.905695
  C    10.547275 11.722358  2.640329
  N    12.886522  8.850863  2.444801
  N    12.814110 12.181604  2.300209
  N    10.724549  7.778364  1.589796
  N    10.568994 11.604049  1.318386
  N    10.285992  8.506060  5.442955
  N     9.972873 11.928721  5.156634
  S     9.510038  7.926780  4.098925
  S     9.158932 11.498435  3.669963
  S    12.210875  8.274914  1.033842
  S    11.993266 12.037311  0.791257
  S    11.880052  9.011257  5.106555
  S    11.607633 12.360373  4.895169
