16  
    
  C    11.818938  8.547417  3.435986
  C    11.612324 12.048440  3.391693
  C    10.568716  8.284016  2.732178
  C    10.402783 11.629934  2.740091
  N    12.879711  8.687809  2.680792
  N    12.715944 12.082733  2.641697
  N    10.753667  8.164955  1.432963
  N    10.505524 11.545523  1.400730
  N     9.958944  8.411188  5.230155
  N     9.873427 11.591193  5.222935
  S     9.178028  8.251835  3.743590
  S     9.019576 11.349989  3.842461
  S    12.405701  8.361231  1.120108
  S    12.199656 11.836873  1.125321
  S    11.595523  8.741099  5.088555
  S    11.441700 11.939186  5.081668
