16  
    
  C    11.030467  8.049116  3.122450
  C    11.521832 11.781416  3.170236
  C     9.805363  7.426955  2.607399
  C    10.379563 11.352070  2.413924
  N    11.943911  8.255247  2.167285
  N    12.628694 11.705631  2.437806
  N     9.802042  7.144800  1.298665
  N    10.557423 11.156235  1.116214
  N     9.391388  8.044040  5.038443
  N     9.614355 11.457578  4.874363
  S     8.610592  7.331472  3.846557
  S     8.972775 11.182562  3.378202
  S    11.300186  7.605245  0.763980
  S    12.198511 11.473077  0.889544
  S    10.973942  8.456465  4.794461
  S    11.200621 11.943477  4.898963
