16  
    
  C     9.439206  7.024929  2.949784
  C     9.566805 10.833947  2.593307
  C     8.319095  6.466093  2.258286
  C     8.404148 10.337994  1.980960
  N    10.431395  7.521591  2.240613
  N    10.554833 11.109979  1.790456
  N     8.466799  6.519573  0.941845
  N     8.427335 10.350564  0.659079
  N     7.702695  6.407448  4.774595
  N     7.956067 10.368146  4.501627
  S     6.985875  6.009694  3.319221
  S     7.110187 10.019102  3.115045
  S     9.943942  7.179533  0.690503
  S     9.938623 10.819269  0.246012
  S     9.286975  6.974403  4.665455
  S     9.524055 10.896596  4.347089
