16  
    
  C    10.990629  7.720423  3.185897
  C    11.361857 11.876752  2.949528
  C     9.792088  7.486151  2.323700
  C    10.268324 11.106567  2.421814
  N    12.116283  7.871749  2.502957
  N    12.387732 11.985859  2.140824
  N    10.032522  7.442772  1.005916
  N    10.397902 10.759583  1.154095
  N     9.023395  7.582524  4.774231
  N     9.844440 11.495179  4.978420
  S     8.318571  7.461457  3.253090
  S     9.060651 10.918722  3.593973
  S    11.700676  7.594806  0.885239
  S    11.892357 11.420427  0.657328
  S    10.617697  7.828995  4.861313
  S    11.304588 12.341366  4.627128
