16  
    
  C     7.822470  6.433631  2.363105
  C     7.929728 10.521461  2.029368
  C     6.687020  5.890109  1.596001
  C     6.679576  9.879665  1.582920
  N     8.918361  6.622225  1.656072
  N     8.845732 10.686919  1.104868
  N     6.920213  5.844313  0.298798
  N     6.754018  9.521892  0.315711
  N     5.923083  6.369949  4.080174
  N     6.480227 10.271332  4.111947
  S     5.293199  5.825633  2.601317
  S     5.512235  9.831018  2.853323
  S     8.496104  6.340042  0.090116
  S     8.306141 10.070711 -0.248293
  S     7.512410  6.606939  4.018775
  S     8.033323 10.733670  3.722691
