16  
    
  C    11.798684  8.572227  3.534673
  C    11.735084 11.938474  3.357256
  C    10.597204  8.205469  2.823987
  C    10.474285 11.641492  2.683252
  N    12.816475  8.798039  2.717283
  N    12.820377 11.911447  2.570573
  N    10.740284  8.043416  1.511274
  N    10.551120 11.632035  1.359532
  N     9.879923  8.578988  5.243316
  N     9.748090 11.833638  5.099061
  S     9.197518  8.276833  3.767219
  S     9.038843 11.473445  3.632439
  S    12.343312  8.468724  1.158353
  S    12.192087 11.897456  1.005438
  S    11.571980  8.863756  5.236899
  S    11.355509 11.976462  5.107432
