16  
    
  C    10.496364  7.252117  2.824478
  C    10.284181 11.073394  2.795561
  C     9.213110  7.442569  2.157913
  C     8.988024 10.850690  2.145076
  N    11.528701  7.083936  2.003569
  N    11.265792 11.118170  1.916980
  N     9.294733  7.474214  0.807667
  N     9.053605 10.716868  0.835882
  N     8.717387  7.362546  4.749486
  N     8.503691 11.049257  4.683285
  S     7.906409  7.497132  3.274600
  S     7.712549 10.633453  3.244392
  S    10.850037  7.128771  0.476462
  S    10.622894 10.897142  0.431346
  S    10.393559  7.212078  4.540576
  S    10.132525 11.264443  4.510024
