16  
    
  C    12.528812  8.971970  3.401463
  C    12.244487 12.873660  3.648294
  C    11.345366  8.408466  2.788473
  C    11.124642 12.183372  3.047093
  N    13.599933  9.193580  2.639619
  N    13.165280 13.232470  2.780992
  N    11.485797  8.273593  1.456110
  N    11.258996 12.001736  1.723013
  N    10.806714  8.700708  5.383581
  N    10.614863 12.401161  5.609978
  S     9.977659  8.239377  3.898167
  S     9.816046 11.776583  4.240436
  S    13.099364  8.859140  1.115632
  S    12.741299 12.599671  1.301783
  S    12.487541  9.063920  5.156159
  S    12.100249 13.147782  5.331901
