16  
    
  C     9.088690  7.145173  2.543331
  C     8.826998 11.123348  2.325863
  C     7.831054  6.648481  2.023551
  C     7.689750 10.454945  1.702659
  N    10.062917  7.330630  1.652584
  N     9.804109 11.413431  1.473054
  N     7.947420  6.201805  0.760180
  N     7.872998 10.127947  0.449442
  N     7.488991  7.019263  4.584672
  N     7.217025 10.567643  4.242388
  S     6.721529  6.301325  3.336506
  S     6.416040 10.146053  2.849701
  S     9.477580  6.638626  0.229005
  S     9.314653 10.807365  0.023321
  S     9.113296  7.400038  4.291229
  S     8.697747 11.279110  4.060144
