16  
    
  C     7.607110  6.637775  2.324995
  C     7.734600 10.083104  2.245772
  C     6.390626  6.098880  1.860728
  C     6.528023  9.790323  1.520029
  N     8.619600  6.633026  1.449212
  N     8.829366 10.191780  1.469301
  N     6.426456  5.801640  0.542735
  N     6.697995  9.590670  0.214714
  N     5.940134  6.688621  4.369292
  N     5.846154 10.005208  4.041245
  S     5.109540  6.184663  3.068367
  S     5.086484  9.854486  2.559932
  S     7.945646  6.056064  0.053803
  S     8.358965  9.761094 -0.047416
  S     7.603015  6.946623  4.028414
  S     7.507429 10.193612  3.929900
