16  
    
  C     9.678078  7.576823  2.805758
  C     9.881570 11.203048  2.744961
  C     8.554803  7.032571  2.114174
  C     8.659987 10.819823  2.160729
  N    10.802280  7.806849  2.116172
  N    10.943156 11.324484  1.942929
  N     8.840289  6.871470  0.821485
  N     8.730129 10.699352  0.822203
  N     7.837731  7.532210  4.542669
  N     8.182309 11.151834  4.609291
  S     7.211156  6.754590  3.199041
  S     7.331435 10.875674  3.247819
  S    10.401629  7.443046  0.580585
  S    10.297403 10.991955  0.394609
  S     9.425166  7.929394  4.505002
  S     9.851369 11.197213  4.487676
