16  
    
  C     7.867583  6.240052  2.160408
  C     8.077331 10.426647  2.186710
  C     6.657948  5.775887  1.506088
  C     6.917493  9.814676  1.552161
  N     8.863959  6.588901  1.350669
  N     9.088121 10.776142  1.391689
  N     6.787726  5.817820  0.183971
  N     7.105591  9.605083  0.232140
  N     6.251442  5.729519  4.067094
  N     6.274814 10.128401  4.046170
  S     5.318696  5.486657  2.639657
  S     5.528323  9.696456  2.620233
  S     8.264240  6.310498 -0.170257
  S     8.605790 10.127117 -0.146642
  S     7.826519  6.303807  3.873587
  S     7.904025 10.623027  3.915916
