16  
    
  C     9.801039  7.668924  2.851807
  C     9.879379 11.115639  2.800243
  C     8.663965  7.181443  2.140117
  C     8.640595 10.905221  2.186727
  N    10.875231  7.954667  2.108210
  N    10.924722 11.282456  1.986058
  N     8.847167  7.013647  0.829625
  N     8.707065 10.697565  0.858609
  N     7.816330  7.607614  4.530153
  N     8.125080 10.887482  4.745758
  S     7.284010  6.881186  3.090041
  S     7.290076 10.906456  3.281001
  S    10.405829  7.504641  0.539681
  S    10.313251 10.989319  0.451859
  S     9.503971  7.825295  4.603487
  S     9.752291 11.261592  4.544144
