16  
    
  C     9.288977  6.628291  2.414312
  C     9.291506 10.596745  2.882183
  C     8.077148  6.335683  1.707479
  C     8.025397 10.444758  2.199409
  N    10.398026  6.571655  1.701154
  N    10.344809 10.318791  2.132604
  N     8.275688  6.005016  0.438259
  N     8.118632 10.044668  0.949450
  N     7.377527  6.939919  4.068339
  N     7.423820 10.719776  4.650959
  S     6.678704  6.191513  2.767471
  S     6.639273 10.776381  3.184223
  S     9.920518  6.193425  0.193619
  S     9.780207  9.962992  0.659431
  S     9.024647  7.130187  4.003239
  S     9.085968 11.091635  4.517355
