16  
    
  C     6.707175  5.818062  2.218357
  C     6.775791  9.736219  2.306462
  C     5.395448  5.423778  1.692709
  C     5.490647  9.272176  1.741396
  N     7.651612  6.101236  1.304688
  N     7.708797  9.974568  1.402503
  N     5.439898  5.330215  0.370504
  N     5.530845  9.190472  0.409499
  N     5.106522  5.514334  4.262932
  N     5.178184  9.524774  4.265166
  S     4.151283  5.140954  2.952072
  S     4.239573  9.092302  2.963975
  S     6.967309  5.739997 -0.172745
  S     7.127173  9.563144 -0.039086
  S     6.748885  6.009633  3.967002
  S     6.746810  9.910280  4.012805
