16  
    
  C     6.877519  5.644473  1.768394
  C     7.233726 10.022693  2.460425
  C     5.769961  5.093947  1.082296
  C     6.031516  9.473967  1.930339
  N     7.971811  5.758879  1.012589
  N     8.187436 10.142091  1.559414
  N     6.017471  4.729444 -0.166872
  N     6.013166  9.259089  0.616935
  N     4.728087  5.963290  3.267051
  N     5.569168  9.696182  4.429424
  S     4.278888  5.066835  1.967006
  S     4.679968  9.378566  3.068704
  S     7.587654  5.124456 -0.454958
  S     7.608002  9.675352  0.123821
  S     6.416932  6.225099  3.273095
  S     7.169714 10.263432  4.167806
