16  
    
  C     5.055194  5.096151  1.814670
  C     5.109276  8.612304  1.904009
  C     3.719792  4.843964  1.279373
  C     3.849745  8.372381  1.254067
  N     6.049985  5.074091  0.934518
  N     6.182593  8.662453  1.092029
  N     3.745052  4.863268 -0.068525
  N     3.926769  7.994774 -0.019053
  N     3.549119  4.674379  3.879042
  N     3.272255  8.713509  3.720770
  S     2.492344  4.830536  2.555694
  S     2.475621  8.416654  2.273913
  S     5.316338  5.047430 -0.529402
  S     5.564044  8.172612 -0.407084
  S     5.177289  5.011922  3.523161
  S     4.936340  9.048787  3.573200
