16  
    
  C     4.218858  4.865919  1.621751
  C     4.094842  8.316320  1.501521
  C     2.970763  4.551146  1.028689
  C     2.914776  7.927613  0.820522
  N     5.242145  4.817074  0.765678
  N     5.136596  8.592765  0.708013
  N     3.001258  4.371240 -0.277766
  N     3.046743  7.649860 -0.473856
  N     2.369361  4.686371  3.405380
  N     2.232717  8.347606  3.233626
  S     1.610085  4.388846  2.031811
  S     1.473366  7.952838  1.838317
  S     4.531923  4.449240 -0.737289
  S     4.623572  8.080113 -0.847656
  S     4.016712  5.005906  3.349694
  S     3.915045  8.646016  3.189385
