16  
    
  C    12.760115  8.963634  3.805484
  C    12.554436 12.788048  3.997772
  C    11.555245  8.448384  3.236160
  C    11.524351 12.132559  3.254000
  N    13.741744  9.238701  2.912174
  N    13.617355 13.062851  3.223041
  N    11.613401  8.167635  1.942051
  N    11.692729 12.080555  1.937099
  N    11.014543  8.570371  5.721914
  N    10.650636 12.283551  5.634003
  S    10.201267  8.122852  4.295022
  S    10.011560 11.881765  4.144401
  S    13.094931  8.782817  1.428157
  S    13.224837 12.526522  1.673222
  S    12.576754  9.028665  5.645913
  S    12.286980 12.874775  5.698226
