16  
    
  C     6.888822  5.886629  2.102199
  C     7.265259  9.895323  2.391630
  C     5.833689  5.338702  1.284336
  C     5.995070  9.531597  1.759633
  N     8.109464  5.826352  1.526672
  N     8.273373 10.082908  1.531390
  N     6.239261  5.096785  0.046398
  N     6.105447  9.351177  0.456016
  N     4.683121  5.757260  3.470111
  N     5.415491  9.658370  4.228741
  S     4.265157  5.284627  1.971953
  S     4.647018  9.305867  2.811924
  S     7.867653  5.335680 -0.037543
  S     7.637610  9.759144 -0.008182
  S     6.326869  6.134151  3.757061
  S     7.088810 10.060433  4.116348
