16  
    
  C    11.013696  8.204406  2.944721
  C    10.927690 11.544348  2.923673
  C     9.921554  7.424394  2.534680
  C     9.688444 11.071305  2.318634
  N    11.899372  8.496645  1.989606
  N    11.918839 11.832583  2.040064
  N     9.958254  7.104078  1.245942
  N     9.710457 11.181780  0.981266
  N     9.546928  7.934264  5.065462
  N     9.114584 11.298928  4.852551
  S     8.775678  7.130234  3.766786
  S     8.346199 10.894361  3.412659
  S    11.261520  7.910263  0.603122
  S    11.212086 11.609259  0.558114
  S    10.951729  8.695747  4.601461
  S    10.724067 11.747164  4.632295
