16  
    
  C     8.205779  6.606069  2.522815
  C     8.554563 10.147811  2.351914
  C     6.959047  6.232713  1.842529
  C     7.258672  9.711067  1.840270
  N     9.250092  6.785373  1.714494
  N     9.511692 10.288240  1.414977
  N     7.119837  6.051229  0.541269
  N     7.200527  9.494587  0.541809
  N     6.301179  6.317832  4.328247
  N     6.868560 10.337048  4.348727
  S     5.577869  5.931709  2.825575
  S     6.020855  9.785970  3.037596
  S     8.647996  6.410895  0.133990
  S     8.690142  9.916365 -0.077501
  S     7.943264  6.757986  4.305736
  S     8.519239 10.498970  4.096613
