16  
    
  C     9.095792  7.199905  2.275680
  C     9.055317 10.662629  2.360073
  C     7.916750  6.605816  1.712965
  C     7.857959 10.155575  1.777342
  N    10.076869  7.177897  1.361534
  N    10.024009 10.750515  1.453505
  N     7.944133  6.330503  0.407484
  N     7.910112  9.884470  0.477676
  N     7.332724  6.737212  4.174884
  N     7.186884 10.625151  4.238359
  S     6.595501  6.343439  2.757835
  S     6.459503 10.077340  2.811612
  S     9.482316  6.655284 -0.083386
  S     9.446365 10.357558  0.008232
  S     8.931708  7.214409  4.081816
  S     8.806067 10.899255  4.091433
