16  
    
  C    10.743065  8.353283  2.943334
  C    10.750803 11.947409  3.057977
  C     9.519913  7.872828  2.304590
  C     9.648642 11.428440  2.356615
  N    11.780704  8.456970  2.101440
  N    11.869063 12.002675  2.329579
  N     9.688007  7.584649  0.979476
  N     9.875228 11.258129  1.042256
  N     8.964735  8.084706  4.844747
  N     8.838750 11.802719  4.771151
  S     8.222722  7.688604  3.389060
  S     8.226786 11.249333  3.333044
  S    11.205195  8.024912  0.620786
  S    11.452426 11.480140  0.806114
  S    10.599239  8.430786  4.697015
  S    10.497328 12.125216  4.730166
