16  
    
  C     5.630789  5.298517  1.946167
  C     5.662966  8.958509  1.926755
  C     4.537026  4.585144  1.435497
  C     4.445978  8.504291  1.301013
  N     6.553573  5.632993  1.055953
  N     6.654757  9.278471  1.088206
  N     4.548735  4.418225  0.116352
  N     4.533343  8.455240 -0.023182
  N     3.937202  5.043543  3.955513
  N     3.928357  8.608695  3.870209
  S     3.302574  4.245349  2.614603
  S     3.186596  8.009864  2.443768
  S     6.012163  5.005303 -0.354300
  S     6.030088  8.929210 -0.422222
  S     5.472439  5.659642  3.607967
  S     5.543752  9.151942  3.671886
