16  
    
  C    11.361101  8.522622  3.364839
  C    11.356454 12.401790  3.295124
  C    10.175101  7.898804  2.765693
  C    10.231224 11.671005  2.761812
  N    12.441392  8.637405  2.591125
  N    12.388479 12.528687  2.515541
  N    10.372058  7.522601  1.488856
  N    10.381523 11.325965  1.490765
  N     9.512300  8.475666  5.121346
  N     9.678369 12.476361  5.151714
  S     8.807155  7.761747  3.835796
  S     8.942321 11.689694  3.893547
  S    11.956326  8.029277  1.105636
  S    11.952919 11.747158  1.055587
  S    11.087168  9.014821  4.994629
  S    11.303976 12.747648  4.982795
