16  
    
  C     8.532540  6.552967  2.379013
  C     8.418727 10.295351  2.405728
  C     7.307638  6.234060  1.785247
  C     7.203463  9.899949  1.779731
  N     9.487955  6.898477  1.515068
  N     9.459680 10.406806  1.579522
  N     7.327274  6.059656  0.459534
  N     7.236519  9.680143  0.455847
  N     6.834930  6.185395  4.364742
  N     6.593690 10.147348  4.281915
  S     6.055378  5.935759  2.917760
  S     5.903002  9.547042  2.891818
  S     8.788171  6.536878 -0.017944
  S     8.821099  9.848827  0.045074
  S     8.360679  6.767909  4.139526
  S     8.229906 10.551578  4.141389
