16  
    
  C     4.385022  5.077155  1.354629
  C     4.255625  8.500373  1.655120
  C     3.132528  4.624751  0.771243
  C     3.094817  8.229961  0.804125
  N     5.401614  5.071301  0.502064
  N     5.329739  8.856419  0.969735
  N     3.160315  4.462082 -0.543156
  N     3.354626  8.203598 -0.500465
  N     2.777461  5.013763  3.234985
  N     2.349144  7.749646  3.180307
  S     1.829813  4.639447  1.917409
  S     1.696769  7.759442  1.658132
  S     4.756159  4.894949 -1.034389
  S     4.897033  8.702477 -0.644575
  S     4.452893  5.111893  3.065741
  S     3.817816  8.546009  3.304229
