16  
    
  C    11.943870  8.464625  3.323496
  C    11.581163 11.968031  3.510925
  C    10.658403  8.299964  2.660872
  C    10.449453 11.400692  2.860339
  N    13.006316  8.583060  2.489446
  N    12.511577 12.374413  2.659935
  N    10.785736  8.208716  1.319213
  N    10.490468 11.361102  1.548434
  N    10.047236  8.236584  5.184611
  N     9.748759 11.670596  5.310678
  S     9.280216  8.198858  3.698621
  S     9.078527 11.247281  3.847681
  S    12.342174  8.448537  0.951984
  S    11.991779 11.936252  1.166883
  S    11.692502  8.518021  5.034174
  S    11.386202 12.041780  5.284019
