16  
    
  C     8.479863  6.623461  2.419505
  C     8.419608 10.319353  2.359379
  C     7.204585  6.189148  1.773526
  C     7.126673  9.927279  1.753136
  N     9.454343  6.853532  1.559907
  N     9.438181 10.317491  1.494048
  N     7.260229  6.076442  0.452412
  N     7.196968  9.693661  0.453353
  N     6.797588  6.188073  4.312983
  N     6.671411 10.147308  4.315876
  S     5.948165  5.920326  2.931756
  S     5.921552  9.584062  2.932883
  S     8.833841  6.547662 -0.015273
  S     8.821616  9.827805  0.001883
  S     8.343123  6.775771  4.142730
  S     8.284447 10.545063  4.121055
