16  
    
  C     4.947299  4.748971  1.660268
  C     4.754731  8.832422  1.723390
  C     3.579112  4.535098  1.209162
  C     3.518642  8.382840  1.252063
  N     5.846717  4.922828  0.697777
  N     5.649408  9.068902  0.765569
  N     3.492635  4.532872 -0.109256
  N     3.432645  8.319577 -0.073964
  N     3.440927  4.501004  3.800826
  N     3.201326  8.626401  3.839737
  S     2.390020  4.435477  2.482382
  S     2.291127  8.277785  2.516026
  S     5.053349  4.774640 -0.762705
  S     4.886316  8.809562 -0.653389
  S     5.069128  4.853143  3.400076
  S     4.795776  8.889363  3.498030
