16  
    
  C    11.989516  8.836530  3.439089
  C    11.815612 12.200749  3.227390
  C    10.790833  8.497130  2.718329
  C    10.504944 11.927735  2.712332
  N    13.095236  8.969746  2.676716
  N    12.793266 12.449591  2.375399
  N    11.021560  8.505395  1.405164
  N    10.520585 11.716129  1.410561
  N    10.285603  8.536777  5.202755
  N    10.281201 12.098657  5.307694
  S     9.405417  8.284523  3.802851
  S     9.360883 11.889370  4.013388
  S    12.625718  8.663265  1.157286
  S    12.099266 12.259251  0.915753
  S    11.844277  8.798330  5.112498
  S    11.900185 12.188075  4.979099
