16  
    
  C     9.520683  7.556653  2.560724
  C    10.161395 11.403805  2.555803
  C     8.437554  6.751787  2.066678
  C     8.919610 10.913603  1.985413
  N    10.541947  7.888291  1.743927
  N    11.190224 11.456235  1.706661
  N     8.662510  6.368842  0.808128
  N     8.996638 10.741045  0.659970
  N     7.825356  7.454856  4.493194
  N     8.570076 11.096729  4.509749
  S     7.162260  6.554558  3.275310
  S     7.699076 10.717457  3.157107
  S    10.187006  6.996801  0.373962
  S    10.568650 11.037718  0.196344
  S     9.405426  7.921986  4.262121
  S    10.101892 11.598808  4.277992
