16  
    
  C     6.572211  5.863550  2.119912
  C     6.289600  9.185444  1.955242
  C     5.471005  5.226478  1.408242
  C     5.113904  8.723580  1.186102
  N     7.620505  6.131855  1.354747
  N     7.343679  9.451826  1.189479
  N     5.621623  5.105459  0.089480
  N     5.316741  8.596093 -0.117281
  N     4.732784  5.463490  3.913518
  N     4.479179  8.950974  3.649593
  S     4.117225  5.123295  2.456292
  S     3.715379  8.576826  2.205224
  S     7.190113  5.648618 -0.157609
  S     6.853285  9.158499 -0.374394
  S     6.341942  6.052425  3.820107
  S     6.051587  9.399621  3.650904
