16  
    
  C    11.305800  8.164588  3.265449
  C    11.450894 11.698172  3.288508
  C    10.015708  7.823763  2.675016
  C    10.148030 11.379672  2.755072
  N    12.321557  8.073843  2.408346
  N    12.416543 11.759927  2.372426
  N    10.156231  7.557680  1.374935
  N    10.085808 11.365512  1.421638
  N     9.518722  8.280755  5.076396
  N     9.725713 12.031105  5.219705
  S     8.677474  7.639076  3.770027
  S     8.803843 11.705807  3.869109
  S    11.719229  7.739877  0.928232
  S    11.636690 11.460109  0.929218
  S    11.108274  8.473365  4.962555
  S    11.384438 12.012500  4.992041
