16  
    
  C     5.333740  5.435299  1.730826
  C     5.129473  8.930640  1.273786
  C     4.005367  5.048615  1.239917
  C     3.873413  8.486767  0.736099
  N     6.212375  5.455046  0.728164
  N     6.171823  8.957023  0.444766
  N     3.909233  4.854690 -0.058359
  N     3.909338  8.164140 -0.556008
  N     3.693448  5.412801  3.790882
  N     3.486156  8.942736  3.293449
  S     2.779837  5.165892  2.462894
  S     2.675857  8.273953  1.999095
  S     5.445376  4.972487 -0.640600
  S     5.539480  8.414075 -1.004131
  S     5.293690  5.951917  3.420756
  S     5.051671  9.329602  2.973643
