16  
    
  C     5.351369  5.545241  1.648600
  C     5.276560  8.985581  1.777450
  C     4.213401  5.100720  0.928294
  C     4.110706  8.615697  1.005808
  N     6.428628  5.737951  0.925866
  N     6.357038  9.210492  1.034835
  N     4.407866  5.061028 -0.389574
  N     4.284974  8.411260 -0.288774
  N     3.559435  5.179838  3.440893
  N     3.327481  8.761235  3.428933
  S     2.791343  5.084707  1.979426
  S     2.744091  8.237365  1.968984
  S     6.035513  5.425235 -0.635963
  S     5.894823  8.840513 -0.520861
  S     5.147159  5.699219  3.387226
  S     4.980887  8.920757  3.481420
