16  
    
  C    11.056322  8.275405  2.952044
  C    10.804188 11.934740  3.018528
  C     9.847880  7.698639  2.342184
  C     9.667129 11.315144  2.376997
  N    12.025238  8.459277  2.082304
  N    11.819880 12.171781  2.202177
  N     9.957260  7.474034  1.052933
  N     9.776540 11.100221  1.075178
  N     9.369821  7.814436  4.923837
  N     9.043249 11.582129  4.895622
  S     8.582222  7.431445  3.487986
  S     8.359067 11.025314  3.472992
  S    11.512290  7.951520  0.571613
  S    11.331180 11.661792  0.700786
  S    10.945440  8.540509  4.652969
  S    10.613293 12.064273  4.833361
