16  
    
  C    10.963946  7.722981  3.119863
  C    11.390427 11.758064  2.900302
  C     9.762265  7.591979  2.393505
  C    10.209354 11.073270  2.422017
  N    12.133983  7.709249  2.437276
  N    12.308367 12.010162  1.963672
  N     9.926338  7.499728  1.045554
  N    10.202237 10.888342  1.107442
  N     9.054928  7.566492  4.908693
  N     9.548249 11.774849  4.823799
  S     8.376103  7.322935  3.395567
  S     8.908725 10.897083  3.515785
  S    11.589031  7.657644  0.825847
  S    11.703594 11.373520  0.524248
  S    10.706427  7.659934  4.881436
  S    11.180883 12.192040  4.552774
