16  
    
  C     4.958143  4.893207  1.781800
  C     4.688712  8.844440  1.725202
  C     3.639185  4.583545  1.258986
  C     3.403037  8.512737  1.197805
  N     5.890247  4.887884  0.811435
  N     5.593686  9.247521  0.852365
  N     3.560917  4.448756 -0.062232
  N     3.335379  8.439076 -0.123053
  N     3.281267  4.464363  3.733244
  N     3.187996  8.504251  3.776454
  S     2.368062  4.450189  2.365926
  S     2.195163  8.187006  2.418865
  S     5.042645  4.740374 -0.619936
  S     4.886631  8.948645 -0.642543
  S     4.842341  4.895402  3.566233
  S     4.799834  8.848872  3.467054
