16  
    
  C    11.897349  8.611821  3.314120
  C    11.491920 12.328795  3.122229
  C    10.620933  8.119193  2.875077
  C    10.379946 11.701588  2.527894
  N    12.818527  8.816314  2.400068
  N    12.537281 12.617899  2.353698
  N    10.612808  7.878977  1.566519
  N    10.614933 11.461734  1.209739
  N    10.345156  8.608219  5.403738
  N     9.842876 12.004926  5.153042
  S     9.418940  8.027289  4.155115
  S     9.092912 11.356850  3.694320
  S    12.135279  8.287947  1.022903
  S    12.119414 12.006079  0.850101
  S    11.902233  9.097019  4.962095
  S    11.499384 12.383992  4.860653
