16  
    
  C     7.011003  5.918837  1.731397
  C     7.325272  9.863619  2.497316
  C     5.905305  5.192643  1.217808
  C     6.064649  9.509328  1.926240
  N     7.914913  6.195238  0.798707
  N     8.292393  9.818634  1.589187
  N     6.054350  4.739557 -0.031313
  N     6.031107  9.172454  0.656254
  N     5.183993  5.801876  3.603867
  N     5.507767  9.894662  4.365496
  S     4.581997  4.998214  2.351515
  S     4.682954  9.549907  3.019725
  S     7.416891  5.453322 -0.597832
  S     7.658804  9.403105  0.155060
  S     6.694414  6.398446  3.365494
  S     7.144888 10.222345  4.192193
