16  
    
  C     5.389401  5.407878  1.766770
  C     5.069705  8.963884  1.702388
  C     4.153766  5.125523  1.103606
  C     3.876062  8.549734  1.064277
  N     6.482830  5.425922  0.996051
  N     6.049037  9.280401  0.852439
  N     4.245976  4.946483 -0.210973
  N     4.002935  8.335501 -0.235870
  N     3.603831  5.403671  3.664779
  N     3.364306  8.721036  3.586906
  S     2.826148  5.230649  2.210538
  S     2.551815  8.329319  2.173451
  S     5.851184  5.274958 -0.565261
  S     5.556817  8.847382 -0.674135
  S     5.303231  5.481864  3.479730
  S     5.013800  8.893469  3.470294
