16  
    
  C     6.752558  5.889360  2.374793
  C     6.983283  9.730883  2.340678
  C     5.547801  5.303362  1.843299
  C     5.733180  9.294462  1.764568
  N     7.521543  6.350601  1.394000
  N     7.926127  9.943120  1.438434
  N     5.486069  5.166587  0.520864
  N     5.708820  9.223311  0.438427
  N     5.199833  5.515128  4.392743
  N     5.133209  9.731272  4.164890
  S     4.371624  4.887786  3.042181
  S     4.423616  9.180440  2.848324
  S     6.831142  5.935426 -0.068435
  S     7.249518  9.729388 -0.063727
  S     6.780967  6.058114  4.121526
  S     6.781323  9.909103  4.093639
