16  
    
  C     9.301571  6.805081  2.366541
  C     9.442570 10.560328  2.754634
  C     8.137831  6.311022  1.694395
  C     8.186906 10.332648  2.162796
  N    10.402826  6.863998  1.618188
  N    10.522561 10.397936  2.031536
  N     8.303893  6.083441  0.399207
  N     8.303834 10.004574  0.873902
  N     7.386676  6.546716  4.101289
  N     7.665978 10.918506  4.578368
  S     6.742581  6.197107  2.645631
  S     6.821395 10.587678  3.212807
  S     9.837470  6.426161  0.092571
  S     9.873411 10.018747  0.536581
  S     9.039472  6.807012  4.119366
  S     9.325994 10.898052  4.479017
