16  
    
  C     8.507824  6.732835  2.324454
  C     8.312390 10.249250  2.617415
  C     7.288718  6.146435  1.760812
  C     7.260209  9.571742  1.872632
  N     9.503963  6.870274  1.455066
  N     9.323367 10.561466  1.841602
  N     7.315103  6.048905  0.422049
  N     7.537741  9.433834  0.571467
  N     6.960828  6.372832  4.350911
  N     6.350262  9.960454  4.234577
  S     6.142933  5.879195  3.028847
  S     5.785826  9.419727  2.783557
  S     8.945682  6.451299 -0.021367
  S     9.073875 10.055497  0.329985
  S     8.526420  6.811568  4.020440
  S     7.873903 10.559237  4.244932
