16  
    
  C     5.723467  5.179487  1.893230
  C     5.669882  9.191914  2.011964
  C     4.636961  4.489650  1.285001
  C     4.519509  8.514499  1.431852
  N     6.783927  5.362729  1.087159
  N     6.548170  9.602980  1.123921
  N     4.806722  4.287604 -0.021858
  N     4.635087  8.272765  0.121303
  N     3.985842  4.697064  3.700923
  N     4.141627  8.719092  3.981082
  S     3.245910  4.321853  2.309205
  S     3.290892  8.217820  2.626478
  S     6.329066  4.765285 -0.368272
  S     6.075737  9.011448 -0.323386
  S     5.456047  5.403430  3.624207
  S     5.635627  9.438098  3.742421
