16  
    
  C     9.863644  7.577524  2.626631
  C     9.858100 11.228197  2.990164
  C     8.609622  7.277443  2.025062
  C     8.750077 10.674237  2.282083
  N    10.879854  7.819505  1.809156
  N    10.878112 11.607906  2.196359
  N     8.689962  7.188887  0.690240
  N     8.995303 10.451966  0.974604
  N     8.143795  7.398237  4.572627
  N     8.066670 10.688707  4.775726
  S     7.285560  7.132255  3.179234
  S     7.380781 10.369049  3.293977
  S    10.267298  7.484758  0.311665
  S    10.465296 11.071250  0.624428
  S     9.804917  7.721084  4.332900
  S     9.578241 11.457319  4.686163
