16  
    
  C     9.083661  6.931539  2.321624
  C     9.056088 11.060030  2.739623
  C     7.839797  6.656958  1.618389
  C     7.817658 10.573731  2.114210
  N    10.185927  7.094079  1.568907
  N    10.086632 11.294607  1.924090
  N     8.063582  6.418207  0.310186
  N     8.008246 10.391488  0.777151
  N     7.330967  6.812876  4.233531
  N     7.339346 10.783145  4.668345
  S     6.538559  6.477647  2.800111
  S     6.587555 10.285918  3.304623
  S     9.676284  6.686831  0.017247
  S     9.544081 10.745013  0.420864
  S     8.935306  7.146794  4.046362
  S     8.895518 11.313583  4.464380
