16  
    
  C     6.008041  5.539857  2.181894
  C     5.947227  9.231439  1.553867
  C     4.679369  5.573150  1.546642
  C     4.725725  8.763275  0.922383
  N     7.015778  5.536755  1.282467
  N     7.024860  9.224136  0.779087
  N     4.724652  5.349338  0.228008
  N     4.904711  8.509833 -0.365928
  N     4.245251  5.815424  4.088846
  N     4.209202  9.015553  3.479342
  S     3.327861  5.731079  2.661431
  S     3.391789  8.783811  2.004612
  S     6.314126  5.295298 -0.216905
  S     6.543455  8.824322 -0.732172
  S     5.983983  5.863650  3.926224
  S     5.810207  9.520416  3.244372
