16  
    
  C     9.889406  7.578488  2.953109
  C    10.564756 11.568160  3.072126
  C     8.813229  7.074485  2.147095
  C     9.382525 11.018902  2.523328
  N    10.939418  7.953650  2.246729
  N    11.548693 11.675777  2.190251
  N     9.014180  7.089549  0.846938
  N     9.459482 10.771668  1.214896
  N     7.907985  7.222513  4.577363
  N     8.914781 11.408334  5.028784
  S     7.349893  6.712218  3.036143
  S     8.083337 10.858306  3.705384
  S    10.577483  7.653474  0.645493
  S    10.943894 11.242050  0.705363
  S     9.514497  7.658989  4.698479
  S    10.500542 11.968009  4.745449
