16  
    
  C     4.006441  4.685271  1.651684
  C     3.947995  8.481969  1.525275
  C     2.746432  4.503198  0.993115
  C     2.831995  7.939207  0.880265
  N     5.099298  4.743743  0.871913
  N     5.067375  8.484024  0.770915
  N     2.892331  4.252652 -0.310815
  N     3.000486  7.712868 -0.436535
  N     2.311277  4.824698  3.587195
  N     2.085641  8.363592  3.357266
  S     1.465286  4.332855  2.230361
  S     1.418450  7.908478  1.889905
  S     4.598650  4.348729 -0.651802
  S     4.596693  8.056615 -0.740103
  S     4.002504  4.987884  3.365006
  S     3.709366  8.663794  3.273898
