16  
    
  C    12.472964  9.221654  3.430834
  C    12.440812 12.708083  3.418442
  C    11.166120  8.742433  2.892350
  C    11.221655 12.159487  2.824392
  N    13.422433  9.049712  2.532804
  N    13.454690 12.813671  2.534316
  N    11.095084  8.371406  1.641992
  N    11.323232 11.921010  1.514421
  N    10.759689  9.276866  5.365237
  N    10.605458 12.440350  5.340930
  S     9.881234  8.636770  4.046483
  S     9.912798 11.985243  3.902278
  S    12.685964  8.512216  1.087002
  S    12.848279 12.249912  1.046888
  S    12.375398  9.546160  5.191732
  S    12.124990 13.201181  5.053564
