16  
    
  C    12.336772  9.110917  3.670605
  C    12.575241 12.796017  3.527377
  C    11.247101  8.432979  3.032348
  C    11.319033 12.501288  2.924275
  N    13.338426  9.547899  2.888819
  N    13.517598 13.063962  2.629687
  N    11.387038  8.263386  1.722076
  N    11.312290 12.307195  1.613525
  N    10.659134  8.438735  5.442741
  N    10.828702 12.724090  5.460328
  S     9.957631  7.959032  4.061451
  S    10.060450 12.228824  4.094728
  S    12.836352  9.108417  1.348949
  S    12.879104 12.587701  1.169988
  S    12.044159  9.220644  5.418278
  S    12.461783 12.864994  5.286084
