16  
    
  C     3.953435  4.733996  1.670942
  C     3.925778  8.402150  1.636073
  C     2.730224  4.375878  1.055012
  C     2.714605  8.081130  0.909238
  N     5.047551  4.584135  0.902867
  N     5.049325  8.489679  0.901162
  N     2.867667  4.074550 -0.241757
  N     2.939996  7.757745 -0.363908
  N     2.281510  4.854840  3.563433
  N     2.018523  8.315669  3.348418
  S     1.419342  4.422988  2.244410
  S     1.331977  7.832260  1.912167
  S     4.446380  4.317010 -0.600704
  S     4.551156  8.004883 -0.647322
  S     3.897125  4.951213  3.387351
  S     3.628894  8.748168  3.303021
