16  
    
  C    12.069621  8.599189  3.353801
  C    12.135596 12.145310  3.270534
  C    10.814314  8.242669  2.756927
  C    10.999906 11.478157  2.648496
  N    13.078210  8.652387  2.489726
  N    13.114199 12.453619  2.434227
  N    10.774801  8.103574  1.424613
  N    11.201169 11.312151  1.343956
  N    10.376704  8.432686  5.239331
  N    10.241897 12.013195  5.062736
  S     9.502823  8.064988  3.872374
  S     9.529153 11.534666  3.645972
  S    12.360275  8.373701  0.984105
  S    12.626885 11.921240  0.867495
  S    11.957219  8.737955  5.097073
  S    11.894800 12.373094  5.004408
