16  
    
  C     8.379636  6.567549  2.267435
  C     8.110186 10.194800  2.591404
  C     7.196419  6.134785  1.684243
  C     7.069334  9.569012  1.858054
  N     9.415606  6.758970  1.458741
  N     9.228077 10.465509  1.962902
  N     7.337083  5.809338  0.395226
  N     7.381241  9.359033  0.568580
  N     6.707907  6.451495  4.234696
  N     6.269724  9.749325  4.351467
  S     5.911409  6.060272  2.908244
  S     5.712809  9.139368  2.906270
  S     8.880367  6.212115 -0.004011
  S     8.935021  9.844380  0.416358
  S     8.230676  7.090821  3.930753
  S     7.765281 10.503226  4.267722
