16  
    
  C     9.808171  7.714000  2.798072
  C    10.632997 11.493903  3.141525
  C     8.783809  7.063901  2.024943
  C     9.377299 11.212725  2.418991
  N    10.901139  8.063821  2.099438
  N    11.734185 11.592511  2.381470
  N     9.118383  6.921364  0.729662
  N     9.555895 10.958714  1.121027
  N     7.939707  7.232299  4.388045
  N     8.716362 11.369572  4.923387
  S     7.396648  6.638762  2.974580
  S     8.003998 10.957263  3.429027
  S    10.736173  7.490251  0.548009
  S    11.169976 11.238637  0.822390
  S     9.395623  8.005957  4.476341
  S    10.341752 11.799302  4.842583
