16  
    
  C     6.645403  6.045589  2.367796
  C     7.012780  9.822910  2.247815
  C     5.517629  5.390079  1.840212
  C     5.801939  9.491257  1.603730
  N     7.508540  6.525666  1.492108
  N     8.063480  9.898350  1.472249
  N     5.588480  5.215980  0.525258
  N     5.887582  9.288505  0.291384
  N     5.330484  5.359965  4.455754
  N     5.395186  9.423083  4.119446
  S     4.578020  4.725921  3.067994
  S     4.506262  9.393766  2.777568
  S     6.936398  6.056612  0.025566
  S     7.537710  9.597239 -0.072422
  S     6.703175  6.157874  4.088060
  S     6.985585  9.841117  3.973745
