16  
    
  C     6.009141  5.035327  1.626471
  C     5.985173  9.175348  1.947465
  C     4.758503  4.775089  0.994929
  C     4.771110  8.694376  1.349484
  N     6.998669  5.264352  0.740470
  N     7.059018  9.175735  1.136035
  N     4.867151  4.497576 -0.295218
  N     4.909429  8.468728  0.057400
  N     4.216438  4.786121  3.571994
  N     4.199988  8.845071  3.850030
  S     3.434384  4.513325  2.080360
  S     3.357735  8.601317  2.476174
  S     6.393296  4.854387 -0.742043
  S     6.480129  8.745148 -0.347317
  S     5.804736  5.093468  3.338177
  S     5.870821  9.185310  3.699414
