16  
    
  C    11.497552  8.797677  3.208454
  C    11.414055 12.251645  3.285635
  C    10.360888  8.066207  2.731610
  C    10.241506 11.837574  2.539806
  N    12.451421  9.088648  2.310239
  N    12.420084 12.642424  2.535476
  N    10.496735  7.693963  1.464860
  N    10.375767 11.799086  1.225850
  N     9.874740  8.310634  5.219118
  N     9.475756 11.853999  5.045851
  S     9.086237  7.762487  3.819227
  S     8.935479 11.338881  3.538074
  S    11.923822  8.400007  0.870408
  S    11.977518 12.176984  0.924082
  S    11.421825  8.972535  4.920713
  S    11.074563 12.320137  5.013337
