16  
    
  C     7.498218  6.162852  2.156362
  C     7.878234  9.877780  2.287015
  C     6.353093  5.526717  1.575483
  C     6.671041  9.319631  1.752234
  N     8.501361  6.435925  1.308342
  N     8.822408 10.211643  1.402167
  N     6.461584  5.452755  0.256927
  N     6.709956  9.296964  0.412454
  N     5.867300  5.716585  4.151317
  N     6.237036  9.697650  4.280305
  S     5.111813  5.299126  2.750026
  S     5.459491  9.046870  2.983251
  S     7.978125  6.043256 -0.172729
  S     8.275417  9.860330 -0.073028
  S     7.460592  6.236063  3.859145
  S     7.842439 10.156576  3.995181
