16  
    
  C     5.988600  5.130493  1.654155
  C     5.957449  9.102052  1.971053
  C     4.790564  4.618217  0.960161
  C     4.735785  8.744472  1.297939
  N     7.056252  5.172196  0.838747
  N     6.995005  9.268052  1.159555
  N     4.890263  4.463665 -0.358296
  N     4.835854  8.424101  0.021799
  N     4.178899  4.674927  3.427177
  N     4.255849  8.828997  3.855503
  S     3.401472  4.453657  2.027323
  S     3.431321  8.585904  2.387533
  S     6.512502  4.809102 -0.719866
  S     6.413075  8.762219 -0.350233
  S     5.823835  4.998888  3.422518
  S     5.805410  9.332885  3.673640
