16  
    
  C    11.848015  8.689217  3.451677
  C    11.529259 12.266068  3.222480
  C    10.575353  8.273742  2.875755
  C    10.450195 11.579811  2.569747
  N    12.791315  8.863121  2.518305
  N    12.655882 12.431673  2.553647
  N    10.613369  8.055612  1.548386
  N    10.722021 11.441726  1.276024
  N    10.175636  8.707134  5.412534
  N     9.598858 11.951060  4.990590
  S     9.294250  8.322494  4.037961
  S     9.033182 11.200553  3.630447
  S    12.175264  8.400426  1.089736
  S    12.188287 12.090159  0.968986
  S    11.768443  9.054805  5.132513
  S    11.165215 12.585051  4.852158
