16  
    
  C     8.635110  7.271252  2.677931
  C     8.921499 11.093054  2.251598
  C     7.458458  6.677732  2.129953
  C     7.767763 10.618104  1.534127
  N     9.561131  7.532847  1.764232
  N     9.931900 11.375730  1.415767
  N     7.562517  6.380526  0.831878
  N     7.884051 10.557019  0.196648
  N     7.081127  6.964388  4.639594
  N     7.259369 10.394613  4.045164
  S     6.362381  6.179212  3.366344
  S     6.477621 10.157347  2.590538
  S     9.029546  6.928567  0.360421
  S     9.447665 11.127252 -0.084318
  S     8.652147  7.460682  4.411125
  S     8.789692 11.026723  3.952273
