16  
    
  C    10.789472  8.369383  3.258371
  C    10.705661 11.884254  3.249143
  C     9.668867  7.724795  2.683211
  C     9.487700 11.417034  2.623980
  N    11.814068  8.612489  2.400121
  N    11.725837 12.054772  2.403719
  N     9.802249  7.431282  1.375567
  N     9.628586 11.252602  1.312992
  N     9.028463  8.052675  5.167712
  N     9.015931 11.538012  5.141097
  S     8.364677  7.501916  3.775894
  S     8.253049 11.058210  3.772093
  S    11.270354  7.967831  0.970245
  S    11.185156 11.666173  0.894337
  S    10.589037  8.704672  4.992255
  S    10.530897 12.099844  4.933222
