16  
    
  C     3.596128  4.961831  1.558120
  C     3.910045  8.191839  1.679979
  C     2.426180  4.356778  0.962767
  C     2.625980  8.007394  1.121229
  N     4.631515  5.039650  0.699812
  N     4.921575  8.370897  0.800790
  N     2.496228  4.176723 -0.349627
  N     2.646928  7.801191 -0.202654
  N     1.942737  4.320811  3.454541
  N     2.157218  8.190773  3.645101
  S     1.136138  3.963118  2.021980
  S     1.293480  7.858811  2.262919
  S     4.060998  4.613167 -0.835560
  S     4.216556  8.087915 -0.714484
  S     3.486931  4.762427  3.341442
  S     3.740091  8.567665  3.422752
