16  
    
  C     8.376307  6.584287  2.297037
  C     8.119095 10.137544  2.622410
  C     7.117837  6.132673  1.675120
  C     7.034741  9.491576  1.908545
  N     9.377191  6.734259  1.438966
  N     9.189733 10.425040  1.858655
  N     7.292260  5.782946  0.390807
  N     7.334266  9.297590  0.642033
  N     6.678616  6.461901  4.272485
  N     6.256012  9.771859  4.342127
  S     5.828978  6.063911  2.880669
  S     5.678951  9.147695  2.911962
  S     8.911646  6.170228 -0.011953
  S     8.888876  9.867385  0.373606
  S     8.186431  7.096766  3.912320
  S     7.777509 10.476009  4.257917
