16  
    
  C     9.199542  6.961065  2.367062
  C     9.022147 10.680648  2.363691
  C     7.903978  6.577364  1.765332
  C     7.792027 10.212784  1.717634
  N    10.187382  7.221258  1.516701
  N    10.039931 10.899356  1.552492
  N     8.000609  6.301188  0.466761
  N     7.902447 10.061009  0.418381
  N     7.507569  6.809481  4.280737
  N     7.150675 10.742754  4.119602
  S     6.623917  6.354395  2.884605
  S     6.451245 10.025542  2.816690
  S     9.551331  6.684528  0.001789
  S     9.418996 10.415263 -0.016973
  S     9.085433  7.265003  4.056548
  S     8.792509 11.045910  4.056116
