16  
    
  C     8.935062  7.117248  2.358431
  C     9.155428 10.841605  2.362487
  C     7.778512  6.695186  1.610179
  C     7.910110 10.449022  1.775724
  N    10.024033  7.365492  1.610522
  N    10.160785 10.996656  1.499573
  N     7.982005  6.872398  0.281329
  N     7.955209 10.338227  0.438283
  N     7.153055  6.590537  4.174942
  N     7.454821 10.587478  4.327720
  S     6.367288  6.453439  2.710222
  S     6.598798 10.469834  2.909253
  S     9.561125  7.302616  0.052932
  S     9.593050 10.678748  0.019110
  S     8.699931  7.144582  4.081125
  S     9.058066 10.983259  4.098116
