16  
    
  C     6.786759  5.915766  1.468180
  C     7.240128 10.001975  2.477314
  C     5.683040  5.107976  0.989838
  C     5.976214  9.531883  1.910981
  N     7.880266  5.911955  0.723345
  N     8.246847 10.034410  1.612490
  N     5.872765  4.711846 -0.267925
  N     6.077126  9.184079  0.628909
  N     5.074378  5.802181  3.443858
  N     5.666835  9.718612  4.525283
  S     4.383412  4.927165  2.165317
  S     4.683465  9.498544  3.148112
  S     7.444461  5.153660 -0.681148
  S     7.585040  9.486712  0.138366
  S     6.564394  6.339939  3.102828
  S     7.217374 10.299437  4.147243
