16  
    
  C     9.862742  7.765409  2.805523
  C     9.867667 11.144882  2.862077
  C     8.712801  7.281140  2.133608
  C     8.664451 10.844303  2.187069
  N    10.913921  7.964457  2.012953
  N    10.923852 11.221800  2.064155
  N     8.868420  7.130421  0.829203
  N     8.731956 10.772205  0.870563
  N     7.961320  7.407528  4.537198
  N     8.132143 10.783990  4.700922
  S     7.293234  7.081448  3.097412
  S     7.262666 10.830402  3.286168
  S    10.428291  7.548199  0.461109
  S    10.347080 11.027838  0.565812
  S     9.576533  7.755931  4.548954
  S     9.691763 11.362920  4.634654
