16  
    
  C     9.185926  6.796542  2.353863
  C     9.164972 10.840814  3.021128
  C     7.976724  6.232736  1.796550
  C     7.899685 10.424322  2.405030
  N    10.258721  6.769216  1.595884
  N    10.163858 10.859171  2.134288
  N     8.195789  5.730518  0.587570
  N     7.979309  9.982874  1.170454
  N     7.428312  6.999204  4.169982
  N     7.395689 10.993574  4.814684
  S     6.596057  6.326529  2.880518
  S     6.564772 10.579809  3.451011
  S     9.812143  6.078622  0.202747
  S     9.601680 10.343399  0.701480
  S     9.093039  7.229474  3.979609
  S     9.023934 11.152004  4.694344
