16  
    
  C     7.554517  6.237543  2.168707
  C     7.870043  9.943067  2.345547
  C     6.376946  5.667647  1.586695
  C     6.708852  9.377778  1.725795
  N     8.565036  6.446241  1.359300
  N     8.835573 10.306031  1.517139
  N     6.432886  5.493392  0.273861
  N     6.796235  9.241298  0.417683
  N     5.951715  5.722055  4.140509
  N     6.197999  9.731536  4.304775
  S     5.100012  5.347814  2.734538
  S     5.439311  9.047191  2.954536
  S     7.984598  6.039344 -0.156439
  S     8.214428  9.897463 -0.016048
  S     7.486026  6.274902  3.861892
  S     7.807110 10.151057  4.027846
