16  
    
  C     9.967395  7.702404  2.991890
  C    10.579026 11.649846  3.004761
  C     8.790920  7.281141  2.266328
  C     9.352217 11.084133  2.539749
  N    11.054844  7.946409  2.268073
  N    11.442053 11.942060  2.050527
  N     9.010880  7.127741  0.966070
  N     9.377273 10.699144  1.280628
  N     8.229610  7.014839  4.677119
  N     9.033656 11.379728  5.109768
  S     7.459966  6.836793  3.268232
  S     8.160860 10.866245  3.798418
  S    10.620870  7.652188  0.694698
  S    10.813760 11.175854  0.664346
  S     9.738312  7.548647  4.677543
  S    10.583202 11.993871  4.724971
