16  
    
  C    10.436320  7.557454  2.643272
  C    10.452946 11.391789  2.672464
  C     9.128521  7.447422  2.082898
  C     9.206257 11.159818  1.984494
  N    11.416820  7.363448  1.757054
  N    11.518729 11.322800  1.892523
  N     9.130835  7.257722  0.749814
  N     9.260767 10.884603  0.681112
  N     8.792737  7.820362  4.618357
  N     8.565909 11.272346  4.498938
  S     7.839272  7.380035  3.251955
  S     7.803959 11.327466  3.054828
  S    10.732576  7.198957  0.293315
  S    10.928473 10.963223  0.378647
  S    10.436096  7.686222  4.332567
  S    10.233326 11.534823  4.404306
