16  
    
  C     6.944937  5.989371  1.634594
  C     7.336756  9.891562  2.493316
  C     5.859631  5.115847  1.191050
  C     6.012642  9.547885  1.933971
  N     7.943868  6.178466  0.746830
  N     8.329772  9.838510  1.587298
  N     5.998974  4.703913 -0.064666
  N     6.055607  9.160962  0.652160
  N     5.163734  5.801794  3.573625
  N     5.517694  9.879076  4.422386
  S     4.544770  4.970427  2.312499
  S     4.680475  9.540357  3.023884
  S     7.386805  5.394223 -0.634610
  S     7.620394  9.405110  0.130658
  S     6.709918  6.409471  3.358062
  S     7.165771 10.264314  4.213921
