16  
    
  C     5.374932  5.489702  1.665858
  C     5.273376  9.027010  1.782572
  C     4.196225  5.137631  0.926166
  C     4.127051  8.532751  1.003536
  N     6.437705  5.746552  0.927518
  N     6.342207  9.194926  1.020978
  N     4.384528  4.989016 -0.367893
  N     4.324388  8.367408 -0.286629
  N     3.593965  5.154936  3.410454
  N     3.353404  8.766389  3.409393
  S     2.830116  5.086974  2.014077
  S     2.732603  8.266443  1.928678
  S     5.991905  5.459698 -0.654694
  S     5.926551  8.822542 -0.537258
  S     5.161762  5.691137  3.377611
  S     4.986510  8.956679  3.476323
