16  
    
  C     5.132106  5.367517  1.968908
  C     5.117528  8.666750  1.560634
  C     3.884650  5.015031  1.377780
  C     3.822673  8.436127  0.916334
  N     6.184064  5.134700  1.187391
  N     6.152244  8.673570  0.730258
  N     3.937793  4.564449  0.147121
  N     3.960861  8.171781 -0.381553
  N     3.293203  5.724239  3.778997
  N     3.344620  8.615867  3.435332
  S     2.480798  5.168909  2.373547
  S     2.502304  8.366057  2.008449
  S     5.529717  4.652433 -0.308198
  S     5.567323  8.348102 -0.751344
  S     4.937526  5.718851  3.682711
  S     4.999344  8.908465  3.249648
