16  
    
  C    11.832122  8.604098  3.473967
  C    11.616342 11.811999  3.412251
  C    10.609654  8.208455  2.748130
  C    10.411917 11.687564  2.648703
  N    12.907179  8.696326  2.683595
  N    12.662090 12.051483  2.643954
  N    10.792231  8.015219  1.430278
  N    10.580809 11.668895  1.315294
  N     9.927414  8.509090  5.239945
  N     9.774397 11.709430  5.184632
  S     9.175780  8.291057  3.779773
  S     9.084407 11.411649  3.677779
  S    12.342295  8.451080  1.132228
  S    12.159755 11.808759  1.058652
  S    11.529065  8.818319  5.195351
  S    11.488863 11.966794  5.168578
