16  
    
  C     6.285175  5.707556  2.013287
  C     6.024437  9.138788  1.657213
  C     5.028114  5.506915  1.414864
  C     4.825525  8.692649  1.060131
  N     7.304567  5.762052  1.152248
  N     7.034515  9.272620  0.787223
  N     5.081208  5.154060  0.128967
  N     4.886563  8.622510 -0.266956
  N     4.574849  5.681413  3.991396
  N     4.320633  9.014914  3.662012
  S     3.797568  5.425643  2.587845
  S     3.519569  8.560310  2.213305
  S     6.652977  5.341944 -0.300576
  S     6.509983  8.926045 -0.691412
  S     6.179671  6.082724  3.711757
  S     5.936417  9.418165  3.353440
