16  
    
  C     5.044824  5.400274  1.866800
  C     5.110582  8.683068  1.415795
  C     3.818550  4.918602  1.322337
  C     3.836546  8.339088  0.870550
  N     6.100184  5.362166  1.050842
  N     6.060770  8.836423  0.494379
  N     3.893736  4.601126  0.011336
  N     3.911053  8.076569 -0.429284
  N     3.412355  5.797713  3.813185
  N     3.395843  8.854794  3.367906
  S     2.506185  5.237701  2.453070
  S     2.558534  8.337757  2.047068
  S     5.534471  4.682379 -0.354932
  S     5.399067  8.405506 -0.950869
  S     5.063964  5.779844  3.543214
  S     5.044025  9.003640  3.142190
