16  
    
  C     9.212044  6.896112  2.686244
  C     9.654413 10.803134  2.713705
  C     8.014416  6.432214  2.052472
  C     8.573544 10.139475  2.145289
  N    10.204942  7.314812  1.859721
  N    10.575761 11.276873  1.892979
  N     8.152475  6.305988  0.730006
  N     8.647361 10.077295  0.791931
  N     7.407761  6.385069  4.521974
  N     8.172199 10.057460  4.666462
  S     6.681828  6.068594  3.034961
  S     7.375483  9.634809  3.266286
  S     9.638608  6.822763  0.352614
  S    10.037099 10.788219  0.369004
  S     9.014467  6.879776  4.447874
  S     9.593486 10.980946  4.465079
