16  
    
  C     9.257484  6.931210  2.765919
  C     9.695808 10.860617  2.703281
  C     8.089200  6.411463  2.100784
  C     8.557064 10.201980  2.085664
  N    10.228329  7.246786  1.903071
  N    10.598391 11.299037  1.830335
  N     8.149193  6.309741  0.764819
  N     8.649399 10.046465  0.761576
  N     7.455789  6.336971  4.573798
  N     8.163666 10.060187  4.650984
  S     6.703926  6.089969  3.128741
  S     7.385227  9.615581  3.242883
  S     9.651726  6.912363  0.356862
  S    10.084826 10.845048  0.329128
  S     8.985935  6.945220  4.484001
  S     9.539988 10.939945  4.442364
