16  
    
  C     4.400322  4.889984  1.442447
  C     4.177380  8.672522  1.671746
  C     3.128810  4.726216  0.812231
  C     3.086470  8.184788  0.830078
  N     5.425626  5.164016  0.613649
  N     5.301672  8.947937  1.007140
  N     3.230786  4.628211 -0.533031
  N     3.316117  8.317937 -0.470175
  N     2.755817  5.097731  3.409442
  N     2.309336  7.780164  3.194858
  S     1.847687  4.579243  2.117527
  S     1.616646  7.761016  1.626342
  S     4.822597  4.837949 -0.878037
  S     4.886058  8.825902 -0.629982
  S     4.415453  5.137191  3.121043
  S     3.778765  8.523495  3.379988
