16  
    
  C     6.611554  5.772978  2.072598
  C     6.534908  9.416181  1.880093
  C     5.358963  5.346167  1.443667
  C     5.361563  8.878829  1.234782
  N     7.620098  5.940963  1.223198
  N     7.559813  9.706011  1.079849
  N     5.427052  5.220882  0.118010
  N     5.490320  8.812079 -0.078182
  N     4.856268  5.810974  3.981690
  N     4.710749  9.079350  3.720989
  S     4.013183  5.221271  2.623913
  S     4.082974  8.496573  2.330944
  S     6.995416  5.611880 -0.284461
  S     7.069048  9.239340 -0.409014
  S     6.488323  6.079324  3.767641
  S     6.344425  9.525214  3.589241
