16  
    
  C    10.046538  7.522277  2.504273
  C    10.353702 11.052809  2.671716
  C     8.775247  6.962801  1.982090
  C     9.075551 11.041500  2.009570
  N    11.067794  7.657298  1.634847
  N    11.424362 11.001647  1.882229
  N     8.835487  6.720492  0.667994
  N     9.193868 11.040056  0.680959
  N     8.310403  7.242822  4.475445
  N     8.591050 11.114545  4.528865
  S     7.567210  6.625526  3.139282
  S     7.798281 10.876302  3.113319
  S    10.411699  7.004891  0.210127
  S    10.811970 11.004886  0.300669
  S     9.942965  7.653671  4.241030
  S    10.288402 11.164006  4.369158
