16  
    
  C    10.844505  8.239314  3.271377
  C    10.764863 11.844969  3.271234
  C     9.677737  7.615409  2.673306
  C     9.517505 11.264816  2.695244
  N    11.869973  8.484565  2.463820
  N    11.638511 12.230254  2.351175
  N     9.858374  7.351594  1.397019
  N     9.524395 11.091464  1.385604
  N     9.237204  7.821098  5.150553
  N     9.071653 11.456028  5.215188
  S     8.344896  7.464331  3.796243
  S     8.246610 11.059619  3.817867
  S    11.355281  7.970358  0.930174
  S    11.031189 11.775060  0.876922
  S    10.676706  8.563627  4.969622
  S    10.644049 12.163565  5.007235
