16  
    
  C     9.936068  7.660868  2.679288
  C     9.888934 11.345996  2.997679
  C     8.674942  7.354299  2.040098
  C     8.779669 10.682094  2.309097
  N    10.907986  7.671287  1.778932
  N    10.937303 11.582692  2.170507
  N     8.661671  7.233195  0.707860
  N     8.960318 10.506153  0.981347
  N     8.188794  7.413705  4.529327
  N     8.051989 10.907181  4.719881
  S     7.354108  7.183980  3.131189
  S     7.375773 10.427946  3.280861
  S    10.239015  7.545233  0.237821
  S    10.478051 11.121771  0.680795
  S     9.797682  7.761090  4.434589
  S     9.608125 11.433593  4.671516
