16  
    
  C     7.720097  6.544215  2.425224
  C     7.792639 10.149147  2.205868
  C     6.402392  6.180100  1.877914
  C     6.529641  9.897835  1.519861
  N     8.679115  6.626211  1.483976
  N     8.863072 10.101325  1.385557
  N     6.450601  5.752448  0.605942
  N     6.684548  9.596644  0.239979
  N     5.968577  6.828798  4.301940
  N     5.889717  9.967867  3.966273
  S     5.078798  6.159456  2.976478
  S     5.146354  9.924418  2.479409
  S     8.029043  6.099928  0.026636
  S     8.296427  9.749314 -0.143616
  S     7.554844  7.045077  4.122751
  S     7.520646 10.238735  3.954880
