16  
    
  C    12.048562  8.506133  3.603361
  C    12.121329 12.011813  3.325855
  C    10.874914  8.167501  2.855137
  C    10.921345 11.547154  2.697263
  N    13.173745  8.791785  2.933305
  N    13.162395 12.198094  2.542872
  N    11.139379  8.112967  1.538072
  N    11.065204 11.343901  1.398938
  N    10.106035  8.348234  5.387915
  N    10.301442 11.968167  5.219516
  S     9.448492  7.992971  3.862613
  S     9.510605 11.386200  3.826365
  S    12.765520  8.410018  1.328346
  S    12.585067 11.955770  1.040532
  S    11.754166  8.724712  5.281114
  S    11.926497 12.442775  4.965931
