16  
    
  C     6.697053  6.238566  2.374944
  C     7.255886  9.663198  2.212235
  C     5.659113  5.363546  1.832293
  C     5.952285  9.479347  1.582645
  N     7.608688  6.653272  1.476162
  N     8.213393  9.793761  1.289976
  N     5.659869  5.358235  0.504823
  N     5.949319  9.342844  0.279661
  N     5.355022  5.207180  4.347044
  N     5.427560  9.393980  4.045412
  S     4.525332  4.688259  2.972539
  S     4.585473  9.460976  2.677984
  S     7.043549  6.097312 -0.005406
  S     7.586432  9.486223 -0.191112
  S     6.659005  6.238086  4.153702
  S     7.085471  9.832561  3.948131
