16  
    
  C    10.967788  8.072001  3.046684
  C    10.959985 11.637733  2.723054
  C     9.712908  7.443747  2.579950
  C     9.692159 11.217137  2.183877
  N    11.881487  8.267123  2.092546
  N    11.954383 11.906917  1.847673
  N     9.688949  7.147793  1.276682
  N     9.757014 11.019492  0.865924
  N     9.540645  7.556614  5.097793
  N     9.268637 11.319978  4.680992
  S     8.619977  7.064087  3.842902
  S     8.383178 10.967469  3.323853
  S    11.130111  7.704863  0.658385
  S    11.352787 11.440162  0.397239
  S    10.997875  8.242883  4.727297
  S    10.820072 11.795832  4.440140
