16  
    
  C     9.591803  7.646125  2.711052
  C    10.110209 11.189227  2.637463
  C     8.455357  6.941190  2.101760
  C     8.823947 10.856806  2.054060
  N    10.640410  7.780508  1.903855
  N    11.103991 11.314129  1.773978
  N     8.678565  6.478042  0.881425
  N     8.861264 10.745599  0.750129
  N     7.848985  7.206449  4.599006
  N     8.422411 11.003239  4.589230
  S     7.182952  6.634945  3.164921
  S     7.516649 10.766321  3.188695
  S    10.169618  7.055513  0.446729
  S    10.424212 11.067969  0.261363
  S     9.315398  8.057015  4.425251
  S     9.984138 11.531730  4.343936
