16  
    
  C    12.796417  9.393419  3.431612
  C    12.744561 12.782100  3.666750
  C    11.680136  8.762493  2.797662
  C    11.549788 12.383539  3.025275
  N    13.884765  9.418351  2.686570
  N    13.742766 13.022695  2.842308
  N    11.812152  8.512074  1.495697
  N    11.637100 12.112070  1.727183
  N    10.999867  9.167016  5.273561
  N    10.996485 12.692851  5.540778
  S    10.312617  8.562274  3.847248
  S    10.242482 12.382634  4.130309
  S    13.364256  8.929102  1.212862
  S    13.177964 12.559395  1.287251
  S    12.581066  9.673117  5.135162
  S    12.573069 13.179550  5.272889
