16  
    
  C     5.874002  5.342821  1.716946
  C     6.020790  8.799847  2.155182
  C     4.647266  4.895453  1.139644
  C     4.761623  8.636080  1.486254
  N     6.899819  5.312950  0.855757
  N     7.043886  8.945679  1.312392
  N     4.656754  4.808635 -0.172285
  N     4.835503  8.498497  0.173722
  N     4.125738  5.327585  3.599465
  N     4.169891  8.730386  3.951193
  S     3.279918  4.899666  2.245941
  S     3.354133  8.547294  2.536622
  S     6.215697  5.013231 -0.666393
  S     6.478342  8.808542 -0.236111
  S     5.693186  5.577847  3.426481
  S     5.816838  9.102405  3.835981
