16  
    
  C     5.381750  5.497779  1.631385
  C     5.251178  8.982080  1.495117
  C     4.068214  5.196981  1.060797
  C     4.105998  8.429149  0.851749
  N     6.338334  5.662899  0.723299
  N     6.332113  9.010287  0.713694
  N     4.095754  5.011254 -0.262038
  N     4.248428  8.163624 -0.438006
  N     3.789559  5.480356  3.661294
  N     3.404743  8.815399  3.282203
  S     2.917332  4.981781  2.331971
  S     2.708500  8.260742  1.894483
  S     5.640121  5.314307 -0.735055
  S     5.794434  8.518469 -0.784268
  S     5.380496  5.699170  3.364450
  S     4.993725  9.390868  3.177304
