16  
    
  C     9.445153  7.087826  2.960666
  C     9.586484 10.831799  2.597281
  C     8.335389  6.545334  2.245602
  C     8.328859 10.466280  2.014828
  N    10.444023  7.554716  2.257511
  N    10.566926 11.124628  1.754151
  N     8.567601  6.497253  0.944057
  N     8.389658 10.315241  0.711318
  N     7.732460  6.450381  4.783659
  N     7.928440 10.401158  4.572561
  S     7.040036  6.022576  3.300437
  S     7.076622 10.098173  3.141929
  S    10.063389  7.273364  0.682615
  S     9.954719 10.803594  0.272292
  S     9.274023  7.021976  4.690845
  S     9.511018 10.913964  4.349024
