16  
    
  C     5.863248  5.632925  2.165157
  C     5.948199  9.233116  1.678545
  C     4.597094  5.635662  1.513286
  C     4.738711  8.914645  0.987715
  N     6.914201  5.485185  1.371436
  N     7.003740  9.116778  0.888821
  N     4.665702  5.382398  0.211362
  N     4.850003  8.750396 -0.327961
  N     4.112315  5.946674  4.063881
  N     4.074075  9.171972  3.443100
  S     3.327757  5.622598  2.638077
  S     3.344379  8.771933  1.985155
  S     6.265876  5.267348 -0.128006
  S     6.522111  8.731074 -0.642973
  S     5.772792  5.808798  3.892968
  S     5.697769  9.506070  3.384272
