16  
    
  C     3.637060  4.526197  1.600190
  C     3.714451  8.426459  1.538611
  C     2.455937  3.942027  0.984695
  C     2.524932  8.029723  0.870573
  N     4.484278  4.967228  0.666817
  N     4.734324  8.560108  0.728824
  N     2.453280  3.741154 -0.323984
  N     2.554950  8.093216 -0.455180
  N     1.939564  3.916186  3.522254
  N     1.980660  8.095311  3.341677
  S     1.275918  3.422461  2.064526
  S     1.206568  7.687899  1.936039
  S     3.902515  4.322303 -0.802136
  S     4.137920  8.437955 -0.808696
  S     3.453022  4.683668  3.385992
  S     3.573628  8.508439  3.265154
