16  
    
  C    12.783776  9.242309  3.387392
  C    12.646957 13.046012  3.587749
  C    11.636048  8.628828  2.814183
  C    11.519608 12.476259  2.941530
  N    13.805057  9.476383  2.528748
  N    13.737377 13.165447  2.828547
  N    11.731933  8.440248  1.505800
  N    11.761293 12.123365  1.688346
  N    10.910193  9.233172  5.210810
  N    10.855574 12.611494  5.411758
  S    10.230253  8.655819  3.850839
  S    10.187912 12.135573  3.918859
  S    13.278024  8.932374  1.065953
  S    13.273589 12.609340  1.329607
  S    12.556168  9.477840  5.159384
  S    12.410273 13.210597  5.311459
