16  
    
  C     6.682017  5.944610  2.304924
  C     6.898572  9.698215  2.351644
  C     5.510595  5.244999  1.800102
  C     5.639352  9.315156  1.715933
  N     7.608730  6.239199  1.392027
  N     7.860871  9.931584  1.463545
  N     5.419789  5.187048  0.460563
  N     5.681961  9.179820  0.395422
  N     5.167313  5.512264  4.334079
  N     5.166345  9.742618  4.230812
  S     4.375408  5.012157  3.015245
  S     4.362111  9.121284  2.869941
  S     6.830190  5.880766 -0.029457
  S     7.171179  9.711831 -0.025452
  S     6.743368  6.017758  4.056166
  S     6.764459  9.936194  4.084995
