16  
    
  C     5.609342  5.467362  1.886186
  C     5.390228  8.870929  1.761657
  C     4.348531  4.964261  1.416407
  C     4.239680  8.394439  1.036095
  N     6.555683  5.549955  0.961940
  N     6.423949  9.154452  0.991706
  N     4.217890  4.883691  0.094846
  N     4.471521  8.183598 -0.254478
  N     4.061680  5.149681  3.971359
  N     3.428380  8.894016  3.438249
  S     3.144524  4.762196  2.637308
  S     2.895518  8.084131  2.084504
  S     5.710193  5.311337 -0.516481
  S     6.071240  8.715827 -0.567048
  S     5.649377  5.482630  3.685185
  S     5.128082  9.161648  3.465787
