16  
    
  C     9.950651  7.629947  2.651692
  C     9.873871 11.325069  2.940167
  C     8.697101  7.389434  2.044117
  C     8.795222 10.730523  2.284458
  N    10.921575  7.666684  1.746449
  N    10.931762 11.569622  2.198332
  N     8.687902  7.250633  0.738779
  N     8.964013 10.554226  0.984907
  N     8.141474  7.395739  4.556173
  N     8.026619 10.996304  4.713418
  S     7.373414  7.195402  3.121740
  S     7.377796 10.450835  3.281097
  S    10.243022  7.557284  0.246740
  S    10.472876 11.121171  0.676571
  S     9.788758  7.772868  4.447098
  S     9.620080 11.418591  4.684508
