16  
    
  C    11.905048  8.648005  3.352336
  C    11.707547 12.085975  3.191518
  C    10.686841  8.042410  2.890818
  C    10.470556 11.689673  2.589100
  N    12.848612  8.731311  2.434670
  N    12.654743 12.398049  2.316041
  N    10.701431  7.766769  1.602253
  N    10.458619 11.556161  1.253503
  N    10.351859  8.585558  5.405933
  N     9.965762 11.977921  4.998073
  S     9.487106  7.949913  4.103421
  S     9.199758 11.475261  3.686654
  S    12.158230  8.315581  0.978841
  S    12.051752 12.014699  0.819074
  S    11.893589  9.063518  5.094487
  S    11.533752 12.363995  4.933516
