16  
    
  C     4.985790  4.812210  1.638862
  C     4.870716  8.796622  1.781778
  C     3.603934  4.780481  1.227070
  C     3.586938  8.293380  1.302757
  N     5.874296  4.953632  0.677688
  N     5.792608  8.844891  0.821536
  N     3.476282  4.655182 -0.090092
  N     3.557619  8.212367 -0.023389
  N     3.602298  4.798081  3.743184
  N     3.336233  8.693699  3.763854
  S     2.534173  4.436300  2.536727
  S     2.359322  8.308988  2.509109
  S     5.019877  4.872703 -0.738282
  S     5.046352  8.496210 -0.591651
  S     5.200535  4.760449  3.327890
  S     4.941789  9.021399  3.500384
