16  
    
  C    11.800312  8.721798  3.475524
  C    11.504396 12.147863  3.285026
  C    10.559087  8.282345  2.862384
  C    10.400926 11.652662  2.497792
  N    12.841322  8.755286  2.632555
  N    12.530121 12.493506  2.563997
  N    10.667479  8.051621  1.539389
  N    10.626507 11.470378  1.205353
  N    10.076757  8.660087  5.378178
  N     9.636981 11.984263  4.932092
  S     9.265413  8.319360  4.022696
  S     9.059338 11.279445  3.525135
  S    12.222871  8.479698  1.078324
  S    12.264356 11.984661  1.032865
  S    11.731569  9.040358  5.207802
  S    11.186287 12.519291  4.959698
