16  
    
  C     6.651931  5.864967  2.144933
  C     6.449638  9.301430  1.952033
  C     5.406432  5.447459  1.461947
  C     5.285163  8.747937  1.242616
  N     7.663028  6.121906  1.307064
  N     7.508512  9.578714  1.168541
  N     5.635394  5.138176  0.184568
  N     5.427509  8.709349 -0.085226
  N     4.823717  5.375612  3.939889
  N     4.527433  8.931045  3.767554
  S     4.024638  5.104646  2.498050
  S     3.864280  8.553618  2.217049
  S     7.183631  5.623880 -0.229949
  S     6.944971  9.177948 -0.421039
  S     6.389313  6.093015  3.840681
  S     6.090759  9.438085  3.644134
