16  
    
  C     9.126223  7.043243  2.357870
  C     9.074693 11.043149  2.694726
  C     7.908238  6.691343  1.678098
  C     7.920441 10.511143  2.080924
  N    10.169578  7.148981  1.562818
  N    10.095275 11.218826  1.880968
  N     8.011142  6.486136  0.379228
  N     7.978699 10.354617  0.778666
  N     7.260282  6.844493  4.159666
  N     7.365938 10.725703  4.619305
  S     6.488593  6.488374  2.722072
  S     6.578114 10.317576  3.197339
  S     9.642087  6.795155 -0.005536
  S     9.533413 10.782448  0.337407
  S     8.909538  7.085218  4.073479
  S     8.926117 11.282170  4.386492
