16  
    
  C     5.991806  5.126222  1.629561
  C     5.982148  9.127730  1.976818
  C     4.761815  4.690925  0.974762
  C     4.725834  8.754303  1.336205
  N     7.044297  5.196940  0.799599
  N     6.996872  9.241414  1.138021
  N     4.900617  4.458948 -0.328071
  N     4.842028  8.428252  0.059015
  N     4.170274  4.689728  3.492726
  N     4.232449  8.829514  3.881644
  S     3.425298  4.474755  2.042762
  S     3.408179  8.593416  2.401020
  S     6.477475  4.820176 -0.749744
  S     6.456641  8.754851 -0.355419
  S     5.819382  5.016560  3.401770
  S     5.833496  9.280896  3.658582
