16  
    
  C     4.501008  5.043746  1.795560
  C     4.564471  8.523334  1.439544
  C     3.272499  4.656904  1.101786
  C     3.391447  7.984286  0.809867
  N     5.468376  5.415691  0.955171
  N     5.652598  8.519745  0.655717
  N     3.426515  4.479150 -0.223819
  N     3.501990  7.857927 -0.515872
  N     2.811621  4.710730  3.678181
  N     2.742455  8.523778  3.217046
  S     1.948761  4.494305  2.245603
  S     2.032934  7.919377  1.859757
  S     5.013164  4.996187 -0.542136
  S     5.137301  8.100274 -0.811201
  S     4.372364  5.352991  3.471175
  S     4.345354  8.905477  3.110508
