16  
    
  C    10.797647  8.383789  3.258355
  C    10.710018 11.873716  3.216826
  C     9.665116  7.740027  2.693267
  C     9.476273 11.483119  2.615495
  N    11.796647  8.650750  2.408149
  N    11.763499 12.044518  2.406244
  N     9.765361  7.467428  1.383733
  N     9.608801 11.244720  1.311568
  N     9.037886  8.109706  5.120436
  N     8.968955 11.572579  5.130340
  S     8.359368  7.500155  3.772475
  S     8.246864 11.051928  3.753900
  S    11.255721  7.955167  0.963736
  S    11.226407 11.651897  0.897490
  S    10.563070  8.710692  4.986805
  S    10.525776 12.084909  4.918459
