16  
    
  C     7.873523  6.299019  2.144319
  C     8.102551 10.525419  2.203702
  C     6.712496  5.738968  1.533672
  C     6.997747  9.866973  1.574015
  N     8.861546  6.582597  1.302141
  N     9.077418 10.824257  1.353332
  N     6.737372  5.795759  0.205717
  N     7.130516  9.602346  0.299540
  N     6.241294  5.694487  4.056863
  N     6.290595 10.120024  4.017477
  S     5.324784  5.514478  2.623549
  S     5.549007  9.702586  2.597749
  S     8.261276  6.312124 -0.217196
  S     8.589055 10.134132 -0.144305
  S     7.781084  6.312300  3.900601
  S     7.880884 10.652661  3.924907
