16  
    
  C    11.789343  8.536613  3.422278
  C    11.616250 12.050702  3.395566
  C    10.575371  8.314850  2.698944
  C    10.393609 11.661492  2.749563
  N    12.887766  8.672161  2.667929
  N    12.700908 12.114525  2.634486
  N    10.768031  8.202373  1.360440
  N    10.549041 11.477435  1.454273
  N     9.999870  8.387456  5.224758
  N     9.819652 11.564043  5.311573
  S     9.180148  8.231995  3.723168
  S     9.013465 11.331850  3.862073
  S    12.394442  8.340822  1.120510
  S    12.184091 11.854336  1.119059
  S    11.627061  8.712461  5.101311
  S    11.445694 11.944179  5.074883
