16  
    
  C     6.771765  6.118098  2.366652
  C     7.266061  9.617307  2.138920
  C     5.667645  5.440491  1.731165
  C     5.996265  9.339313  1.504407
  N     7.657305  6.662573  1.527512
  N     8.291591  9.675615  1.296660
  N     5.784508  5.281959  0.416751
  N     6.041736  9.274549  0.184198
  N     5.238655  5.177502  4.289054
  N     5.468220  9.632977  4.048357
  S     4.573015  4.802632  2.864729
  S     4.689397  9.437785  2.585063
  S     7.128240  6.172935  0.036819
  S     7.567399  9.509584 -0.261882
  S     6.568487  6.233080  4.099063
  S     7.145249  9.797164  3.897655
