16  
    
  C    10.798606  7.849058  3.115473
  C    10.610019 12.024960  3.149773
  C     9.548686  7.462627  2.554493
  C     9.438142 11.238054  2.694121
  N    11.738972  8.095597  2.233485
  N    11.484623 12.270996  2.197281
  N     9.499968  7.433984  1.228045
  N     9.362942 11.019549  1.393771
  N     9.139091  7.622114  5.150926
  N     9.161193 11.607965  5.234949
  S     8.318283  7.095727  3.726426
  S     8.305642 10.926103  4.017913
  S    11.089777  7.798361  0.723439
  S    10.803557 11.635742  0.795070
  S    10.762255  7.878257  4.806599
  S    10.689070 12.181293  4.845167
