16  
    
  C    10.939544  8.103790  3.011807
  C    10.933768 11.599179  2.733137
  C     9.705238  7.456504  2.557933
  C     9.677549 11.228937  2.182210
  N    11.892087  8.283556  2.073287
  N    11.916368 11.922911  1.878148
  N     9.695492  7.127937  1.265971
  N     9.746368 11.046699  0.872748
  N     9.525633  7.573778  5.135607
  N     9.254335 11.370770  4.678673
  S     8.653947  7.059612  3.842550
  S     8.385202 10.950669  3.339284
  S    11.133186  7.710041  0.653262
  S    11.352580 11.441042  0.386452
  S    11.007844  8.288595  4.726780
  S    10.805964 11.762065  4.447645
