16  
    
  C     4.557224  5.123524  1.621683
  C     4.358346  8.480363  1.501100
  C     3.325882  4.606486  1.037290
  C     3.164069  8.022064  0.907442
  N     5.569622  5.234834  0.738344
  N     5.379813  8.672263  0.681424
  N     3.342808  4.605564 -0.290521
  N     3.260180  7.630471 -0.360908
  N     2.817805  4.824640  3.515423
  N     2.587679  8.527019  3.388993
  S     2.003590  4.546940  2.101358
  S     1.828800  7.941803  1.998102
  S     4.871375  4.849108 -0.721844
  S     4.841420  8.065607 -0.767850
  S     4.322957  5.503617  3.341955
  S     4.226843  8.881606  3.155061
