16  
    
  C    10.885247  8.065073  3.142190
  C    10.605141 11.968215  3.173008
  C     9.592522  7.633415  2.556433
  C     9.383895 11.318168  2.701304
  N    11.858422  8.146934  2.250001
  N    11.394452 12.384292  2.199873
  N     9.676008  7.404963  1.256100
  N     9.477518 11.048073  1.406320
  N     9.187789  7.668031  5.071612
  N     9.138661 11.737881  5.255697
  S     8.385011  7.159641  3.779302
  S     8.311074 10.934837  3.987014
  S    11.167415  7.814931  0.754055
  S    10.889993 11.684628  0.795801
  S    10.782133  8.032451  4.955292
  S    10.724317 12.101614  4.930983
