16  
    
  C     9.925192  7.661944  2.679007
  C     9.894738 11.336194  3.004739
  C     8.648922  7.336373  2.037142
  C     8.766076 10.671930  2.302760
  N    10.916898  7.686104  1.791985
  N    10.933862 11.591383  2.173702
  N     8.658294  7.229662  0.700965
  N     8.961860 10.492364  0.992982
  N     8.204392  7.418125  4.528060
  N     8.054266 10.870540  4.725495
  S     7.345201  7.178980  3.134533
  S     7.377529 10.420277  3.281446
  S    10.238881  7.537807  0.240482
  S    10.479685 11.118585  0.674047
  S     9.799957  7.756096  4.425399
  S     9.605593 11.440284  4.670314
