16  
    
  C    12.826318  9.232099  3.427816
  C    12.692656 12.941346  3.649338
  C    11.663160  8.601512  2.795802
  C    11.495005 12.449352  2.949848
  N    13.803499  9.513863  2.579473
  N    13.725878 13.142920  2.862903
  N    11.813858  8.435236  1.460301
  N    11.751333 12.074715  1.704665
  N    10.897135  9.314595  5.294692
  N    10.887154 12.624049  5.404606
  S    10.177575  8.645922  3.870088
  S    10.125639 12.174402  3.991774
  S    13.322762  8.969498  1.082624
  S    13.269389 12.615873  1.278620
  S    12.580000  9.501453  5.136616
  S    12.489560 13.228959  5.361176
