16  
    
  C    11.355256  8.526267  3.365709
  C    11.363357 12.386923  3.304146
  C    10.151060  7.905405  2.769767
  C    10.239969 11.659641  2.771453
  N    12.434705  8.629911  2.588024
  N    12.396768 12.523743  2.505124
  N    10.384401  7.514936  1.505622
  N    10.354046 11.330184  1.489870
  N     9.511110  8.457759  5.123657
  N     9.704179 12.463780  5.153355
  S     8.794444  7.766886  3.823397
  S     8.934188 11.707339  3.922807
  S    11.965776  8.020344  1.106798
  S    11.939797 11.723171  1.057177
  S    11.098628  8.996727  4.994016
  S    11.299392 12.748924  4.969924
