16  
    
  C     5.983510  4.841017  1.767308
  C     5.866227  9.164086  1.957900
  C     4.811286  4.475067  1.013610
  C     4.690876  8.645529  1.351859
  N     7.083814  4.930783  1.031492
  N     6.911905  9.322317  1.159821
  N     5.032338  4.427513 -0.298741
  N     4.793160  8.465464  0.019742
  N     3.983714  4.897129  3.391458
  N     4.121286  8.937436  3.830138
  S     3.347710  4.254631  1.986808
  S     3.382193  8.395063  2.519962
  S     6.616830  4.831152 -0.560245
  S     6.316305  8.938683 -0.332992
  S     5.577103  5.053045  3.527323
  S     5.650489  9.577674  3.626329
