16  
    
  C     5.918580  5.030143  1.679819
  C     6.016665  8.912037  2.097329
  C     4.649093  4.764572  1.049236
  C     4.790019  8.584927  1.418769
  N     6.877712  5.220238  0.791818
  N     7.023740  9.019205  1.241558
  N     4.747083  4.609951 -0.277138
  N     4.856463  8.503913  0.084440
  N     4.210861  5.103614  3.577024
  N     4.172969  8.811711  3.934222
  S     3.332452  4.660440  2.162183
  S     3.454612  8.607132  2.474132
  S     6.268337  5.009871 -0.713616
  S     6.461472  8.794747 -0.261038
  S     5.861143  5.410674  3.366243
  S     5.857324  9.115954  3.799060
