16  
    
  C     9.171413  6.945684  2.402976
  C     8.928538 10.812734  2.320508
  C     7.954376  6.368798  1.837700
  C     7.705991 10.280681  1.706156
  N    10.175756  7.063991  1.540890
  N     9.955028 10.910813  1.498134
  N     8.081858  6.296803  0.495167
  N     7.849497 10.102759  0.410173
  N     7.544071  6.868006  4.371805
  N     7.161629 10.732288  4.188454
  S     6.703615  6.393663  3.085831
  S     6.432198 10.028843  2.814025
  S     9.618665  6.779139  0.067101
  S     9.462878 10.530350  0.021130
  S     9.126814  7.307282  4.072062
  S     8.767437 11.172291  4.001629
