16  
    
  C     5.114540  5.352237  1.966165
  C     5.113351  8.691876  1.532061
  C     3.876545  5.040047  1.359046
  C     3.824586  8.403725  0.910853
  N     6.172256  5.169039  1.162763
  N     6.152133  8.682343  0.713241
  N     3.933526  4.556769  0.135492
  N     3.925218  8.156944 -0.389422
  N     3.306873  5.743247  3.757906
  N     3.360068  8.641981  3.427865
  S     2.493995  5.176010  2.390880
  S     2.495028  8.359764  2.010956
  S     5.528431  4.648655 -0.307983
  S     5.551476  8.355420 -0.777718
  S     4.935307  5.722423  3.674290
  S     5.011306  8.917014  3.246471
