16  
    
  C     3.554771  4.495205  1.603755
  C     3.816681  8.326399  1.662861
  C     2.451010  3.884472  0.964255
  C     2.596119  8.025266  1.017228
  N     4.509324  4.904282  0.797346
  N     4.843918  8.636757  0.860259
  N     2.493351  4.036856 -0.373784
  N     2.690901  7.826840 -0.294491
  N     1.941283  4.286116  3.460655
  N     2.145057  7.949819  3.531562
  S     1.189879  3.620093  2.142938
  S     1.250935  7.862102  2.149826
  S     3.973357  4.663844 -0.729703
  S     4.239393  8.280525 -0.674645
  S     3.490283  4.814987  3.271326
  S     3.739024  8.368884  3.388017
