16  
    
  C    12.041963  8.704018  3.387780
  C    11.953731 12.088053  3.227771
  C    10.758154  8.520510  2.696830
  C    10.606101 11.795942  2.750776
  N    13.056553  8.777729  2.528906
  N    12.839556 12.390043  2.271798
  N    10.811057  8.364762  1.373072
  N    10.538606 11.819749  1.442263
  N    10.229207  8.444470  5.270622
  N    10.289382 12.078568  5.217155
  S     9.443019  8.258515  3.799696
  S     9.317587 11.806446  3.857312
  S    12.438268  8.650692  1.002509
  S    12.013889 12.105560  0.822411
  S    11.895131  8.736010  5.134108
  S    11.956339 12.200321  5.025004
