16  
    
  C    12.054546  8.506026  3.453014
  C    12.050191 12.207068  3.265251
  C    10.844643  8.115252  2.752680
  C    10.930906 11.673165  2.574525
  N    13.117762  8.693041  2.693301
  N    13.133481 12.504739  2.539672
  N    10.960282  8.081236  1.433720
  N    11.240912 11.290663  1.332685
  N    10.255256  8.358840  5.303334
  N    10.341821 12.004880  5.026374
  S     9.438986  8.066464  3.909490
  S     9.632210 11.379574  3.694673
  S    12.574190  8.421708  1.105029
  S    12.781569 11.852165  1.069481
  S    11.875346  8.788420  5.138327
  S    11.892842 12.402018  4.954644
