16  
    
  C     5.607866  5.431549  1.958061
  C     5.629888  8.956593  1.904979
  C     4.485203  4.623594  1.463810
  C     4.412611  8.519569  1.283672
  N     6.542988  5.675038  1.044856
  N     6.630364  9.235016  1.087901
  N     4.519975  4.425670  0.143693
  N     4.513096  8.389649 -0.034448
  N     4.021486  4.979033  3.901992
  N     3.946389  8.514851  3.848596
  S     3.259329  4.305400  2.608619
  S     3.152953  8.057243  2.400405
  S     5.954093  5.026490 -0.394940
  S     6.105425  8.914900 -0.451023
  S     5.503885  5.700197  3.690484
  S     5.448750  9.121728  3.592772
