16  
    
  C     9.249626  6.875868  2.355715
  C     9.123077 10.942266  2.971060
  C     8.023908  6.338620  1.822263
  C     7.916766 10.400182  2.412974
  N    10.268370  6.797862  1.505271
  N    10.094945 11.126467  2.087671
  N     8.067128  6.021077  0.541996
  N     7.953467 10.159160  1.133064
  N     7.355479  6.983946  4.201431
  N     7.374517 10.837585  4.857072
  S     6.695250  6.309584  2.852773
  S     6.571698 10.432928  3.478134
  S     9.656773  6.229056  0.065840
  S     9.539392 10.606421  0.626748
  S     8.997941  7.280643  4.079870
  S     8.933310 11.343541  4.673456
