16  
    
  C    11.047969  8.199362  2.968876
  C    10.923344 11.516332  2.891234
  C     9.894653  7.394920  2.539554
  C     9.669563 11.193006  2.304254
  N    11.884665  8.517330  1.977573
  N    11.889959 11.807842  2.040826
  N     9.873980  7.147204  1.227804
  N     9.722619 11.096943  1.001229
  N     9.554793  7.887970  5.076397
  N     9.145581 11.416257  4.721288
  S     8.744558  7.075140  3.822537
  S     8.349859 10.860419  3.385155
  S    11.229494  7.841462  0.628644
  S    11.208239 11.598347  0.495373
  S    10.965812  8.633258  4.592741
  S    10.748740 11.691109  4.594493
