16  
    
  C     8.087223  6.583182  2.675273
  C     8.662274 10.441610  2.771590
  C     6.920267  6.103874  1.894499
  C     7.465534  9.956802  2.064910
  N     9.190447  6.815842  1.979726
  N     9.705717 10.557127  1.952148
  N     7.223473  5.921104  0.601172
  N     7.660577  9.689618  0.775940
  N     6.175144  6.349321  4.382235
  N     6.890734 10.277082  4.631820
  S     5.531285  5.802744  2.931679
  S     6.090474  9.964613  3.221339
  S     8.852143  6.444363  0.412204
  S     9.241032 10.135671  0.473883
  S     7.800753  6.785628  4.332404
  S     8.511579 10.636289  4.485065
