16  
    
  C    11.891474  8.381921  3.297660
  C    11.505308 12.063891  3.483756
  C    10.636200  8.119428  2.599868
  C    10.341031 11.473001  2.857466
  N    12.887785  8.665715  2.451896
  N    12.559002 12.334999  2.705157
  N    10.724174  8.188975  1.268820
  N    10.478991 11.314821  1.561672
  N    10.190904  8.148691  5.118717
  N     9.721919 11.715768  5.299122
  S     9.324569  8.176234  3.686042
  S     8.981764 11.126672  3.974876
  S    12.331939  8.562638  0.882907
  S    11.988419 12.048818  1.165986
  S    11.798039  8.453490  5.019464
  S    11.298253 12.144032  5.228145
