16  
    
  C    11.646420  8.590499  3.207766
  C    11.376960 12.229473  3.300534
  C    10.442044  7.983764  2.617824
  C    10.219514 11.728007  2.612358
  N    12.526368  8.947073  2.317652
  N    12.403440 12.621419  2.509525
  N    10.481183  7.963202  1.305369
  N    10.434439 11.499748  1.308189
  N    10.034339  8.217832  5.177663
  N     9.457915 11.882112  5.102942
  S     9.244984  7.757490  3.818483
  S     8.826488 11.344814  3.566717
  S    11.986903  8.573147  0.798639
  S    11.888172 12.285250  0.982065
  S    11.576669  8.849384  4.948193
  S    11.126608 12.227126  5.032145
