16  
    
  C    10.727660  8.296768  3.059680
  C    10.765786 11.838444  3.126011
  C     9.552534  7.748606  2.464326
  C     9.613416 11.272386  2.439833
  N    11.700615  8.569046  2.196259
  N    11.885647 11.919238  2.387782
  N     9.637668  7.593649  1.123802
  N     9.917953 11.088643  1.138742
  N     9.016266  7.930340  5.018357
  N     8.809917 11.700928  4.858187
  S     8.170437  7.699144  3.591418
  S     8.147687 11.350739  3.393396
  S    11.163276  8.036408  0.754896
  S    11.418400 11.584778  0.811515
  S    10.521782  8.715175  4.727529
  S    10.424977 12.078824  4.792945
