16  
    
  C     6.906672  5.852487  2.098037
  C     7.291635  9.904567  2.415227
  C     5.836245  5.344562  1.261875
  C     6.002433  9.529359  1.759498
  N     8.114251  5.836106  1.515222
  N     8.267040 10.111755  1.547129
  N     6.224371  5.071165  0.029434
  N     6.112638  9.365362  0.457628
  N     4.681610  5.799916  3.444852
  N     5.401581  9.689549  4.208078
  S     4.268344  5.276462  1.970441
  S     4.651933  9.299143  2.834448
  S     7.849941  5.308320 -0.042677
  S     7.616939  9.751007 -0.002969
  S     6.319980  6.123745  3.719136
  S     7.095230 10.067353  4.132169
