16  
    
  C    12.391416  8.992225  3.745947
  C    12.600866 12.798527  3.581555
  C    11.209099  8.420528  3.119525
  C    11.360576 12.455012  2.931076
  N    13.349149  9.402262  2.924569
  N    13.623297 12.813530  2.728903
  N    11.294117  8.264003  1.811242
  N    11.418840 12.446076  1.591969
  N    10.531984  8.562048  5.644528
  N    10.885045 12.517092  5.433919
  S     9.932741  7.990098  4.191078
  S     9.977466 12.241332  4.041255
  S    12.818897  8.904039  1.405522
  S    12.969057 12.738786  1.181311
  S    12.117861  9.276956  5.523873
  S    12.487453 12.946436  5.304230
