16  
    
  C     9.309278  6.959821  2.516466
  C     8.923545 10.936561  2.306815
  C     8.035932  6.497394  2.007891
  C     7.731000 10.401457  1.725437
  N    10.224354  7.138487  1.563019
  N     9.921670 11.158818  1.429613
  N     8.013935  6.277638  0.708098
  N     7.856546 10.132092  0.436286
  N     7.516139  6.946988  4.440922
  N     7.221350 10.534379  4.233324
  S     6.735720  6.336770  3.109581
  S     6.419380 10.126629  2.828867
  S     9.488537  6.720620  0.118788
  S     9.378871 10.609629 -0.001388
  S     9.164747  7.375110  4.245737
  S     8.665967 11.289048  4.038044
