16  
    
  C     6.847135  5.959212  1.607136
  C     7.259682  9.944194  2.483660
  C     5.773754  5.150954  1.102381
  C     6.018123  9.508370  1.912465
  N     7.793858  6.117296  0.707115
  N     8.258747  9.910449  1.625743
  N     5.933114  4.680731 -0.141586
  N     6.050389  9.206470  0.615514
  N     5.180514  5.839451  3.528092
  N     5.599397  9.840598  4.476993
  S     4.472959  4.899147  2.231885
  S     4.714686  9.531364  3.061627
  S     7.397730  5.285639 -0.673061
  S     7.598727  9.402955  0.130400
  S     6.736109  6.420399  3.287701
  S     7.186514 10.300143  4.198766
