16  
    
  C     5.768742  5.087997  1.969280
  C     5.644747  9.184138  1.990658
  C     4.594204  4.561225  1.329225
  C     4.551056  8.429010  1.471552
  N     6.725560  5.482769  1.122490
  N     6.604363  9.511950  1.132390
  N     4.710535  4.262517  0.044227
  N     4.591518  8.314685  0.150122
  N     3.952226  4.801661  3.808157
  N     4.086744  8.749897  3.962695
  S     3.264881  4.258458  2.357186
  S     3.255958  8.146307  2.647798
  S     6.223339  4.821305 -0.364534
  S     6.050177  9.031904 -0.377893
  S     5.472364  5.496615  3.601435
  S     5.620114  9.330241  3.719375
