16  
    
  C     3.637882  4.531728  1.604052
  C     3.706634  8.456110  1.528634
  C     2.417396  3.968264  0.971225
  C     2.471816  7.999984  0.868362
  N     4.473525  4.991285  0.652263
  N     4.734132  8.548801  0.682769
  N     2.434540  3.694343 -0.331016
  N     2.538303  8.124968 -0.459333
  N     1.974825  3.900899  3.542276
  N     1.977442  8.139268  3.346647
  S     1.262412  3.404178  2.047409
  S     1.176637  7.665673  1.916392
  S     3.929633  4.290828 -0.789477
  S     4.127358  8.448450 -0.835151
  S     3.461158  4.660618  3.376196
  S     3.555726  8.534617  3.218419
