16  
    
  C     7.378816  5.961614  2.234945
  C     7.783157  9.673241  2.297487
  C     6.156420  5.658244  1.503154
  C     6.538042  9.353342  1.668247
  N     8.436079  6.233061  1.453995
  N     8.804911  9.830737  1.480692
  N     6.287582  5.457277  0.195045
  N     6.591392  9.241688  0.344324
  N     5.487082  5.612691  3.938330
  N     6.014887  9.660758  4.165338
  S     4.830571  5.206605  2.540061
  S     5.184921  9.277965  2.846972
  S     7.879096  5.927159 -0.104577
  S     8.100090  9.632306 -0.087317
  S     7.087553  6.035797  3.899724
  S     7.665661  9.774714  4.014339
