16  
    
  C    10.983463  7.724207  3.185517
  C    11.367952 11.878854  2.954283
  C     9.794888  7.486951  2.325840
  C    10.270102 11.112700  2.422409
  N    12.114782  7.872128  2.506318
  N    12.388192 11.990513  2.136965
  N    10.033230  7.436768  1.001884
  N    10.397682 10.759022  1.153004
  N     9.021847  7.588364  4.781768
  N     9.848095 11.491409  4.980871
  S     8.321473  7.461916  3.250052
  S     9.063575 10.917590  3.594965
  S    11.700350  7.595479  0.883838
  S    11.899142 11.419822  0.664926
  S    10.616742  7.833664  4.860248
  S    11.305738 12.341136  4.627233
