16  
    
  C    11.933168  8.716327  3.457814
  C    11.762056 11.954215  3.204179
  C    10.749232  8.073935  2.891388
  C    10.488247 11.733833  2.567133
  N    12.906872  8.850859  2.576453
  N    12.749930 12.176703  2.356189
  N    10.848648  7.799078  1.606156
  N    10.504915 11.705072  1.215494
  N    10.332157  8.401450  5.401405
  N    10.195176 11.872879  5.111398
  S     9.468374  7.882251  4.079370
  S     9.284618 11.560685  3.810980
  S    12.387786  8.282022  1.151350
  S    12.163287 11.961327  0.831195
  S    11.905989  8.923569  5.144020
  S    11.711925 12.324374  4.922807
