16  
    
  C     7.909555  6.302158  2.173375
  C     8.118749 10.596696  2.209607
  C     6.682431  5.784304  1.546562
  C     6.969442  9.913327  1.621901
  N     8.864168  6.596544  1.264345
  N     9.074696 10.824138  1.300769
  N     6.702554  5.748816  0.215333
  N     7.118582  9.578617  0.353693
  N     6.193745  5.672764  4.023756
  N     6.312834 10.117591  4.022051
  S     5.374497  5.537556  2.625588
  S     5.589991  9.705820  2.575092
  S     8.261115  6.312450 -0.251586
  S     8.601758 10.162677 -0.139963
  S     7.737435  6.319620  3.911971
  S     7.855029 10.686062  3.928051
