16  
    
  C    10.730756  8.344657  3.000172
  C    10.775087 11.777118  3.092900
  C     9.519025  7.842610  2.393377
  C     9.558447 11.388517  2.323913
  N    11.728636  8.480524  2.152334
  N    11.865081 12.021117  2.356238
  N     9.606204  7.548565  1.110195
  N     9.820189 11.107916  1.033511
  N     9.018183  7.978991  4.826981
  N     8.872931 11.743278  4.788977
  S     8.183944  7.707843  3.442324
  S     8.174693 11.317530  3.318473
  S    11.172484  8.046926  0.625987
  S    11.478131 11.530698  0.828431
  S    10.567133  8.565318  4.740187
  S    10.477731 12.125487  4.789427
