16  
    
  C    12.631795  8.914709  3.708449
  C    12.407728 12.772373  3.924419
  C    11.414011  8.404110  3.022678
  C    11.339274 12.091982  3.216970
  N    13.641777  9.098296  2.892684
  N    13.521082 12.992341  3.220699
  N    11.497956  8.259287  1.704992
  N    11.618749 11.989946  1.901474
  N    11.060852  8.465380  5.687309
  N    10.559236 12.342393  5.717318
  S    10.179339  8.188938  4.224426
  S     9.955228 11.879090  4.279034
  S    13.144231  8.665290  1.424407
  S    13.092667 12.669916  1.640193
  S    12.573588  9.087098  5.410037
  S    12.069422 13.064326  5.570936
