16  
    
  C     9.888717  7.495892  2.486528
  C    10.432764 11.095228  2.637232
  C     8.666896  6.974382  1.915558
  C     9.116964 11.020638  1.959119
  N    10.888565  7.548191  1.641184
  N    11.461009 11.130183  1.785458
  N     8.824197  6.671662  0.625699
  N     9.192199 10.972066  0.613555
  N     8.323774  7.205045  4.484575
  N     8.639333 11.144944  4.530738
  S     7.485366  6.557790  3.194968
  S     7.782064 10.866131  3.099922
  S    10.382273  7.036075  0.184824
  S    10.813970 11.051016  0.271994
  S     9.854815  7.764385  4.151952
  S    10.287527 11.271340  4.358634
