16  
    
  C     9.775762  7.640109  2.671671
  C     9.799876 11.252272  2.936987
  C     8.574487  7.147219  2.036181
  C     8.684426 10.620186  2.267389
  N    10.847499  7.826189  1.885483
  N    10.875338 11.492519  2.150209
  N     8.705085  6.993261  0.707427
  N     8.867980 10.453461  0.960920
  N     8.093644  7.287617  4.559081
  N     8.060191 10.639937  4.736827
  S     7.256860  7.006558  3.157385
  S     7.354827 10.278393  3.299570
  S    10.287451  7.443011  0.315058
  S    10.424186 11.011892  0.619378
  S     9.662520  7.661361  4.438438
  S     9.541359 11.372957  4.672337
