16  
    
  C    12.729962  8.905114  3.572400
  C    12.324974 12.857942  3.834573
  C    11.525176  8.417942  3.013223
  C    11.203027 12.255738  3.190746
  N    13.748275  8.970457  2.689483
  N    13.337798 13.176607  3.040932
  N    11.480069  8.310521  1.660556
  N    11.381147 12.068061  1.899686
  N    10.909276  8.618096  5.577192
  N    10.464259 12.518697  5.572713
  S    10.117722  8.195972  4.067607
  S     9.955464 11.739281  4.200716
  S    13.014262  8.705282  1.206176
  S    12.865156 12.570987  1.531589
  S    12.486713  9.121344  5.299337
  S    12.075326 13.143499  5.573145
