16  
    
  C     9.139423  7.132676  2.306997
  C     9.030053 10.685152  2.365538
  C     7.952191  6.603146  1.741805
  C     7.841424 10.154659  1.781339
  N    10.111148  7.188299  1.397541
  N    10.048631 10.812095  1.499967
  N     7.987936  6.338120  0.453851
  N     7.883154  9.969062  0.484388
  N     7.381266  6.753438  4.189353
  N     7.167859 10.692023  4.185339
  S     6.609205  6.346481  2.799284
  S     6.470561 10.057080  2.803362
  S     9.497036  6.652916 -0.046965
  S     9.443119 10.378716 -0.026597
  S     9.011362  7.234069  4.087268
  S     8.787897 10.951620  4.072929
