16  
    
  C     5.361373  5.523838  1.621667
  C     5.252867  8.972991  1.485770
  C     4.064965  5.192969  1.057945
  C     4.095316  8.453124  0.840230
  N     6.329477  5.635506  0.721146
  N     6.330636  9.008558  0.702473
  N     4.084000  5.007580 -0.252491
  N     4.222623  8.160604 -0.443549
  N     3.778360  5.493346  3.673198
  N     3.409403  8.827152  3.276162
  S     2.918117  4.982482  2.349524
  S     2.703620  8.249160  1.893840
  S     5.636688  5.306065 -0.727535
  S     5.782933  8.508304 -0.795700
  S     5.387966  5.702886  3.353262
  S     5.001103  9.401544  3.169076
