16  
    
  C     6.655148  6.047422  2.384399
  C     7.027115  9.838299  2.251026
  C     5.505983  5.415295  1.835507
  C     5.810359  9.493942  1.581854
  N     7.502844  6.537927  1.490370
  N     8.082201  9.878682  1.481104
  N     5.598105  5.218067  0.515640
  N     5.911669  9.292074  0.277643
  N     5.338789  5.342889  4.453046
  N     5.420655  9.401181  4.137132
  S     4.578015  4.714689  3.055956
  S     4.515502  9.409663  2.767935
  S     6.947773  6.062348  0.024176
  S     7.539445  9.584078 -0.081586
  S     6.706166  6.173792  4.098066
  S     6.991043  9.836861  3.959000
