16  
    
  C    12.376385  8.997210  3.426852
  C    12.343312 12.826416  3.414046
  C    11.299038  8.546411  2.616521
  C    11.115112 12.247168  2.987279
  N    13.369623  9.490054  2.718202
  N    13.361541 12.856683  2.552167
  N    11.532836  8.608995  1.287979
  N    11.114030 12.029413  1.682516
  N    10.632063  8.448530  5.156333
  N    10.759121 12.666472  5.449112
  S     9.954026  7.994451  3.670002
  S    10.001419 11.878959  4.235747
  S    13.016322  9.238938  1.116743
  S    12.621114 12.467575  1.082805
  S    12.056067  9.232080  5.141656
  S    12.371424 13.063961  5.157625
