16  
    
  C    11.944734  8.661800  3.502722
  C    11.790685 12.160686  3.184845
  C    10.731159  8.145121  2.838398
  C    10.535752 11.775406  2.611890
  N    12.994983  8.823970  2.719188
  N    12.839587 12.221846  2.353589
  N    10.938056  7.803157  1.570663
  N    10.625134 11.673749  1.267672
  N    10.293352  8.359072  5.455231
  N    10.179188 11.863493  5.262771
  S     9.484583  7.877598  4.033038
  S     9.305987 11.558196  3.824584
  S    12.489181  8.311028  1.186285
  S    12.220890 11.884585  0.887407
  S    11.872809  8.868321  5.222208
  S    11.853728 12.258772  4.892884
