16  
    
  C     5.092782  5.424687  1.833584
  C     5.134946  8.702598  1.375801
  C     3.805833  4.933691  1.329538
  C     3.846610  8.342068  0.858400
  N     6.111791  5.349616  1.002940
  N     6.067972  8.895790  0.448401
  N     3.906174  4.578294  0.052951
  N     3.838398  8.044478 -0.440990
  N     3.473332  5.712244  3.832788
  N     3.429600  8.901454  3.348761
  S     2.507786  5.263741  2.458996
  S     2.587757  8.333899  2.028608
  S     5.514811  4.752507 -0.417308
  S     5.381162  8.429615 -0.978691
  S     5.127307  5.830715  3.488557
  S     5.052598  9.054153  3.067822
