16  
    
  C     5.072599  5.335858  1.899811
  C     5.106116  8.740858  1.451639
  C     3.811221  4.991709  1.290110
  C     3.824182  8.298450  0.881438
  N     6.098410  5.343043  1.061483
  N     6.103666  8.774595  0.569070
  N     3.909681  4.580763  0.027458
  N     3.900043  8.101060 -0.441814
  N     3.356347  5.805585  3.747527
  N     3.405582  8.801936  3.381196
  S     2.526199  5.220830  2.460605
  S     2.519376  8.341594  2.043550
  S     5.532093  4.655443 -0.314399
  S     5.433601  8.389912 -0.918269
  S     5.006686  5.754881  3.594201
  S     5.041068  8.973574  3.193551
