16  
    
  C     7.905112  6.346111  2.219352
  C     8.046526 10.234905  2.192434
  C     6.690782  5.843529  1.554200
  C     6.809610  9.792873  1.525586
  N     8.934676  6.516280  1.373922
  N     9.125914 10.338953  1.422557
  N     6.788340  5.869791  0.205065
  N     6.990504  9.650934  0.223621
  N     6.237012  5.929094  4.115481
  N     6.297857 10.075714  4.060056
  S     5.461686  5.463123  2.703165
  S     5.523823  9.633983  2.693808
  S     8.343809  6.302748 -0.153295
  S     8.531028 10.103874 -0.139680
  S     7.821733  6.237145  3.932357
  S     7.877613 10.545679  3.867829
