16  
    
  C     9.449361  7.071948  2.971297
  C     9.593316 10.830182  2.614907
  C     8.330223  6.540402  2.248173
  C     8.322704 10.455345  2.010882
  N    10.439036  7.554505  2.258757
  N    10.566759 11.124347  1.746498
  N     8.556292  6.493992  0.940840
  N     8.384623 10.314977  0.702537
  N     7.724226  6.441373  4.790057
  N     7.932797 10.396389  4.570507
  S     7.031058  6.019512  3.305422
  S     7.080179 10.090171  3.133431
  S    10.053285  7.264686  0.687127
  S     9.954380 10.805303  0.273318
  S     9.280288  7.016886  4.677267
  S     9.512995 10.912059  4.344713
