16  
    
  C     9.521601  7.563810  2.561843
  C    10.161353 11.403152  2.560786
  C     8.433449  6.752029  2.070633
  C     8.909431 10.906899  1.987106
  N    10.545274  7.890389  1.744536
  N    11.187502 11.450297  1.714900
  N     8.661536  6.374514  0.811232
  N     8.992277 10.745271  0.662715
  N     7.827603  7.448709  4.495928
  N     8.569832 11.092315  4.510278
  S     7.158730  6.555864  3.276394
  S     7.696187 10.717270  3.155901
  S    10.188806  6.996049  0.379298
  S    10.563005 11.037049  0.196168
  S     9.400364  7.923186  4.262210
  S    10.098407 11.599832  4.279056
