16  
    
  C    12.070145  8.602390  3.353116
  C    12.145603 12.143588  3.273917
  C    10.811207  8.240890  2.759417
  C    10.997566 11.490479  2.645295
  N    13.082386  8.657529  2.482675
  N    13.114389 12.445182  2.431841
  N    10.770068  8.112096  1.426074
  N    11.196365 11.310064  1.344921
  N    10.373201  8.433010  5.233184
  N    10.247443 12.011146  5.056782
  S     9.504051  8.065889  3.874679
  S     9.530425 11.538118  3.646253
  S    12.354587  8.369598  0.977476
  S    12.616272 11.923150  0.864501
  S    11.960368  8.735371  5.095245
  S    11.889049 12.372510  5.005349
