16  
    
  C    11.739988  8.540816  3.186104
  C    11.342133 12.161622  3.338687
  C    10.502275  8.094002  2.603327
  C    10.233692 11.575165  2.630073
  N    12.685424  8.894367  2.305542
  N    12.334563 12.638719  2.628555
  N    10.484431  8.078379  1.264500
  N    10.454502 11.513496  1.336547
  N    10.126314  8.169778  5.229228
  N     9.508939 11.803441  5.094748
  S     9.238744  7.714515  3.811442
  S     8.822747 11.357144  3.667934
  S    12.014267  8.618794  0.794690
  S    11.896009 12.248617  1.015652
  S    11.642505  8.777341  4.911185
  S    11.120285 12.232216  4.991173
