16  
    
  C     9.794022  7.427076  2.453059
  C    10.406955 11.211973  2.572416
  C     8.602126  6.850746  1.893586
  C     9.169939 10.892588  1.974794
  N    10.871917  7.537624  1.670942
  N    11.439700 11.238043  1.751253
  N     8.724250  6.598284  0.591546
  N     9.215603 10.879848  0.661744
  N     8.280142  7.186297  4.452537
  N     8.629882 11.094751  4.476801
  S     7.447637  6.558131  3.213228
  S     7.806576 10.897669  3.097953
  S    10.318175  7.065296  0.175008
  S    10.801835 11.095756  0.210742
  S     9.768459  7.855143  4.154066
  S    10.282463 11.367491  4.347369
