16  
    
  C    10.738006  8.321255  3.022934
  C    10.766182 11.776768  3.100936
  C     9.495456  7.800747  2.428205
  C     9.591882 11.362774  2.353920
  N    11.746733  8.525123  2.175803
  N    11.856561 11.987555  2.366528
  N     9.608396  7.565095  1.112703
  N     9.810417 11.069471  1.065645
  N     9.036744  7.950161  4.895897
  N     8.862712 11.718686  4.781824
  S     8.168938  7.710598  3.462423
  S     8.154521 11.336894  3.337340
  S    11.158861  8.039739  0.644186
  S    11.487207 11.557062  0.816964
  S    10.554903  8.614422  4.737274
  S    10.464236 12.117336  4.796335
