16  
    
  C     8.617722  7.272110  2.669989
  C     8.913313 11.089094  2.236817
  C     7.466032  6.654631  2.129746
  C     7.769891 10.603951  1.535764
  N     9.568266  7.528957  1.781122
  N     9.928874 11.375039  1.430376
  N     7.551165  6.375709  0.827069
  N     7.886598 10.569194  0.190730
  N     7.082479  6.969575  4.636809
  N     7.256741 10.396777  4.057169
  S     6.365618  6.178912  3.378716
  S     6.475528 10.150455  2.599687
  S     9.037901  6.917925  0.373439
  S     9.440186 11.133631 -0.075159
  S     8.665541  7.469823  4.403336
  S     8.790262 11.038206  3.955563
