16  
    
  C     5.607657  5.424198  1.954449
  C     5.577145  8.998493  1.886207
  C     4.451848  4.744119  1.430972
  C     4.434137  8.465423  1.233093
  N     6.527875  5.706297  1.046260
  N     6.620162  9.210110  1.099131
  N     4.507850  4.379777  0.160104
  N     4.526279  8.371467 -0.077118
  N     4.070988  4.946991  3.921997
  N     3.916190  8.457397  3.771276
  S     3.226035  4.342605  2.605540
  S     3.144235  8.100893  2.385543
  S     5.933740  5.054543 -0.421896
  S     6.114889  8.891215 -0.457292
  S     5.521476  5.716081  3.729352
  S     5.410405  9.114342  3.581557
