16  
    
  C     7.962088  6.507245  2.585774
  C     8.526329 10.332061  2.435566
  C     6.845119  6.083083  1.847162
  C     7.284757  9.881539  1.874130
  N     9.075799  6.777653  1.930202
  N     9.553712 10.445601  1.588891
  N     7.063302  5.944914  0.532137
  N     7.292951  9.650172  0.580530
  N     6.142318  6.268828  4.390230
  N     6.922009 10.400655  4.418551
  S     5.428555  5.961806  2.923495
  S     6.036551  9.714184  3.171844
  S     8.662853  6.392155  0.321497
  S     8.907732  9.843719  0.132190
  S     7.739800  6.815824  4.255705
  S     8.567780 10.551286  4.134630
