16  
    
  C    12.064913  8.510976  3.474981
  C    12.052731 12.251927  3.254195
  C    10.846155  8.097665  2.763070
  C    10.926293 11.692236  2.581996
  N    13.143075  8.713086  2.700119
  N    13.153253 12.476546  2.562775
  N    10.971239  8.092657  1.435625
  N    11.258034 11.323242  1.354460
  N    10.272393  8.356390  5.302018
  N    10.326478 11.984115  5.017466
  S     9.432150  8.065260  3.905112
  S     9.649915 11.357334  3.702937
  S    12.594993  8.417075  1.124967
  S    12.774715 11.834364  1.067098
  S    11.846479  8.784634  5.154001
  S    11.889225 12.411620  4.960648
