16  
    
  C     5.988321  5.123481  1.655380
  C     5.953311  9.101199  1.967149
  C     4.794651  4.611046  0.959547
  C     4.738647  8.739878  1.295863
  N     7.055796  5.170222  0.844262
  N     6.994987  9.269542  1.160960
  N     4.891243  4.464948 -0.361210
  N     4.836715  8.425141  0.015296
  N     4.182884  4.675034  3.421828
  N     4.255860  8.828455  3.848994
  S     3.398007  4.450203  2.023791
  S     3.433634  8.584630  2.387711
  S     6.516813  4.807747 -0.713735
  S     6.407045  8.763869 -0.349127
  S     5.822832  4.997313  3.423775
  S     5.801988  9.340643  3.676855
