16  
    
  C     6.085173  5.618607  2.075714
  C     6.058556  9.153073  1.559081
  C     4.801916  5.432266  1.506257
  C     4.827456  8.702141  0.987991
  N     7.120907  5.573581  1.256080
  N     7.072248  9.379522  0.723110
  N     4.771985  5.207364  0.188317
  N     4.926595  8.460158 -0.313321
  N     4.432013  5.859378  4.050785
  N     4.225997  9.231142  3.446023
  S     3.529443  5.696390  2.680912
  S     3.464520  8.643859  2.060653
  S     6.399808  5.350147 -0.224508
  S     6.447538  8.854425 -0.781733
  S     6.047593  5.880685  3.774497
  S     5.891146  9.441541  3.288202
