16  
    
  C    11.751367  8.777244  3.506233
  C    11.534844 12.091307  3.321207
  C    10.543362  8.427337  2.807247
  C    10.407770 11.610406  2.493190
  N    12.841600  8.765629  2.733609
  N    12.641908 12.263800  2.619053
  N    10.723762  8.144664  1.520303
  N    10.657151 11.552237  1.175809
  N     9.968251  8.548842  5.363691
  N     9.701156 11.870778  4.960525
  S     9.195896  8.211703  3.906953
  S     8.985227 11.578272  3.510991
  S    12.364096  8.438273  1.189406
  S    12.299586 11.889093  1.050468
  S    11.580287  8.948358  5.264408
  S    11.320359 12.137359  5.028292
