16  
    
  C     5.282845  5.465764  1.737670
  C     5.125966  8.866557  1.294005
  C     4.012150  4.975437  1.302427
  C     3.848245  8.500081  0.748331
  N     6.208001  5.404327  0.779686
  N     6.113692  8.950348  0.413256
  N     3.876604  4.795994 -0.016789
  N     3.889019  8.116695 -0.532131
  N     3.677260  5.397920  3.839865
  N     3.496784  8.935422  3.290484
  S     2.761109  5.217059  2.434572
  S     2.632244  8.287054  1.996785
  S     5.421484  4.933291 -0.620742
  S     5.505496  8.427756 -1.026136
  S     5.244322  5.968186  3.442296
  S     5.089351  9.300106  2.975859
