16  
    
  C     7.542842  6.058511  2.173176
  C     7.930999  9.869574  2.234832
  C     6.341755  5.462726  1.597005
  C     6.682413  9.454411  1.694938
  N     8.475699  6.403226  1.302572
  N     8.915310 10.024297  1.343478
  N     6.372484  5.375235  0.279139
  N     6.684949  9.308366  0.382902
  N     5.759716  5.783483  4.044131
  N     6.331199  9.468123  4.275823
  S     5.043361  5.169303  2.681795
  S     5.492751  9.131094  2.901499
  S     7.871454  6.022038 -0.225105
  S     8.147776  9.695133 -0.155890
  S     7.410397  6.180951  3.947804
  S     7.879071 10.141606  3.990863
