16  
    
  C     6.818596  6.120249  2.333138
  C     7.273784  9.701846  2.114051
  C     5.817468  5.381515  1.590691
  C     5.975603  9.413509  1.489766
  N     7.896528  6.469697  1.618828
  N     8.277354  9.834635  1.239533
  N     6.011943  5.355236  0.274083
  N     6.061150  9.297600  0.156562
  N     4.908698  5.612291  4.001238
  N     5.474309  9.735222  4.018662
  S     4.467081  4.921531  2.532762
  S     4.685856  9.343381  2.573435
  S     7.503737  6.020378  0.050368
  S     7.711188  9.497430 -0.244150
  S     6.445087  6.096083  4.024355
  S     7.157983  9.787741  3.858195
