16  
    
  C     9.171730  6.740178  2.356109
  C     9.136243 10.811465  2.975883
  C     7.964855  6.278235  1.761789
  C     7.913719 10.412261  2.422348
  N    10.251767  6.804943  1.556306
  N    10.149134 10.928507  2.127464
  N     8.199864  5.752169  0.552669
  N     7.996155  9.989275  1.137792
  N     7.410205  7.036732  4.163498
  N     7.380897 10.975864  4.858026
  S     6.605903  6.315310  2.911906
  S     6.561677 10.556110  3.474027
  S     9.787171  6.097812  0.180838
  S     9.581740 10.411547  0.682619
  S     9.087571  7.244479  4.015613
  S     9.013179 11.200680  4.719209
