16  
    
  C    11.223413  8.196142  3.185883
  C    11.437710 11.612661  3.284793
  C     9.932525  7.726345  2.616651
  C    10.161476 11.488833  2.672503
  N    12.245833  8.235683  2.351786
  N    12.433061 11.676119  2.429502
  N     9.990244  7.410652  1.319475
  N    10.189652 11.265701  1.366840
  N     9.467610  8.155692  5.157763
  N     9.687468 11.752958  5.152550
  S     8.723878  7.618433  3.776023
  S     8.811424 11.625460  3.760099
  S    11.594415  7.673013  0.888778
  S    11.792402 11.481002  0.879072
  S    11.141547  8.456790  4.912945
  S    11.334030 11.935892  4.979399
