16  
    
  C    11.866831  8.677298  3.523031
  C    11.563385 12.316605  3.256868
  C    10.607879  8.348968  2.928686
  C    10.461715 11.709674  2.560191
  N    12.879152  8.815379  2.652875
  N    12.666442 12.444790  2.533811
  N    10.673932  8.194227  1.604252
  N    10.682407 11.484250  1.275783
  N    10.054535  8.563917  5.376403
  N     9.568632 11.879154  4.963201
  S     9.243315  8.278109  3.928792
  S     9.003045 11.427393  3.455188
  S    12.246871  8.440982  1.174594
  S    12.254833 11.892577  0.997602
  S    11.636934  9.013627  5.202516
  S    11.197032 12.358200  5.014596
