16  
    
  C     5.493008  5.545646  1.669759
  C     5.334095  8.871955  1.663415
  C     4.249036  5.009986  1.103967
  C     4.164609  8.424233  0.924807
  N     6.441451  5.726792  0.727509
  N     6.372100  9.198017  0.886515
  N     4.252994  5.027978 -0.245448
  N     4.377663  8.131477 -0.361999
  N     3.660575  5.197972  3.566565
  N     3.350429  8.733044  3.373524
  S     2.857089  5.042352  2.108272
  S     2.705319  8.347642  1.904445
  S     5.752309  5.458215 -0.753255
  S     5.964625  8.676039 -0.664141
  S     5.330045  5.676275  3.413782
  S     4.947775  9.199630  3.323741
