16  
    
  C     7.633779  6.320321  2.235996
  C     7.832486 10.103267  2.445105
  C     6.425947  5.821185  1.650049
  C     6.745848  9.446724  1.838821
  N     8.584905  6.439248  1.292445
  N     8.736154 10.469269  1.541855
  N     6.374678  5.736140  0.327667
  N     6.792947  9.256687  0.511825
  N     5.902276  5.948628  4.182896
  N     6.107691  9.578494  4.312230
  S     5.158428  5.481870  2.741672
  S     5.391799  9.147233  2.873509
  S     7.971719  6.044389 -0.203953
  S     8.247565  9.905884  0.037565
  S     7.548386  6.364772  3.995456
  S     7.679520 10.175835  4.202309
