16  
    
  C     7.156283  6.135675  2.065053
  C     7.406914  9.702602  2.480533
  C     6.079850  5.481079  1.370826
  C     6.156687  9.468350  1.840039
  N     8.282692  6.231682  1.316547
  N     8.456890  9.736400  1.655295
  N     6.267198  5.317364  0.073275
  N     6.219491  9.234053  0.536200
  N     5.175215  5.723066  3.790102
  N     5.491850  9.533306  4.303443
  S     4.718053  5.073540  2.353865
  S     4.786178  9.557807  2.806827
  S     7.844940  5.668142 -0.194740
  S     7.865649  9.359367  0.180107
  S     6.785018  6.276479  3.815939
  S     7.138248  9.984134  4.222042
