16  
    
  C     9.138577  6.962656  2.686749
  C     9.694278 10.844006  2.776108
  C     7.996358  6.409134  1.976621
  C     8.552266 10.090138  2.154955
  N    10.123319  7.235505  1.860823
  N    10.587603 11.215087  1.867645
  N     8.098911  6.288184  0.676264
  N     8.575509 10.058413  0.859271
  N     7.389621  6.456764  4.450004
  N     8.191206 10.110978  4.678539
  S     6.677318  6.036796  3.025236
  S     7.340929  9.652483  3.303093
  S     9.690258  6.798575  0.342226
  S    10.034554 10.766533  0.384700
  S     9.036913  6.824038  4.384540
  S     9.598950 10.977195  4.479297
