16  
    
  C     9.382829  7.017233  2.908691
  C     9.639571 10.827054  2.611898
  C     8.173797  6.548458  2.240837
  C     8.461486 10.206188  1.980988
  N    10.387716  7.303997  2.079328
  N    10.613309 11.188390  1.801919
  N     8.261409  6.528841  0.913803
  N     8.587684 10.241129  0.658480
  N     7.549955  6.560878  4.753708
  N     7.971853 10.293865  4.507067
  S     6.925888  5.954014  3.307753
  S     7.227960  9.783719  3.131103
  S     9.760341  7.032738  0.541027
  S    10.014107 10.896612  0.241523
  S     9.157892  6.909837  4.673872
  S     9.529251 10.872780  4.336694
