16  
    
  C     3.558588  4.678488  1.525048
  C     3.813438  8.354548  1.678234
  C     2.318530  4.403940  0.854763
  C     2.613708  7.881122  1.108288
  N     4.601029  5.065422  0.774913
  N     4.879446  8.275981  0.874013
  N     2.554061  4.295605 -0.463947
  N     2.631071  7.755391 -0.238948
  N     1.981071  4.306626  3.448504
  N     2.145976  8.278156  3.610524
  S     1.070860  4.183153  2.037422
  S     1.312351  7.874141  2.220558
  S     4.122993  4.643062 -0.727461
  S     4.212452  7.972706 -0.638803
  S     3.569866  4.863804  3.205332
  S     3.754555  8.677509  3.390462
