16  
    
  C     6.580819  5.731320  2.009833
  C     6.619554  9.424981  1.867107
  C     5.313391  5.451877  1.434033
  C     5.465367  8.850021  1.252479
  N     7.556487  5.937184  1.127421
  N     7.642526  9.631097  1.039720
  N     5.306883  5.164079  0.125144
  N     5.529358  8.713874 -0.084521
  N     4.900861  5.766676  3.993221
  N     4.827460  8.934661  3.803355
  S     4.087711  5.359411  2.635305
  S     4.100178  8.686954  2.323906
  S     6.874672  5.535055 -0.333499
  S     6.994879  9.320445 -0.511781
  S     6.506633  6.083449  3.721451
  S     6.438809  9.664946  3.644846
