16  
    
  C     7.809698  6.600050  2.415708
  C     7.949023 10.391682  2.022265
  C     6.654992  6.098029  1.690148
  C     6.684945  9.887751  1.568283
  N     8.927720  6.673674  1.679356
  N     8.863872 10.545856  1.058890
  N     6.889196  5.878898  0.391462
  N     6.680923  9.563911  0.270669
  N     5.877957  6.303773  4.125875
  N     6.328382 10.364549  4.068903
  S     5.172306  5.933060  2.600711
  S     5.442893  9.868173  2.742954
  S     8.560931  6.218647  0.111751
  S     8.220787  9.945077 -0.333207
  S     7.492185  6.776864  4.126024
  S     7.965289 10.625882  3.773614
