16  
    
  C     8.204560  6.670092  2.486903
  C     8.530693 10.102905  2.321511
  C     7.043268  6.209188  1.850000
  C     7.259750  9.670741  1.857354
  N     9.248658  6.776731  1.662311
  N     9.477511 10.278414  1.407128
  N     7.128963  6.108034  0.517888
  N     7.196636  9.535966  0.538502
  N     6.356580  6.314139  4.321821
  N     6.870337 10.291721  4.334303
  S     5.629985  5.930561  2.831174
  S     6.003533  9.792102  3.029396
  S     8.665468  6.407935  0.125837
  S     8.690007  9.914067 -0.086339
  S     7.966984  6.742495  4.295623
  S     8.508022 10.510291  4.077804
