16  
    
  C    12.421661  9.098201  3.367762
  C    12.292999 12.843615  3.347099
  C    11.130402  8.715642  2.863494
  C    11.127384 12.209375  2.721675
  N    13.357661  9.159443  2.431492
  N    13.372217 12.779006  2.598140
  N    11.182870  8.403293  1.581117
  N    11.333482 11.809714  1.451190
  N    10.738463  9.231102  5.402210
  N    10.618599 12.516468  5.261255
  S     9.932376  8.652646  4.056400
  S     9.771961 11.979109  3.901282
  S    12.699065  8.598561  1.046819
  S    12.954135 12.229635  1.109299
  S    12.424226  9.571171  5.067655
  S    12.108306 13.199758  5.074192
