16  
    
  C     6.543687  5.898025  1.975872
  C     6.625071  9.360304  1.870972
  C     5.314185  5.385313  1.435041
  C     5.421493  8.902803  1.280066
  N     7.513216  5.906358  1.074005
  N     7.567773  9.709408  1.019729
  N     5.291511  5.246727  0.107032
  N     5.495475  8.753529 -0.037644
  N     4.947044  5.718823  3.969190
  N     5.005127  8.991653  3.764621
  S     4.047755  5.401253  2.622392
  S     4.114676  8.803244  2.381767
  S     6.853367  5.461386 -0.384578
  S     7.019961  9.314023 -0.468731
  S     6.573466  6.065724  3.702872
  S     6.440911  9.666364  3.561305
