16  
    
  C     5.312765  5.482308  1.648662
  C     5.155520  9.022886  1.324921
  C     3.979222  5.211373  1.156902
  C     3.973110  8.484928  0.785612
  N     6.294477  5.506086  0.752549
  N     6.197606  8.937658  0.505486
  N     3.970863  4.909131 -0.125899
  N     4.051711  8.242708 -0.526715
  N     3.830728  5.525001  3.711396
  N     3.449182  8.933697  3.258723
  S     2.795026  5.043923  2.479515
  S     2.715716  8.228732  1.972159
  S     5.524797  5.102045 -0.696288
  S     5.619794  8.411044 -0.937793
  S     5.364822  5.850358  3.351753
  S     5.020157  9.391672  3.006537
