16  
    
  C     6.562299  5.858780  1.902138
  C     6.621070  9.604231  1.898612
  C     5.286473  5.416528  1.376713
  C     5.340683  9.221981  1.302646
  N     7.549319  5.814670  1.025501
  N     7.594177  9.691174  1.019607
  N     5.292725  5.311448  0.049864
  N     5.407659  8.881087  0.011167
  N     4.950886  5.787048  3.903529
  N     5.020187  9.215578  3.860243
  S     4.133905  5.457268  2.579599
  S     4.126383  8.932782  2.499469
  S     6.882067  5.487481 -0.438395
  S     6.972555  9.245735 -0.498167
  S     6.583129  5.987685  3.619328
  S     6.544031  9.710879  3.653076
