16  
    
  C     5.337009  5.429906  1.727952
  C     5.131736  8.942392  1.275110
  C     4.003652  5.062879  1.235534
  C     3.876025  8.481399  0.735634
  N     6.215573  5.461740  0.724771
  N     6.176810  8.955591  0.447860
  N     3.914251  4.858813 -0.065659
  N     3.916402  8.171704 -0.558228
  N     3.698816  5.417174  3.782462
  N     3.483150  8.942533  3.291812
  S     2.780827  5.158754  2.466708
  S     2.681300  8.272407  1.999684
  S     5.448736  4.978428 -0.643249
  S     5.543081  8.412641 -1.000401
  S     5.299214  5.948259  3.417694
  S     5.047517  9.332768  2.973572
