16  
    
  C     5.994759  5.688456  2.164050
  C     5.973277  9.207399  1.594973
  C     4.679779  5.566212  1.583971
  C     4.750518  8.916494  0.913552
  N     7.014178  5.459028  1.336488
  N     7.076595  9.200845  0.858002
  N     4.667520  5.396833  0.271755
  N     4.910045  8.578852 -0.369701
  N     4.237519  5.855237  4.063199
  N     4.141934  9.021877  3.410746
  S     3.305698  5.697230  2.648231
  S     3.355500  8.783290  2.011631
  S     6.274483  5.286166 -0.176378
  S     6.502374  8.783228 -0.686592
  S     5.867676  5.831945  3.909486
  S     5.771837  9.533044  3.258699
