16  
    
  C    12.632773  8.935592  3.703210
  C    12.422214 12.755052  3.942016
  C    11.424457  8.385061  3.045243
  C    11.352973 12.113772  3.205616
  N    13.653496  9.114108  2.894907
  N    13.515350 12.983783  3.246151
  N    11.517697  8.266939  1.722851
  N    11.636598 11.969016  1.894455
  N    11.043799  8.457351  5.715565
  N    10.568464 12.325168  5.715658
  S    10.187844  8.189082  4.228977
  S     9.966378 11.891651  4.277332
  S    13.138018  8.664817  1.442330
  S    13.102928 12.671500  1.648254
  S    12.576549  9.078327  5.414252
  S    12.079252 13.053665  5.572065
