16  
    
  C     5.987110  4.985791  1.660512
  C     5.941898  9.134470  1.949617
  C     4.792583  4.584386  0.963574
  C     4.742417  8.667211  1.305555
  N     7.043682  5.166822  0.880797
  N     6.984000  9.254042  1.140587
  N     4.939538  4.478292 -0.357209
  N     4.842274  8.448469 -0.018820
  N     4.211444  4.694627  3.421753
  N     4.218722  8.819800  3.790239
  S     3.380296  4.415968  1.983226
  S     3.439119  8.568095  2.402586
  S     6.547503  4.799841 -0.648356
  S     6.377564  8.788139 -0.347278
  S     5.799310  4.992845  3.412093
  S     5.778649  9.411774  3.698249
