16  
    
  C     7.801944  6.651088  2.402168
  C     7.966173 10.356813  2.033102
  C     6.679790  6.099384  1.723487
  C     6.725284  9.884122  1.571104
  N     8.927991  6.678269  1.687245
  N     8.866862 10.499587  1.031298
  N     6.879602  5.904500  0.411989
  N     6.636002  9.592822  0.276719
  N     5.899348  6.311017  4.135698
  N     6.305234 10.372588  4.044400
  S     5.178045  5.954781  2.588540
  S     5.431591  9.871316  2.718139
  S     8.529999  6.193582  0.134471
  S     8.215296  9.929872 -0.334600
  S     7.474369  6.799589  4.128727
  S     7.934860 10.617304  3.779293
