16  
    
  C    12.074826  8.554983  3.620200
  C    12.110515 12.083350  3.338281
  C    10.912014  8.215496  2.853248
  C    10.927036 11.504497  2.726812
  N    13.143723  8.783737  2.867746
  N    13.210661 12.188168  2.555191
  N    11.139087  8.118130  1.564593
  N    11.030461 11.411293  1.393398
  N    10.104731  8.335415  5.310107
  N    10.303263 11.957344  5.243594
  S     9.450288  8.004018  3.845528
  S     9.602632 11.342571  3.769427
  S    12.755386  8.390902  1.317010
  S    12.636437 11.919012  1.040204
  S    11.752497  8.721612  5.306229
  S    11.890710 12.476615  4.991525
