16  
    
  C     6.689463  6.108473  2.408651
  C     7.078581  9.837274  2.240027
  C     5.531411  5.438342  1.805077
  C     5.822219  9.496088  1.555626
  N     7.516382  6.572492  1.487227
  N     8.151739  9.840897  1.456319
  N     5.607973  5.243893  0.484601
  N     5.975968  9.310474  0.251169
  N     5.330279  5.279679  4.413883
  N     5.449858  9.355587  4.176467
  S     4.556646  4.686005  3.042814
  S     4.535861  9.443008  2.736854
  S     6.974585  6.072080  0.018928
  S     7.538832  9.546671 -0.105824
  S     6.720956  6.216546  4.131631
  S     7.014455  9.832276  3.935615
