16  
    
  C     9.309555  6.697309  2.415633
  C     9.241300 10.661841  2.884047
  C     8.112956  6.305182  1.729459
  C     8.038844 10.427634  2.206785
  N    10.427642  6.573652  1.688948
  N    10.340445 10.341635  2.160243
  N     8.285178  5.993683  0.442150
  N     8.135205 10.040057  0.940695
  N     7.358831  6.929496  4.075362
  N     7.423044 10.709385  4.677344
  S     6.669208  6.208802  2.769049
  S     6.620832 10.776731  3.217509
  S     9.884205  6.137162  0.177027
  S     9.747142  9.972541  0.660055
  S     9.016908  7.159119  4.039790
  S     9.072459 11.102779  4.547562
