16  
    
  C     9.858480  7.850412  2.712063
  C    10.564609 11.576645  3.125538
  C     8.871679  7.118697  1.985487
  C     9.426733 11.168459  2.409215
  N    10.979159  8.083961  2.008483
  N    11.679959 11.603345  2.377753
  N     9.219718  6.780222  0.726432
  N     9.629349 10.994042  1.093109
  N     8.016107  7.193206  4.449448
  N     8.688890 11.292074  4.822891
  S     7.456747  6.678614  2.972735
  S     7.972682 11.063804  3.354696
  S    10.689381  7.433185  0.510588
  S    11.258813 11.226680  0.839363
  S     9.427212  8.086982  4.427231
  S    10.306927 11.725160  4.864062
