16  
    
  C     8.872897  7.120805  2.713332
  C     8.956235 10.998683  2.312828
  C     7.620467  6.513970  2.212675
  C     7.749451 10.532945  1.659068
  N     9.750697  7.386616  1.742468
  N     9.928919 11.393720  1.444763
  N     7.726307  6.174349  0.926547
  N     7.808863 10.594656  0.348207
  N     7.238267  6.909271  4.763966
  N     7.172638 10.573097  4.161228
  S     6.413910  6.249424  3.490619
  S     6.479053 10.031091  2.739090
  S     9.131926  6.798086  0.324659
  S     9.345135 11.200052 -0.043327
  S     8.698923  7.626887  4.365585
  S     8.711661 11.152707  4.047769
