16  
    
  C     7.666220  6.484139  2.288776
  C     7.822262 10.021230  2.460344
  C     6.355352  6.021986  1.844793
  C     6.607106  9.624489  1.729432
  N     8.575202  6.548316  1.315958
  N     8.864801 10.147256  1.656386
  N     6.228882  5.792734  0.557664
  N     6.733574  9.569878  0.403476
  N     6.103128  6.330168  4.383844
  N     5.815351  9.930253  4.149095
  S     5.118330  6.019639  3.046215
  S     5.173805  9.441149  2.692639
  S     7.754445  6.119008 -0.104608
  S     8.276999  9.862594  0.049429
  S     7.652477  6.685424  4.028347
  S     7.422702 10.297076  4.137519
