16  
    
  C    12.429206  9.159020  3.405049
  C    12.339532 12.797012  3.318259
  C    11.173055  8.749823  2.891401
  C    11.183691 12.163921  2.782068
  N    13.384025  9.102342  2.465633
  N    13.442110 12.773248  2.551565
  N    11.116139  8.385799  1.594833
  N    11.318558 11.876130  1.494653
  N    10.741950  9.271365  5.409952
  N    10.594460 12.459329  5.321255
  S     9.906513  8.637892  4.026232
  S     9.833496 11.974628  3.903760
  S    12.690312  8.550662  1.065235
  S    12.910311 12.241014  1.075041
  S    12.416728  9.566788  5.142440
  S    12.124788 13.215656  5.075378
