16  
    
  C     5.968413  4.786971  1.834360
  C     5.798232  9.229148  1.979900
  C     4.799112  4.545308  1.032577
  C     4.654781  8.584052  1.366492
  N     7.048376  4.976997  1.050830
  N     6.830535  9.351907  1.155963
  N     5.032721  4.409723 -0.265747
  N     4.724123  8.473596  0.048463
  N     3.896598  4.915844  3.410231
  N     4.141685  8.968654  3.853963
  S     3.339990  4.229268  1.983692
  S     3.409111  8.362296  2.512846
  S     6.603064  4.802189 -0.541059
  S     6.315804  8.955520 -0.326393
  S     5.575473  5.083648  3.552834
  S     5.636726  9.584802  3.643077
