16  
    
  C     6.807946  6.127334  2.327725
  C     7.272129  9.709290  2.120283
  C     5.814038  5.378782  1.589528
  C     5.977990  9.433773  1.491019
  N     7.903569  6.447653  1.617991
  N     8.276125  9.836940  1.246030
  N     6.024517  5.356670  0.273642
  N     6.058444  9.294257  0.168742
  N     4.906373  5.623694  3.983667
  N     5.488630  9.719371  4.029532
  S     4.467428  4.932292  2.514694
  S     4.693462  9.343019  2.565070
  S     7.520471  6.007919  0.047218
  S     7.708601  9.499951 -0.243208
  S     6.437866  6.091292  4.029244
  S     7.145239  9.793513  3.866856
