16  
    
  C    11.812272  8.542631  3.436567
  C    11.615470 12.055230  3.388797
  C    10.566085  8.293793  2.727462
  C    10.405063 11.638321  2.747357
  N    12.879617  8.685220  2.678852
  N    12.711684 12.088496  2.637510
  N    10.758119  8.177122  1.411629
  N    10.513186 11.525619  1.416109
  N     9.971961  8.404466  5.232179
  N     9.858901 11.581998  5.248133
  S     9.178101  8.246039  3.736066
  S     9.015982 11.344268  3.850201
  S    12.403908  8.353936  1.119639
  S    12.198206 11.842718  1.126119
  S    11.604471  8.732954  5.089115
  S    11.441867 11.939818  5.075760
