16  
    
  C     5.641934  5.423389  1.888750
  C     5.377695  8.881284  1.766211
  C     4.338671  5.002231  1.418012
  C     4.231264  8.360622  1.022583
  N     6.562438  5.543017  0.936641
  N     6.421326  9.135340  0.991231
  N     4.199463  4.918819  0.098813
  N     4.466000  8.213497 -0.275572
  N     4.070520  5.160055  3.950289
  N     3.430144  8.887853  3.412283
  S     3.149522  4.782323  2.646705
  S     2.863205  8.080551  2.082896
  S     5.698344  5.310461 -0.518618
  S     6.047253  8.708671 -0.566411
  S     5.627171  5.474074  3.673644
  S     5.118920  9.182441  3.459059
