16  
    
  C     9.935895  7.604641  2.986338
  C    10.582986 11.666998  3.028522
  C     8.818160  7.138917  2.220981
  C     9.351738 10.995749  2.563668
  N    10.990080  7.992807  2.245981
  N    11.540864 11.811890  2.088887
  N     9.031269  7.147995  0.889491
  N     9.356968 10.701630  1.255128
  N     8.024430  7.089198  4.667036
  N     9.030821 11.393683  5.058965
  S     7.401483  6.794026  3.139370
  S     8.125319 10.872895  3.750738
  S    10.571834  7.635903  0.683844
  S    10.882616 11.210834  0.693276
  S     9.608667  7.592542  4.680702
  S    10.514660 11.968445  4.732093
