16  
    
  C     5.814213  5.394662  1.793530
  C     5.906018  8.931223  2.115685
  C     4.521787  5.199288  1.125179
  C     4.672716  8.591678  1.406664
  N     6.825026  5.492506  0.913316
  N     7.013906  8.985554  1.361504
  N     4.626389  4.880701 -0.156418
  N     4.853918  8.557295  0.072750
  N     3.986433  5.460034  3.622446
  N     4.157823  8.742714  4.022758
  S     3.208440  5.018634  2.234924
  S     3.378955  8.530468  2.536192
  S     6.244080  4.987450 -0.552079
  S     6.448311  8.743167 -0.189678
  S     5.749656  5.678684  3.523423
  S     5.784509  9.065976  3.860631
