16  
    
  C     9.864261  7.593622  2.974163
  C    10.602086 11.502421  3.117972
  C     8.785933  7.090124  2.157086
  C     9.349382 11.045955  2.488054
  N    10.926578  7.919639  2.247606
  N    11.587468 11.664564  2.231822
  N     9.010918  7.037333  0.829250
  N     9.460991 10.794561  1.166928
  N     7.886348  7.268218  4.471918
  N     8.870310 11.424981  5.028281
  S     7.346410  6.681421  3.032259
  S     8.071390 10.851748  3.678720
  S    10.597910  7.667129  0.628534
  S    10.974098 11.246795  0.717592
  S     9.473876  7.685703  4.664958
  S    10.486123 11.963697  4.758123
