16  
    
  C     9.341447  6.613160  2.385336
  C     9.349418 10.568530  2.798362
  C     8.122139  6.244205  1.695437
  C     8.109820 10.379156  2.125936
  N    10.430017  6.700702  1.600411
  N    10.448137 10.298541  2.034566
  N     8.322984  6.074038  0.386440
  N     8.217855 10.056533  0.840907
  N     7.358250  6.769481  4.105771
  N     7.492045 11.002169  4.606845
  S     6.677855  6.203656  2.699894
  S     6.738436 10.693475  3.159567
  S     9.931227  6.354990  0.058463
  S     9.890745  9.923441  0.544243
  S     9.003014  6.984498  4.119924
  S     9.175958 10.963889  4.527616
