16  
    
  C     9.859891  7.374345  2.554908
  C    10.366969 11.321815  2.555954
  C     8.677484  6.713910  2.078688
  C     9.129585 10.864549  1.959521
  N    10.755642  7.652623  1.609224
  N    11.333684 11.525168  1.643121
  N     8.696763  6.464310  0.783548
  N     9.197793 10.644847  0.633902
  N     8.026007  7.319096  4.449864
  N     8.651771 11.072881  4.457091
  S     7.323132  6.552553  3.139888
  S     7.805428 10.871617  3.064075
  S    10.092813  7.060686  0.178465
  S    10.715161 11.120970  0.220434
  S     9.553153  7.929683  4.186961
  S    10.267415 11.532374  4.294683
