16  
    
  C     6.563804  5.842833  1.901793
  C     6.623246  9.598459  1.902936
  C     5.295303  5.414409  1.372464
  C     5.352083  9.229959  1.307927
  N     7.552543  5.815078  1.024323
  N     7.604088  9.696410  1.028703
  N     5.289391  5.316306  0.044665
  N     5.399023  8.890219  0.014251
  N     4.952391  5.795968  3.902817
  N     5.013978  9.223907  3.850053
  S     4.134571  5.457522  2.571043
  S     4.136120  8.939053  2.507691
  S     6.885650  5.490952 -0.442031
  S     6.958899  9.242456 -0.491037
  S     6.585903  5.986501  3.625125
  S     6.544126  9.714969  3.653895
