16  
    
  C     9.758752  7.466421  2.858036
  C     9.715017 11.084931  2.883257
  C     8.627095  6.937195  2.137354
  C     8.600571 10.564547  2.205558
  N    10.796500  7.773143  2.082212
  N    10.762293 11.297690  2.079142
  N     8.722977  6.916275  0.805763
  N     8.653712 10.499047  0.866466
  N     7.905313  6.952236  4.553243
  N     7.949858 10.755087  4.687350
  S     7.176256  6.640137  3.091552
  S     7.252376 10.200122  3.293293
  S    10.278821  7.385124  0.500923
  S    10.250470 10.937874  0.525576
  S     9.409333  7.590540  4.526797
  S     9.535254 11.201569  4.611728
