16  
    
  C    11.788710  8.785872  3.506315
  C    11.543125 12.161577  3.278527
  C    10.543224  8.390865  2.812680
  C    10.423210 11.722602  2.530989
  N    12.855947  8.774680  2.729843
  N    12.686431 12.314792  2.606782
  N    10.711847  8.188765  1.505585
  N    10.729935 11.493719  1.243625
  N    10.006023  8.541259  5.362621
  N     9.671926 11.851329  4.908698
  S     9.214617  8.218843  3.904918
  S     8.985661 11.561468  3.519451
  S    12.324387  8.424404  1.197688
  S    12.272635 11.888345  1.023514
  S    11.586281  8.971508  5.285858
  S    11.257931 12.171037  5.002709
