16  
    
  C     5.949567  5.735815  2.194009
  C     5.973282  9.207036  1.621697
  C     4.665392  5.570762  1.579131
  C     4.713472  8.943642  0.946772
  N     6.948935  5.438907  1.353977
  N     7.055259  9.166192  0.841793
  N     4.671011  5.406040  0.264970
  N     4.905576  8.664605 -0.327558
  N     4.157746  5.893418  4.024275
  N     4.163440  9.085332  3.398604
  S     3.346375  5.669483  2.662006
  S     3.344288  8.776259  1.994569
  S     6.259246  5.280493 -0.146972
  S     6.510683  8.755843 -0.663047
  S     5.807128  5.812418  3.876824
  S     5.720587  9.524340  3.313939
