16  
    
  C    10.716305  8.306390  3.075179
  C    10.770191 11.826263  3.124063
  C     9.530547  7.747824  2.486166
  C     9.610872 11.281019  2.443542
  N    11.693473  8.564059  2.201237
  N    11.899604 11.930231  2.393023
  N     9.635480  7.584746  1.139960
  N     9.914347 11.094335  1.142444
  N     9.016756  7.943900  5.013170
  N     8.807784 11.706393  4.880923
  S     8.182971  7.692394  3.615552
  S     8.152275 11.342889  3.398707
  S    11.177419  8.041317  0.766363
  S    11.402506 11.582614  0.820517
  S    10.515014  8.725379  4.732723
  S    10.421786 12.074200  4.799244
