16  
    
  C    12.823862  9.227101  3.433729
  C    12.697897 12.937443  3.653192
  C    11.659251  8.608508  2.796475
  C    11.501143 12.441665  2.951742
  N    13.804498  9.516342  2.587554
  N    13.725097 13.139706  2.861784
  N    11.819646  8.432105  1.459914
  N    11.746401 12.072590  1.699368
  N    10.900492  9.318054  5.296552
  N    10.890988 12.625570  5.405325
  S    10.176648  8.644163  3.870945
  S    10.120949 12.179151  3.999577
  S    13.326511  8.972196  1.082967
  S    13.269073 12.616354  1.277912
  S    12.581869  9.504516  5.133954
  S    12.493853 13.229013  5.363334
