16  
    
  C     4.281324  4.866017  1.568592
  C     4.157623  8.412812  1.396343
  C     3.025047  4.652232  0.899481
  C     2.992115  7.877531  0.795208
  N     5.287137  4.879336  0.663900
  N     5.213674  8.472772  0.571208
  N     3.028233  4.305740 -0.393301
  N     3.106715  7.691379 -0.523668
  N     2.413432  4.699344  3.427393
  N     2.382725  8.334353  3.267317
  S     1.670178  4.463403  1.921826
  S     1.593768  7.932415  1.804920
  S     4.595944  4.589414 -0.837171
  S     4.655446  8.083487 -0.898650
  S     4.047576  4.997369  3.303994
  S     4.008123  8.633360  3.104124
