16  
    
  C     3.578191  4.924577  1.555407
  C     3.911982  8.208972  1.689282
  C     2.424091  4.357689  0.904845
  C     2.612378  8.002581  1.122316
  N     4.615036  5.058298  0.727449
  N     4.891834  8.324352  0.790636
  N     2.453773  4.206906 -0.411659
  N     2.642319  7.781113 -0.194452
  N     1.950108  4.306011  3.435870
  N     2.129438  8.212496  3.637911
  S     1.121779  4.033651  2.034717
  S     1.304249  7.859807  2.260396
  S     4.095185  4.619844 -0.785509
  S     4.220983  8.061067 -0.693829
  S     3.514049  4.787613  3.297226
  S     3.749023  8.606546  3.408407
