16  
    
  C     7.062446  5.973901  1.958824
  C     7.288268  9.745989  2.475441
  C     5.919111  5.427129  1.298916
  C     6.025888  9.440453  1.835525
  N     8.128363  6.210434  1.193894
  N     8.355076  9.726830  1.701811
  N     6.216154  5.101762  0.051266
  N     6.192489  9.154255  0.571384
  N     5.246760  5.822729  3.735480
  N     5.545257  9.756218  4.324497
  S     4.655466  4.979445  2.400592
  S     4.656346  9.597389  2.919575
  S     7.731076  5.648856 -0.315906
  S     7.823096  9.389935  0.159960
  S     6.777496  6.370131  3.630876
  S     7.138303 10.036742  4.198426
