16  
    
  C    12.259580  9.249617  3.543497
  C    12.446156 12.707846  3.457392
  C    11.236105  8.563492  2.781176
  C    11.173365 12.309652  2.936270
  N    13.231799  9.732666  2.778225
  N    13.431573 12.924059  2.598277
  N    11.418491  8.410627  1.460096
  N    11.267330 11.992117  1.650758
  N    10.629220  8.370714  5.262358
  N    10.929225 12.562970  5.494426
  S     9.965226  7.921757  3.870383
  S     9.969059 12.184006  4.163936
  S    12.975921  9.205970  1.224347
  S    12.739707 12.540335  1.150663
  S    12.058895  9.183683  5.305923
  S    12.480228 13.007569  5.163419
