16  
    
  C    10.708461  8.465618  3.173445
  C    10.694908 11.886999  3.177976
  C     9.530838  7.826902  2.569668
  C     9.551800 11.392352  2.499929
  N    11.741573  8.579080  2.339195
  N    11.766281 11.993258  2.421421
  N     9.719879  7.502978  1.298291
  N     9.739022 11.289378  1.200026
  N     8.940490  8.193126  5.112975
  N     8.885715 11.760036  4.925807
  S     8.252868  7.526885  3.720425
  S     8.200997 11.140772  3.535671
  S    11.199054  8.009756  0.905667
  S    11.322700 11.550270  0.888107
  S    10.570648  8.780108  4.894706
  S    10.512918 12.044079  4.950128
