16  
    
  C    11.338586  8.758021  3.302522
  C    11.425377 12.241412  3.293131
  C    10.231718  8.017204  2.740717
  C    10.278110 11.780646  2.539316
  N    12.327679  8.926829  2.428109
  N    12.500165 12.501829  2.585905
  N    10.394096  7.643916  1.461414
  N    10.511158 11.598981  1.238634
  N     9.678955  8.420386  5.242046
  N     9.636965 11.785821  5.081523
  S     8.997569  7.725973  3.889098
  S     8.938827 11.453055  3.583026
  S    11.924446  8.203647  1.016399
  S    12.088679 12.166417  1.012375
  S    11.191629  9.170157  4.915394
  S    11.090506 12.640875  4.997869
