16  
    
  C    12.242244  9.152624  3.448618
  C    12.094767 12.411921  3.489506
  C    11.049008  8.628796  2.734305
  C    10.836764 12.144257  2.762525
  N    13.332140  9.242537  2.707563
  N    13.166080 12.676639  2.767193
  N    11.244494  8.351017  1.415695
  N    11.103174 12.093561  1.453461
  N    10.481245  8.889677  5.251613
  N    10.313770 12.358732  5.243243
  S     9.716757  8.317577  3.891632
  S     9.485100 11.924234  3.859961
  S    12.888324  8.815528  1.118622
  S    12.694161 12.368996  1.181035
  S    12.061505  9.315747  5.161888
  S    11.851686 12.851119  5.131345
