16  
    
  C     8.941395  7.093482  2.349963
  C     9.147548 10.840112  2.368733
  C     7.790848  6.692263  1.611570
  C     7.921948 10.426991  1.805183
  N    10.024172  7.356650  1.609902
  N    10.149974 11.010682  1.528311
  N     7.974354  6.850098  0.291335
  N     7.949351 10.331068  0.468524
  N     7.146443  6.604020  4.165446
  N     7.453992 10.575404  4.351387
  S     6.390875  6.468469  2.698863
  S     6.601982 10.471630  2.917488
  S     9.569280  7.279855  0.046853
  S     9.592385 10.690625  0.028413
  S     8.709825  7.138519  4.088399
  S     9.050842 11.007054  4.119193
