16  
    
  C     8.258458  6.590101  2.426354
  C     8.451625 10.115935  2.293302
  C     7.048450  6.312568  1.766181
  C     7.156580  9.785256  1.807292
  N     9.333060  6.847856  1.683924
  N     9.460717 10.241421  1.457485
  N     7.162564  6.114933  0.452646
  N     7.159227  9.587795  0.477514
  N     6.550472  6.264562  4.326356
  N     6.868414 10.175689  4.327885
  S     5.792659  5.913688  2.895173
  S     5.917399  9.728133  3.009802
  S     8.769478  6.465649  0.113109
  S     8.734669  9.899209 -0.012812
  S     8.133353  6.744792  4.130915
  S     8.474807 10.531557  3.976472
