16  
    
  C     6.679687  5.644467  1.982259
  C     6.640064  9.524741  2.058822
  C     5.386731  5.517119  1.358468
  C     5.388226  9.078112  1.517548
  N     7.659761  5.834430  1.119508
  N     7.607633  9.611401  1.157091
  N     5.445975  5.349344  0.035723
  N     5.384977  8.945234  0.171580
  N     4.951197  5.820839  3.910139
  N     5.102673  9.339341  4.177496
  S     4.160504  5.400329  2.542299
  S     4.168962  9.062945  2.787736
  S     7.030058  5.605855 -0.393207
  S     6.946492  9.389381 -0.292985
  S     6.619723  5.945341  3.692147
  S     6.623443  9.818101  3.756940
