16  
    
  C     3.797014  4.677380  1.547013
  C     3.830170  8.440801  1.664463
  C     2.501639  4.521825  0.939385
  C     2.587684  7.891941  1.091803
  N     4.798350  4.710854  0.666243
  N     4.881577  8.433726  0.840429
  N     2.522689  4.345769 -0.384464
  N     2.741268  7.562132 -0.168849
  N     1.884499  4.578221  3.481479
  N     2.017631  8.401575  3.601266
  S     1.137115  4.361162  2.002682
  S     1.220845  7.909911  2.190568
  S     4.058787  4.632481 -0.868736
  S     4.312637  7.827243 -0.615116
  S     3.511701  4.905207  3.362655
  S     3.627428  8.746863  3.372295
