16  
    
  C     6.889321  5.819676  2.211897
  C     7.193709  9.850736  2.328760
  C     5.831634  5.486808  1.254921
  C     5.968116  9.444143  1.618594
  N     8.101435  5.963748  1.636928
  N     8.242392  9.979543  1.526632
  N     6.256423  5.128226  0.026763
  N     6.105828  9.354411  0.291391
  N     4.754037  5.613968  3.683278
  N     5.504759  9.467608  4.194456
  S     4.301443  5.283841  2.053778
  S     4.660296  9.367236  2.782636
  S     7.877681  5.504093  0.037932
  S     7.705256  9.732086 -0.015217
  S     6.319428  6.162614  3.839337
  S     7.049746 10.033608  4.015349
