16  
    
  C    12.723547  9.111247  3.379505
  C    12.760708 12.719634  3.510636
  C    11.506623  8.684940  2.821561
  C    11.629887 12.273262  2.791060
  N    13.714031  9.125300  2.487124
  N    13.785688 13.071120  2.769496
  N    11.481704  8.489647  1.474623
  N    11.838691 12.086176  1.493768
  N    11.088963  8.908765  5.437562
  N    10.881265 12.480960  5.237951
  S    10.266528  8.465531  4.030890
  S    10.237485 12.039070  3.783040
  S    13.071714  8.806083  1.040231
  S    13.316128 12.685786  1.164246
  S    12.672426  9.474912  5.065216
  S    12.352636 13.119960  5.109906
