16  
    
  C     7.467577  5.973503  2.179586
  C     7.905016  9.860523  2.197398
  C     6.227042  5.576367  1.548715
  C     6.630935  9.448203  1.673745
  N     8.468459  6.326677  1.363145
  N     8.884791  9.967693  1.337795
  N     6.313434  5.432330  0.233329
  N     6.609179  9.298701  0.366964
  N     5.715971  5.718005  4.021607
  N     6.395289  9.350390  4.173062
  S     4.996699  5.158670  2.643300
  S     5.385979  9.234398  2.877195
  S     7.817584  5.984936 -0.140706
  S     8.143802  9.593319 -0.142984
  S     7.270655  6.126489  3.899563
  S     7.864933 10.015315  3.970448
