16  
    
  C     9.097793  6.950033  2.340528
  C     9.005121 11.162529  2.839426
  C     7.913140  6.480584  1.684398
  C     7.829524 10.592618  2.235375
  N    10.175604  6.908187  1.567137
  N    10.030298 11.244683  2.015965
  N     8.029714  6.321852  0.356296
  N     7.925102 10.343230  0.924346
  N     7.416441  6.771562  4.214918
  N     7.345293 10.821846  4.754117
  S     6.579788  6.423396  2.835890
  S     6.572846 10.273895  3.368900
  S     9.692853  6.530762  0.056763
  S     9.572966 10.712815  0.521811
  S     9.003647  7.245508  4.015940
  S     8.905814 11.361620  4.561485
