16  
    
  C     5.140070  5.139987  2.058872
  C     5.147007  8.677687  1.663211
  C     3.896794  4.923991  1.396982
  C     3.895755  8.438321  0.942213
  N     6.204066  5.065948  1.238962
  N     6.266413  8.586369  0.946242
  N     3.986246  4.614792  0.117440
  N     4.051458  8.309459 -0.377650
  N     3.235324  5.516362  3.792027
  N     3.300145  8.523785  3.453928
  S     2.461208  5.153537  2.373544
  S     2.522405  8.418267  2.004102
  S     5.581479  4.703537 -0.245319
  S     5.714737  8.299016 -0.623155
  S     4.945820  5.692406  3.715417
  S     4.890088  8.846992  3.370966
