16  
    
  C     5.783853  5.553898  2.049687
  C     5.855065  8.960987  1.982496
  C     4.559192  5.196983  1.384852
  C     4.655061  8.675620  1.298302
  N     6.828003  5.522664  1.221206
  N     6.911595  9.124584  1.198886
  N     4.679109  5.081046  0.055372
  N     4.795533  8.468593  0.001592
  N     4.002909  5.575358  3.829914
  N     4.010613  9.017499  3.729567
  S     3.131637  5.483403  2.380855
  S     3.298907  8.752339  2.322741
  S     6.274140  5.186005 -0.323140
  S     6.456279  8.776639 -0.329242
  S     5.634664  5.888219  3.800577
  S     5.642821  9.178070  3.727275
