16  
    
  C     3.571703  4.460627  1.601378
  C     3.817457  8.356694  1.647296
  C     2.430702  3.890626  0.961154
  C     2.594311  8.000809  1.012032
  N     4.508657  4.894675  0.801025
  N     4.848304  8.640087  0.853507
  N     2.512856  4.006067 -0.382048
  N     2.700061  7.846476 -0.291854
  N     1.926178  4.265004  3.471233
  N     2.125056  7.936490  3.520842
  S     1.183566  3.599335  2.159561
  S     1.241410  7.859361  2.148797
  S     3.968842  4.666399 -0.725882
  S     4.243234  8.292238 -0.685814
  S     3.495108  4.819309  3.258898
  S     3.730114  8.364444  3.384960
