16  
    
  C     7.714752  6.622087  2.445527
  C     7.839251 10.135325  2.173231
  C     6.501014  6.049187  1.864051
  C     6.592248  9.924483  1.463176
  N     8.739012  6.597479  1.586146
  N     8.885581 10.040101  1.363441
  N     6.563007  5.821202  0.540426
  N     6.645552  9.671199  0.155604
  N     5.838648  6.875049  4.209833
  N     5.941205  9.997640  3.927205
  S     5.145920  6.169506  2.913090
  S     5.178765  9.954097  2.458945
  S     8.075058  6.140803  0.131461
  S     8.246846  9.753138 -0.201899
  S     7.550803  7.094298  4.119227
  S     7.584344 10.324952  3.909318
