16  
    
  C    10.986941  7.662022  3.168234
  C    11.217500 11.781389  2.838869
  C     9.741229  7.513258  2.430642
  C    10.073885 11.134117  2.276945
  N    12.008843  7.783624  2.328242
  N    12.221491 11.934764  1.991702
  N     9.879050  7.555774  1.100895
  N    10.156463 10.844850  0.971508
  N     9.157779  7.646675  4.901713
  N     9.515225 11.800807  4.690277
  S     8.387598  7.238716  3.496667
  S     8.855453 10.902559  3.466976
  S    11.497133  7.663839  0.809413
  S    11.617929 11.378132  0.521235
  S    10.774699  7.641753  4.899239
  S    11.157913 12.141676  4.569511
