16  
    
  C     8.313843  6.632518  2.304019
  C     8.141900 10.102187  2.543136
  C     7.067644  6.155376  1.665632
  C     7.010220  9.402905  1.908541
  N     9.315741  6.642449  1.436216
  N     9.138398 10.400606  1.724209
  N     7.216567  5.733645  0.429547
  N     7.235775  9.122715  0.613829
  N     6.510605  6.422785  4.118426
  N     6.208369  9.886046  4.320885
  S     5.750027  6.019280  2.752304
  S     5.625797  9.269680  2.889696
  S     8.737157  6.049585  0.008917
  S     8.607874  9.853448  0.184629
  S     8.092378  7.019126  3.993212
  S     7.812299 10.359790  4.291892
