16  
    
  C    12.197797  9.178860  3.568222
  C    12.476642 12.865132  3.492120
  C    11.221310  8.453668  2.888162
  C    11.277928 12.332012  2.931697
  N    13.215071  9.668927  2.854468
  N    13.440436 13.007623  2.610424
  N    11.511874  8.415638  1.575939
  N    11.275354 12.139480  1.614980
  N    10.624038  8.381840  5.473400
  N    10.847985 12.669887  5.500183
  S     9.924850  7.913052  3.939938
  S     9.936566 12.207842  4.172039
  S    12.922933  9.173157  1.315371
  S    12.858625 12.551028  1.109072
  S    12.117563  9.209840  5.284362
  S    12.521446 12.915858  5.223137
