16  
    
  C    11.020011  8.002499  3.054820
  C    11.557015 11.653759  3.184342
  C     9.796328  7.446150  2.593414
  C    10.387896 11.290513  2.390496
  N    11.981793  8.189631  2.172003
  N    12.665574 11.812621  2.478636
  N     9.802869  7.211954  1.291712
  N    10.659487 11.071956  1.111264
  N     9.314028  8.056516  5.077658
  N     9.643374 11.511947  4.834984
  S     8.516857  7.249227  3.791962
  S     8.988366 11.118028  3.395792
  S    11.322637  7.588601  0.745766
  S    12.225912 11.522982  0.834084
  S    10.916841  8.430091  4.787367
  S    11.196967 12.005172  4.866869
