16  
    
  C    12.744525  8.987540  3.791834
  C    12.799540 12.425883  3.693125
  C    11.502454  8.576789  3.210877
  C    11.588740 12.079489  3.054446
  N    13.665044  9.226461  2.898664
  N    13.824054 12.752404  2.911415
  N    11.454957  8.429290  1.895032
  N    11.682301 12.103529  1.724082
  N    11.246079  8.439429  5.805725
  N    10.954723 12.280959  5.500805
  S    10.342421  8.149165  4.412782
  S    10.233889 11.873362  4.111666
  S    13.011299  8.943858  1.371433
  S    13.215364 12.583199  1.367343
  S    12.632418  9.247338  5.576518
  S    12.570409 12.707214  5.415011
