16  
    
  C    11.239401  8.189951  3.215016
  C    11.464789 11.620278  3.264491
  C    10.009960  7.791544  2.616156
  C    10.125445 11.408895  2.735458
  N    12.279215  8.158775  2.383242
  N    12.446409 11.717137  2.348467
  N    10.062476  7.461719  1.341865
  N    10.154395 11.325101  1.412662
  N     9.472349  8.194213  5.106646
  N     9.723870 11.857907  5.140194
  S     8.702540  7.629258  3.779473
  S     8.791941 11.667150  3.813407
  S    11.633375  7.699321  0.907076
  S    11.735143 11.475274  0.913319
  S    11.136570  8.463399  4.935563
  S    11.340332 11.964080  4.995833
