16  
    
  C    11.332103  8.465511  3.333004
  C    11.433275 12.271428  3.319076
  C    10.189912  7.890317  2.704212
  C    10.166251 11.706732  2.852224
  N    12.396504  8.608084  2.566114
  N    12.402393 12.089347  2.457749
  N    10.339318  7.492954  1.443245
  N    10.157679 11.252217  1.608942
  N     9.482716  8.289118  5.124550
  N     9.873890 12.120484  5.373389
  S     8.811503  7.853306  3.733042
  S     8.912957 11.833225  4.030249
  S    11.990728  7.853882  1.115505
  S    11.665802 11.548213  0.964383
  S    11.080625  8.754214  5.080505
  S    11.376288 12.807600  4.989559
