16  
    
  C    11.918992  8.527649  3.212980
  C    11.377477 12.043056  3.498508
  C    10.635436  8.219547  2.591414
  C    10.225122 11.594369  2.784596
  N    12.928450  8.744423  2.365875
  N    12.400336 12.454362  2.743933
  N    10.688171  8.174174  1.263448
  N    10.406684 11.528802  1.457032
  N    10.210196  8.020465  5.145936
  N     9.618240 11.658426  5.375073
  S     9.329392  8.038667  3.756086
  S     9.027568 11.104407  3.889871
  S    12.242696  8.611449  0.851127
  S    11.966291 11.965121  1.168804
  S    11.824486  8.414395  4.929099
  S    11.249157 12.266521  5.221225
