16  
    
  C    11.157589  8.188350  3.142493
  C    11.405785 11.749674  3.200613
  C     9.945053  7.633752  2.636681
  C    10.149537 11.494705  2.538972
  N    12.071501  8.315689  2.214273
  N    12.491738 11.616903  2.449381
  N     9.979281  7.327222  1.351627
  N    10.303527 11.264811  1.224133
  N     9.559077  8.102348  5.145946
  N     9.630407 11.578650  5.147094
  S     8.667322  7.562926  3.835792
  S     8.858398 11.512121  3.651824
  S    11.520953  7.641579  0.841521
  S    11.909793 11.447248  0.903568
  S    11.111070  8.442746  4.864785
  S    11.305168 11.878279  4.972546
