16  
    
  C     5.073260  5.085366  1.891931
  C     5.135408  8.646768  1.930130
  C     3.768027  5.019074  1.300140
  C     3.915465  8.295892  1.240910
  N     6.099476  5.121210  1.052481
  N     6.210800  8.584553  1.149096
  N     3.816323  4.837499 -0.009498
  N     4.114839  8.009324 -0.038471
  N     3.492526  4.813253  3.822956
  N     3.241621  8.800214  3.663886
  S     2.477654  4.850152  2.547358
  S     2.508907  8.454393  2.209198
  S     5.426287  5.018460 -0.483366
  S     5.681618  8.205294 -0.347457
  S     5.126753  5.057646  3.605474
  S     4.874285  8.945697  3.586463
