16  
    
  C    12.335291  9.263832  3.505970
  C    12.479923 12.719125  3.482319
  C    11.258215  8.622028  2.782433
  C    11.234901 12.128992  2.989037
  N    13.337744  9.663164  2.727680
  N    13.399914 12.887059  2.536264
  N    11.525634  8.509908  1.500961
  N    11.145481 12.068491  1.663721
  N    10.573267  8.353543  5.299682
  N    10.871160 12.514425  5.492820
  S    10.008806  7.948438  3.714048
  S    10.010106 12.124171  4.166461
  S    12.901654  9.207024  1.160443
  S    12.674144 12.475076  1.100423
  S    12.014517  9.186204  5.214428
  S    12.424477 13.081228  5.181237
