16  
    
  C     7.841032  6.412494  2.149644
  C     8.045421 10.572226  2.179323
  C     6.647029  5.850479  1.508341
  C     6.904783  9.925132  1.540227
  N     8.843917  6.614971  1.317920
  N     9.082603 10.809972  1.392319
  N     6.722059  5.816863  0.192657
  N     7.100582  9.696246  0.247627
  N     6.161864  5.788500  4.026594
  N     6.376705 10.171570  4.080337
  S     5.332014  5.537766  2.585555
  S     5.613040  9.673399  2.692038
  S     8.299764  6.274167 -0.191367
  S     8.621147 10.215772 -0.143649
  S     7.762794  6.368604  3.878615
  S     7.884980 10.883635  3.892973
