16  
    
  C     4.560319  5.180298  1.641180
  C     4.401823  8.436423  1.528494
  C     3.355252  4.680374  1.052703
  C     3.151540  7.990745  0.887057
  N     5.543443  5.240550  0.741234
  N     5.418529  8.629490  0.696552
  N     3.324650  4.571500 -0.279793
  N     3.316590  7.633147 -0.382304
  N     2.785437  4.837223  3.518616
  N     2.586428  8.609680  3.323965
  S     2.020861  4.511006  2.106746
  S     1.872469  7.922556  2.017370
  S     4.860117  4.856709 -0.780060
  S     4.876975  8.041755 -0.798438
  S     4.329209  5.481611  3.397405
  S     4.223924  8.884267  3.166839
