16  
    
  C     7.612586  6.288937  2.265481
  C     7.716510 10.060054  2.465108
  C     6.321368  5.825635  1.737168
  C     6.569449  9.584038  1.712149
  N     8.576059  6.436066  1.365020
  N     8.801750 10.279735  1.729436
  N     6.303550  5.815631  0.399108
  N     6.763931  9.444981  0.402115
  N     6.036257  6.395308  4.292232
  N     5.968893  9.651029  4.283818
  S     5.079539  5.792791  2.951212
  S     5.217075  9.296069  2.825360
  S     7.830791  6.208079 -0.113585
  S     8.311619  9.910627  0.145015
  S     7.701711  6.569055  3.973325
  S     7.535791 10.312758  4.153461
