16  
    
  C     8.537681  6.615185  2.360397
  C     8.320653 10.197981  2.536449
  C     7.254551  6.244126  1.750909
  C     7.198070  9.610440  1.795680
  N     9.500630  6.904804  1.486284
  N     9.413406 10.525292  1.849814
  N     7.417414  6.023312  0.425810
  N     7.531438  9.408098  0.502378
  N     6.992035  6.313921  4.341669
  N     6.390570 10.074556  4.258304
  S     6.064106  5.859475  3.007031
  S     5.780302  9.472160  2.825888
  S     8.897670  6.512462 -0.022882
  S     9.015565 10.091269  0.244810
  S     8.594302  6.800840  4.065105
  S     8.008167 10.576467  4.214645
