16  
    
  C     5.497435  5.497327  1.658643
  C     5.293887  8.899763  1.610115
  C     4.238928  5.054319  1.086670
  C     4.170507  8.392319  0.919355
  N     6.407853  5.752577  0.734704
  N     6.356975  9.141954  0.842817
  N     4.185881  5.046125 -0.223760
  N     4.345665  8.132450 -0.356592
  N     3.686374  5.266176  3.557313
  N     3.385263  8.748641  3.370465
  S     2.868008  5.019538  2.167005
  S     2.721437  8.343130  1.899115
  S     5.719992  5.415938 -0.776390
  S     5.943392  8.638376 -0.698389
  S     5.357579  5.681170  3.425007
  S     4.931955  9.250279  3.271986
