16  
    
  C     9.232139  7.157476  2.572998
  C     8.884814 11.088878  2.364337
  C     8.006301  6.523225  2.058530
  C     7.741881 10.379767  1.746180
  N    10.144514  7.245649  1.608231
  N     9.850625 11.335269  1.486223
  N     7.944694  6.295308  0.752903
  N     7.826361 10.148855  0.467294
  N     7.546249  7.017768  4.487364
  N     7.218026 10.474888  4.242384
  S     6.753403  6.305415  3.166709
  S     6.407958 10.157002  2.800038
  S     9.438369  6.642205  0.195906
  S     9.327914 10.670955 -0.024347
  S     9.139476  7.372728  4.292551
  S     8.696932 11.319572  4.068016
