16  
    
  C    10.711914  8.310275  3.080191
  C    10.771977 11.820457  3.123206
  C     9.522276  7.748059  2.491924
  C     9.612071 11.286172  2.442917
  N    11.691900  8.562259  2.204729
  N    11.902953 11.935201  2.395167
  N     9.634296  7.580977  1.147308
  N     9.908920 11.095742  1.144166
  N     9.018076  7.949781  5.010823
  N     8.807589 11.708564  4.887629
  S     8.187361  7.689761  3.623007
  S     8.153923 11.339572  3.400528
  S    11.182247  8.042949  0.769283
  S    11.398053 11.581745  0.823956
  S    10.512849  8.728350  4.735261
  S    10.421253 12.072849  4.802000
