16  
    
  C     4.318006  5.003262  1.125904
  C     4.336253  8.496723  1.453574
  C     3.035214  4.779840  0.497765
  C     3.251997  7.931777  0.733570
  N     5.355305  5.095179  0.326395
  N     5.432974  8.688813  0.732936
  N     3.190328  4.510206 -0.803669
  N     3.390151  7.838895 -0.575124
  N     2.728780  4.754225  3.099520
  N     2.436912  8.251724  3.138642
  S     1.752467  4.702904  1.739465
  S     1.837560  7.664549  1.669051
  S     4.742428  4.826182 -1.181097
  S     4.938711  8.362648 -0.841334
  S     4.349007  5.208731  2.855247
  S     4.127519  8.362886  3.152074
