16  
    
  C     9.123959  7.121040  2.372914
  C     9.134664 10.998124  2.662578
  C     7.895785  6.669303  1.718691
  C     7.902051 10.463606  2.066759
  N    10.170841  7.185425  1.522969
  N    10.113471 11.147218  1.770484
  N     8.018975  6.569576  0.402963
  N     7.968623 10.295548  0.736646
  N     7.214883  6.847178  4.097588
  N     7.416713 10.666267  4.544493
  S     6.474637  6.497414  2.648841
  S     6.573737 10.357346  3.107487
  S     9.585829  6.889177  0.015326
  S     9.533402 10.808718  0.286956
  S     8.883251  7.053256  4.112706
  S     8.949578 11.253418  4.350540
