16  
    
  C    12.471995  9.223288  3.432839
  C    12.465226 12.685254  3.435347
  C    11.156930  8.742515  2.905837
  C    11.238534 12.164418  2.829298
  N    13.431773  9.040391  2.543412
  N    13.448146 12.823486  2.537561
  N    11.104681  8.368403  1.651090
  N    11.321070 11.925787  1.517553
  N    10.757440  9.272497  5.353903
  N    10.617349 12.443451  5.338038
  S     9.879399  8.639152  4.056323
  S     9.927333 11.987937  3.902381
  S    12.686443  8.505284  1.093994
  S    12.835589 12.254262  1.043704
  S    12.364682  9.540294  5.197484
  S    12.124415 13.194772  5.050592
