16  
    
  C     7.812946  6.678900  2.408407
  C     8.012260 10.325887  2.042043
  C     6.684765  6.121258  1.708859
  C     6.730062  9.870655  1.548653
  N     8.928273  6.694081  1.690312
  N     8.881380 10.441018  1.047636
  N     6.885982  5.919256  0.433007
  N     6.614004  9.624987  0.258045
  N     5.901002  6.320145  4.133091
  N     6.284389 10.378992  4.016660
  S     5.200779  5.982651  2.591908
  S     5.418869  9.875597  2.690896
  S     8.476649  6.167862  0.172026
  S     8.191118  9.910437 -0.334171
  S     7.456205  6.828661  4.127179
  S     7.898113 10.610033  3.781870
