16  
    
  C    11.031819  8.167970  3.112140
  C    11.521807 11.697236  3.180544
  C     9.816364  7.505924  2.637639
  C    10.290574 11.484575  2.477258
  N    11.985232  8.264341  2.158619
  N    12.650129 11.807861  2.465253
  N     9.900758  7.083562  1.367384
  N    10.502850 11.330344  1.191702
  N     9.490670  8.084147  5.164746
  N     9.607926 11.415919  4.950645
  S     8.615822  7.396205  3.846413
  S     8.870116 11.276103  3.446411
  S    11.338975  7.652481  0.785193
  S    12.104066 11.352330  0.890994
  S    11.066770  8.451272  4.780559
  S    11.238137 11.890225  4.888150
