16  
    
  C     8.360530  6.693693  2.382640
  C     8.384055 10.320868  2.311890
  C     7.184558  6.157721  1.781085
  C     7.143963  9.929102  1.767772
  N     9.398780  6.790712  1.557137
  N     9.395359 10.223818  1.442608
  N     7.241566  6.113928  0.455120
  N     7.198414  9.671034  0.450648
  N     6.749965  6.201495  4.287857
  N     6.759254 10.149214  4.315162
  S     5.843808  5.904031  2.936394
  S     5.919257  9.620539  2.976078
  S     8.859678  6.551470  0.036232
  S     8.813230  9.845226 -0.002070
  S     8.330021  6.778822  4.138220
  S     8.334398 10.535124  4.074976
