16  
    
  C    10.025015  7.788523  2.641308
  C    10.583368 11.508478  3.071006
  C     8.942903  6.974669  2.010765
  C     9.399030 11.167331  2.295076
  N    11.011835  8.140147  1.846457
  N    11.704476 11.607393  2.358737
  N     9.239911  6.706610  0.746404
  N     9.706559 10.963210  1.026671
  N     8.175176  7.546740  4.389632
  N     8.569194 11.340762  4.678572
  S     7.561962  6.758667  3.078886
  S     7.926957 11.283546  3.177027
  S    10.698755  7.367684  0.427832
  S    11.314529 11.270398  0.803535
  S     9.747782  8.161083  4.359956
  S    10.239375 11.588398  4.769906
