16  
    
  C     6.764891  5.821807  2.101353
  C     6.756635  9.670902  2.206394
  C     5.451854  5.576505  1.520552
  C     5.451094  9.228519  1.683578
  N     7.746212  5.882186  1.183924
  N     7.654180  9.835169  1.234109
  N     5.428964  5.396419  0.205387
  N     5.419561  9.028425  0.374871
  N     5.022810  5.615709  4.039144
  N     5.189946  9.284418  4.163614
  S     4.152499  5.321938  2.644065
  S     4.171500  9.094164  2.833205
  S     6.976961  5.600070 -0.280215
  S     6.918740  9.387246 -0.164022
  S     6.657794  5.966889  3.809111
  S     6.711189  9.848957  3.983310
