16  
    
  C    10.900878  8.129041  3.226379
  C    10.650106 12.034518  3.188138
  C     9.677674  7.594072  2.643292
  C     9.510989 11.242044  2.720236
  N    11.855556  8.347757  2.363956
  N    11.569501 12.358578  2.285538
  N     9.730331  7.436668  1.344330
  N     9.545199 11.027542  1.414872
  N     9.205259  7.714450  5.218950
  N     9.086854 11.663186  5.240099
  S     8.440850  7.310245  3.715536
  S     8.306827 11.013115  3.959537
  S    11.296145  7.846770  0.869200
  S    10.910502 11.770405  0.840842
  S    10.774500  8.285940  4.960946
  S    10.664815 12.063285  4.943933
