16  
    
  C    11.795957  8.590122  3.206311
  C    11.362049 12.198807  3.449287
  C    10.522386  8.257285  2.584976
  C    10.215716 11.720803  2.720970
  N    12.773288  8.802195  2.312509
  N    12.390930 12.497010  2.655714
  N    10.510686  8.263039  1.242305
  N    10.398405 11.482083  1.420514
  N    10.251478  8.017500  5.173556
  N     9.552247 11.590834  5.275286
  S     9.365559  7.798042  3.721824
  S     8.900061 11.208014  3.734454
  S    12.104811  8.605695  0.816907
  S    11.902223 12.077837  1.044338
  S    11.810927  8.560112  4.961047
  S    11.140298 12.303629  5.175990
