16  
    
  C     9.804068  7.639554  2.738976
  C     9.825872 11.211367  2.964742
  C     8.607368  7.141883  2.024936
  C     8.644664 10.672000  2.237147
  N    10.812976  7.795035  1.903618
  N    10.833429 11.456022  2.176505
  N     8.726629  6.924116  0.719685
  N     8.862896 10.459016  0.957958
  N     8.000743  7.206671  4.552608
  N     8.023967 10.665108  4.741653
  S     7.251906  6.937117  3.123196
  S     7.330228 10.235022  3.285812
  S    10.260689  7.428488  0.342892
  S    10.371720 10.982037  0.604025
  S     9.619338  7.653095  4.496977
  S     9.555111 11.335497  4.638079
