16  
    
  C    10.733387  8.337251  3.008125
  C    10.773139 11.772582  3.096911
  C     9.506014  7.828664  2.410439
  C     9.563380 11.381832  2.334315
  N    11.735201  8.495208  2.161442
  N    11.864031 12.012274  2.358633
  N     9.604951  7.552790  1.112321
  N     9.813422 11.091648  1.041317
  N     9.026309  7.968884  4.847172
  N     8.871553 11.734732  4.786113
  S     8.179054  7.708978  3.447520
  S     8.167570 11.324321  3.323369
  S    11.168363  8.044932  0.629643
  S    11.483060 11.539894  0.825173
  S    10.562887  8.581998  4.740039
  S    10.473387 12.123504  4.793102
