16  
    
  C     7.885476  6.288075  2.140182
  C     8.074643 10.627982  2.185297
  C     6.679596  5.924231  1.501072
  C     6.970388  9.979871  1.544573
  N     8.867690  6.632738  1.288978
  N     9.100588 10.828512  1.365041
  N     6.773670  5.737150  0.173235
  N     7.132377  9.583733  0.300254
  N     6.200879  5.714823  4.066024
  N     6.315462 10.122053  4.071968
  S     5.396031  5.550202  2.594689
  S     5.627060  9.697378  2.615136
  S     8.221081  6.279248 -0.237318
  S     8.589584 10.196465 -0.137187
  S     7.699752  6.339677  3.912602
  S     7.863938 10.796234  3.926388
