16  
    
  C    11.854380  8.698814  3.547438
  C    11.616233 12.281347  3.303052
  C    10.605862  8.357937  2.893593
  C    10.446048 11.825008  2.576985
  N    12.853840  8.827320  2.705644
  N    12.724145 12.400318  2.516507
  N    10.677727  8.237712  1.600203
  N    10.675549 11.420279  1.326615
  N    10.005545  8.530055  5.337997
  N     9.570193 11.863571  5.042199
  S     9.251471  8.258077  3.915998
  S     8.978719 11.471421  3.443968
  S    12.264753  8.414572  1.184520
  S    12.278234 11.899368  0.988655
  S    11.623968  9.005829  5.223657
  S    11.194844 12.277585  4.971156
