16  
    
  C     5.137292  5.089734  2.064066
  C     5.191456  8.586826  1.865458
  C     3.868548  4.856918  1.369405
  C     4.013030  8.429721  1.075004
  N     6.231815  5.012065  1.279075
  N     6.348918  8.520575  1.224762
  N     4.048198  4.667577  0.062485
  N     4.200071  8.261792 -0.222348
  N     3.267117  5.303573  3.875307
  N     3.191620  8.789946  3.468652
  S     2.471299  5.033234  2.422983
  S     2.538769  8.434124  1.983362
  S     5.647327  4.882126 -0.252340
  S     5.871750  8.310240 -0.385660
  S     4.978898  5.415925  3.732199
  S     4.835389  8.773611  3.549109
