16  
    
  C     4.942663  4.754530  1.657847
  C     4.760990  8.820851  1.723467
  C     3.577614  4.523770  1.201789
  C     3.521238  8.387268  1.253569
  N     5.841809  4.922892  0.694504
  N     5.653436  9.066031  0.763616
  N     3.488805  4.543803 -0.114851
  N     3.430275  8.310854 -0.071587
  N     3.448965  4.508829  3.805229
  N     3.205035  8.630782  3.846128
  S     2.394851  4.434979  2.486904
  S     2.293525  8.279281  2.514512
  S     5.054920  4.775736 -0.761082
  S     4.889422  8.801770 -0.652939
  S     5.076774  4.849934  3.392464
  S     4.798888  8.893771  3.499888
