16  
    
  C    11.090311  8.167030  2.943875
  C    10.823409 11.940040  3.064355
  C     9.885064  7.677949  2.349597
  C     9.685040 11.284591  2.418773
  N    12.084179  8.443514  2.111458
  N    11.849982 12.104451  2.241910
  N     9.930084  7.576594  1.015840
  N     9.844952 11.074467  1.115297
  N     9.359966  7.798336  4.863895
  N     9.007315 11.592361  4.918426
  S     8.510590  7.502802  3.450972
  S     8.308565 11.081186  3.460201
  S    11.463290  7.955884  0.572288
  S    11.348059 11.718466  0.687820
  S    10.842825  8.523176  4.656921
  S    10.601933 12.138206  4.759768
