16  
    
  C    12.176088  8.947412  3.545292
  C    12.025661 12.400713  3.424554
  C    11.016757  8.458569  2.796638
  C    10.678574 12.210949  2.813109
  N    13.262923  9.073676  2.728660
  N    12.946725 12.568437  2.486388
  N    11.234190  8.342123  1.495531
  N    10.610135 12.128683  1.501729
  N    10.228953  8.584197  5.151773
  N    10.252064 12.047115  5.313796
  S     9.547354  8.353403  3.714201
  S     9.399767 11.861683  3.905719
  S    12.759315  8.837323  1.182810
  S    12.203562 12.220591  1.027050
  S    11.792206  9.058485  5.274201
  S    11.884900 12.452616  5.150035
