16  
    
  C    10.719867  7.712327  3.087038
  C    10.611809 11.926438  3.107602
  C     9.458626  7.341156  2.504768
  C     9.413320 11.244816  2.738819
  N    11.682024  8.067359  2.222296
  N    11.519460 12.169615  2.144960
  N     9.460284  7.434001  1.172317
  N     9.334837 10.971187  1.441971
  N     9.085386  7.554069  5.060182
  N     9.207774 11.534417  5.272796
  S     8.274097  7.079988  3.724868
  S     8.306366 10.922920  3.994658
  S    10.997408  7.790892  0.731994
  S    10.770245 11.627166  0.775642
  S    10.720969  7.814857  4.786951
  S    10.636856 12.239079  4.809300
