16  
    
  C     3.585798  4.590732  1.596472
  C     3.775487  8.325869  1.600607
  C     2.497529  3.833136  1.031928
  C     2.489835  8.097213  0.892849
  N     4.541102  4.843606  0.691809
  N     4.789172  8.634761  0.770600
  N     2.497309  3.815927 -0.291335
  N     2.618216  7.999507 -0.443020
  N     1.934735  4.002813  3.492940
  N     2.002483  8.000656  3.419894
  S     1.247154  3.455460  2.131977
  S     1.252173  7.748069  1.982234
  S     3.903403  4.454086 -0.822892
  S     4.178097  8.402278 -0.779887
  S     3.425616  4.716775  3.349094
  S     3.600797  8.451403  3.340767
