16  
    
  C     9.767372  7.677403  2.887687
  C     9.915070 11.135610  2.811730
  C     8.650376  7.150753  2.116937
  C     8.636779 10.899632  2.175543
  N    10.830753  7.900123  2.124958
  N    10.926667 11.293173  1.937283
  N     8.852974  6.979526  0.817119
  N     8.705776 10.687302  0.835249
  N     7.813453  7.611048  4.505681
  N     8.136521 10.944146  4.740270
  S     7.273052  6.851104  3.116085
  S     7.289089 10.904662  3.275124
  S    10.408613  7.504299  0.549750
  S    10.306545 10.988111  0.459690
  S     9.499407  7.843101  4.591682
  S     9.765521 11.237357  4.524821
