16  
    
  C     4.560479  5.181152  1.866157
  C     4.636919  8.508642  1.446081
  C     3.391597  4.599907  1.232090
  C     3.403046  8.162027  0.732524
  N     5.638210  5.277957  1.055399
  N     5.695889  8.664736  0.647019
  N     3.523448  4.474366 -0.080665
  N     3.641640  7.854282 -0.547859
  N     2.713105  4.729961  3.688174
  N     2.814304  8.360402  3.278103
  S     2.008745  4.509757  2.223808
  S     2.036538  7.962268  1.835766
  S     5.008871  5.017539 -0.525640
  S     5.223427  8.189458 -0.910468
  S     4.274838  5.296284  3.657504
  S     4.395907  8.884486  3.127104
