16  
    
  C     9.804575  7.701175  2.794121
  C    10.619715 11.489145  3.131909
  C     8.779640  7.060022  2.032288
  C     9.377662 11.202512  2.432455
  N    10.902034  8.059887  2.116795
  N    11.736692 11.590105  2.381617
  N     9.106073  6.933187  0.734328
  N     9.558946 10.962700  1.126883
  N     7.918232  7.240246  4.392423
  N     8.716994 11.376984  4.924196
  S     7.393743  6.634180  2.974524
  S     8.012561 10.949153  3.442526
  S    10.734316  7.499024  0.556498
  S    11.157042 11.238960  0.818101
  S     9.397016  7.992261  4.475510
  S    10.345582 11.806685  4.837963
