16  
    
  C     3.977026  4.671858  1.690580
  C     3.956492  8.512554  1.562975
  C     2.715912  4.498953  0.989037
  C     2.802720  7.961396  0.888118
  N     5.043240  4.689423  0.907962
  N     5.055742  8.468933  0.839758
  N     2.887264  4.167046 -0.294760
  N     2.962692  7.732264 -0.420841
  N     2.269901  4.842157  3.581507
  N     2.022069  8.343686  3.359253
  S     1.461872  4.356257  2.269452
  S     1.395355  7.884671  1.907142
  S     4.570983  4.341142 -0.641109
  S     4.582803  8.039390 -0.714283
  S     3.975524  4.972950  3.355651
  S     3.681888  8.685212  3.278196
