16  
    
  C    11.850668  8.682553  3.333771
  C    11.536882 12.399806  3.155195
  C    10.602071  8.135155  2.889111
  C    10.353813 11.790735  2.514810
  N    12.791494  8.834129  2.391913
  N    12.547647 12.656009  2.333874
  N    10.591757  7.949826  1.572820
  N    10.629651 11.344609  1.304093
  N    10.379794  8.609316  5.434095
  N     9.838955 11.939034  5.065918
  S     9.413536  8.081597  4.139331
  S     9.056133 11.316712  3.705925
  S    12.128790  8.259017  1.005812
  S    12.134564 12.039000  0.867031
  S    11.873071  9.099149  4.963403
  S    11.426727 12.413642  4.832868
