16  
    
  C     9.274451  7.036800  2.507939
  C     8.923282 10.977478  2.315157
  C     8.068061  6.486885  2.048412
  C     7.754457 10.406569  1.772310
  N    10.190854  7.154785  1.549067
  N     9.877678 11.211651  1.417033
  N     8.004958  6.312120  0.752321
  N     7.823483 10.137657  0.450726
  N     7.508938  6.961297  4.434540
  N     7.229549 10.503165  4.243774
  S     6.745089  6.326847  3.115541
  S     6.410082 10.138284  2.809385
  S     9.462098  6.692438  0.155881
  S     9.376519 10.627916 -0.007671
  S     9.165922  7.376574  4.270430
  S     8.669209 11.305109  4.053447
