16  
    
  C    12.714538  9.085885  3.356318
  C    12.733813 12.772236  3.526043
  C    11.466417  8.711658  2.793195
  C    11.624492 12.277565  2.789232
  N    13.726198  9.155040  2.489029
  N    13.791570 13.062016  2.795149
  N    11.508984  8.519422  1.448015
  N    11.835259 12.084760  1.488711
  N    11.090665  8.892800  5.416731
  N    10.875120 12.493646  5.228769
  S    10.261542  8.478406  4.044674
  S    10.229631 12.044215  3.794242
  S    13.095782  8.791070  1.037572
  S    13.327176 12.699098  1.174204
  S    12.656419  9.483762  5.055824
  S    12.340793 13.135031  5.105262
