16  
    
  C     7.714733  6.551026  2.420623
  C     7.791358 10.141216  2.207890
  C     6.398561  6.177688  1.871470
  C     6.536061  9.890025  1.526131
  N     8.664523  6.626455  1.475566
  N     8.847181 10.111746  1.386067
  N     6.448772  5.756599  0.608051
  N     6.679682  9.594140  0.244049
  N     5.973323  6.817118  4.316937
  N     5.888068  9.970786  3.981552
  S     5.078353  6.161447  2.987265
  S     5.137849  9.918103  2.486261
  S     8.022081  6.093788  0.023689
  S     8.310529  9.750351 -0.131368
  S     7.556276  7.033550  4.112175
  S     7.514195 10.230928  3.950827
