16  
    
  C    12.240823  9.078660  3.740479
  C    12.586311 12.628195  3.540389
  C    11.131014  8.418468  3.161610
  C    11.337844 12.434347  2.899612
  N    13.304364  9.227776  3.001575
  N    13.623561 12.885340  2.758529
  N    11.344383  8.241815  1.868267
  N    11.413095 12.482901  1.562425
  N    10.594773  8.745776  5.629902
  N    10.889671 12.304061  5.487521
  S     9.884988  8.047766  4.341995
  S    10.042817 12.289213  4.049812
  S    12.835177  8.763950  1.506976
  S    13.053367 12.718265  1.185601
  S    12.189789  9.223503  5.438946
  S    12.414756 12.970840  5.251808
