16  
    
  C    10.988048  7.643111  3.133267
  C    11.194615 11.756804  2.804755
  C     9.722104  7.437418  2.485051
  C     9.938532 11.209651  2.204654
  N    12.042691  7.858444  2.349819
  N    12.165526 11.910938  1.919400
  N     9.801371  7.535789  1.173285
  N    10.072024 10.803227  0.946710
  N     9.190033  7.707061  5.002955
  N     9.509395 11.748833  4.665800
  S     8.376006  7.178661  3.532759
  S     8.756866 10.905664  3.445579
  S    11.406200  7.680527  0.774875
  S    11.622275 11.397247  0.502214
  S    10.850408  7.655188  4.874407
  S    11.111769 12.106070  4.542488
