16  
    
  C     9.315380  6.731675  2.429491
  C     9.232442 10.756217  2.956519
  C     8.086285  6.314380  1.753171
  C     7.938159 10.476764  2.310791
  N    10.340471  6.708299  1.560201
  N    10.243832 10.658120  2.117881
  N     8.232186  5.792992  0.533097
  N     8.033987 10.062812  1.041039
  N     7.357728  6.872029  4.169256
  N     7.378621 10.891361  4.808184
  S     6.714364  6.335853  2.778443
  S     6.576177 10.674888  3.359364
  S     9.820984  5.993324  0.165511
  S     9.694340 10.057092  0.703460
  S     8.985235  7.236889  4.103809
  S     9.037964 11.093746  4.657258
