16  
    
  C     7.327996  6.020805  2.156127
  C     7.766318  9.715139  2.236969
  C     6.156081  5.544776  1.484867
  C     6.488750  9.353068  1.660505
  N     8.417136  6.222817  1.408411
  N     8.793024  9.886889  1.379838
  N     6.337352  5.552379  0.155759
  N     6.563599  9.248059  0.330701
  N     5.585957  5.607541  4.084254
  N     6.172952  9.530446  4.268354
  S     4.823786  5.183825  2.596711
  S     5.243264  9.288019  2.863806
  S     7.899956  5.940689 -0.146676
  S     8.199777  9.627389 -0.110660
  S     7.160428  6.073361  3.925075
  S     7.757176  9.829977  3.967399
