16  
    
  C     5.116505  4.970788  1.677761
  C     4.981000  8.693545  1.798796
  C     3.741622  4.724293  1.274217
  C     3.652592  8.426754  1.252368
  N     5.974611  5.019971  0.650575
  N     5.978184  8.749565  0.916327
  N     3.553211  4.819851 -0.042774
  N     3.654279  8.063889 -0.029702
  N     3.593200  4.782451  3.822652
  N     3.341189  8.683280  3.847187
  S     2.539026  4.579982  2.491416
  S     2.448442  8.345844  2.504642
  S     5.013951  4.943696 -0.737991
  S     5.257937  8.316240 -0.557061
  S     5.211180  4.818726  3.479251
  S     4.925044  9.081129  3.474347
