16  
    
  C     9.942120  7.615646  2.992671
  C    10.587610 11.665281  3.032838
  C     8.827743  7.161588  2.226276
  C     9.358763 11.010852  2.557534
  N    10.990467  7.987331  2.252520
  N    11.533851 11.836062  2.084482
  N     9.021379  7.143845  0.904470
  N     9.348473 10.692930  1.251899
  N     8.048065  7.074526  4.659903
  N     9.034279 11.390923  5.066147
  S     7.409356  6.802320  3.161028
  S     8.129425 10.872817  3.758174
  S    10.579178  7.638004  0.685377
  S    10.871924 11.204139  0.690177
  S     9.621721  7.584570  4.674558
  S    10.521340 11.970470  4.729432
