16  
    
  C    10.260060  7.129865  2.693845
  C    10.300669 10.985325  2.757866
  C     9.009997  7.004461  2.075418
  C     9.039597 10.791880  2.115706
  N    11.328205  7.291729  1.913666
  N    11.372526 11.106252  1.971574
  N     9.144061  7.019830  0.741176
  N     9.101014 10.719395  0.787005
  N     8.561717  7.399957  4.538189
  N     8.548880 10.745354  4.626518
  S     7.685915  7.067787  3.226874
  S     7.713280 10.925308  3.208275
  S    10.770254  7.205207  0.388289
  S    10.720891 10.970575  0.448065
  S    10.191626  7.405210  4.391309
  S    10.178622 10.998842  4.521712
