16  
    
  C    10.980086  8.041473  3.107004
  C    11.623949 11.638106  3.159595
  C     9.746546  7.505267  2.559241
  C    10.476622 11.167144  2.436540
  N    11.981824  8.057804  2.179673
  N    12.689153 11.938228  2.389689
  N     9.866985  7.229888  1.248837
  N    10.683458 11.075741  1.112925
  N     9.207404  8.014623  4.998657
  N     9.607143 11.542514  4.904000
  S     8.485236  7.230706  3.754789
  S     8.953873 11.054190  3.408300
  S    11.362958  7.603617  0.750590
  S    12.231668 11.530896  0.853976
  S    10.872954  8.372685  4.766476
  S    11.239855 12.061214  4.798076
