16  
    
  C    10.028067  7.757880  2.664710
  C    10.556524 11.519812  3.066676
  C     9.003996  6.986940  2.028389
  C     9.445994 11.150095  2.271229
  N    11.041872  8.085988  1.847519
  N    11.701895 11.553921  2.379426
  N     9.195898  6.682396  0.721266
  N     9.711763 10.993890  0.962726
  N     8.183878  7.634316  4.425589
  N     8.568875 11.393026  4.633782
  S     7.593945  6.803311  3.102951
  S     7.909779 11.312647  3.133484
  S    10.713484  7.373486  0.371668
  S    11.289514 11.271982  0.750261
  S     9.829353  8.157446  4.341615
  S    10.231920 11.575286  4.760641
