16  
    
  C    10.114261  7.482062  2.560032
  C    10.384843 11.065787  2.678736
  C     8.890567  6.959289  1.989690
  C     9.102326 10.980982  2.007829
  N    11.076081  7.656360  1.650889
  N    11.404436 10.943585  1.849299
  N     8.894620  6.720125  0.696960
  N     9.185174 11.043146  0.691353
  N     8.360522  7.280070  4.444008
  N     8.598746 11.038521  4.540138
  S     7.607938  6.693213  3.117574
  S     7.771942 10.905478  3.135341
  S    10.430161  7.016955  0.219500
  S    10.800241 10.994029  0.346263
  S     9.976682  7.595609  4.311749
  S    10.255393 11.118836  4.405239
