16  
    
  C     5.158950  5.376818  1.981450
  C     5.113639  8.638968  1.590199
  C     3.881454  4.980949  1.404398
  C     3.837260  8.470566  0.922385
  N     6.198577  5.095405  1.211461
  N     6.158711  8.662524  0.760613
  N     3.947708  4.574739  0.149384
  N     4.006600  8.194679 -0.374556
  N     3.269392  5.692968  3.801457
  N     3.328511  8.584962  3.442742
  S     2.466314  5.161563  2.355725
  S     2.511680  8.375695  2.007408
  S     5.533014  4.659056 -0.304538
  S     5.587237  8.337954 -0.718708
  S     4.943866  5.714571  3.691832
  S     4.980235  8.896975  3.258133
