16  
    
  C    12.732980  8.901805  3.566360
  C    12.314373 12.872412  3.823680
  C    11.527538  8.415720  3.009879
  C    11.200769 12.255177  3.189253
  N    13.749132  8.974637  2.685122
  N    13.334491 13.172983  3.036235
  N    11.470241  8.311111  1.660203
  N    11.376980 12.066606  1.896593
  N    10.905202  8.624641  5.575670
  N    10.463033 12.522210  5.571107
  S    10.121054  8.197996  4.059902
  S     9.959724 11.738762  4.199984
  S    13.011988  8.707479  1.203698
  S    12.857865 12.570980  1.529985
  S    12.482832  9.120279  5.295629
  S    12.074088 13.141799  5.569736
