16  
    
  C     5.495979  5.542106  1.669557
  C     5.329297  8.872524  1.656069
  C     4.247466  5.011483  1.104832
  C     4.167329  8.421673  0.924190
  N     6.436527  5.730014  0.726491
  N     6.370467  9.191923  0.881220
  N     4.242990  5.032527 -0.241866
  N     4.371353  8.129005 -0.361463
  N     3.661742  5.206419  3.564786
  N     3.355390  8.734859  3.374063
  S     2.858434  5.039270  2.116126
  S     2.707560  8.347601  1.903910
  S     5.747936  5.452655 -0.757557
  S     5.963107  8.670917 -0.669255
  S     5.335280  5.676835  3.415921
  S     4.944580  9.206900  3.315852
