16  
    
  C     9.861550  7.813106  2.759789
  C    10.617996 11.550180  3.150973
  C     8.851805  7.101551  1.967507
  C     9.425553 11.203154  2.395717
  N    10.923637  8.070562  2.033651
  N    11.686725 11.594427  2.372278
  N     9.196405  6.834623  0.716679
  N     9.579853 10.972120  1.099674
  N     8.013307  7.202521  4.420641
  N     8.706793 11.320041  4.869815
  S     7.423713  6.662731  2.974283
  S     7.971677 11.019642  3.374496
  S    10.707286  7.448587  0.521442
  S    11.237358 11.233037  0.838730
  S     9.403880  8.064202  4.456372
  S    10.319608 11.753042  4.861446
