16  
    
  C     5.829840  5.436240  2.134711
  C     5.851117  9.009154  1.863544
  C     4.583118  5.376482  1.445251
  C     4.656640  8.671761  1.158792
  N     6.917829  5.481559  1.333093
  N     7.007961  9.091264  1.176899
  N     4.625259  5.096145  0.138116
  N     4.855601  8.571705 -0.150767
  N     3.977776  5.666767  3.979690
  N     3.950785  9.174994  3.643206
  S     3.235896  5.571180  2.466761
  S     3.216393  8.818699  2.182111
  S     6.247669  5.306565 -0.194648
  S     6.471591  8.816302 -0.416179
  S     5.613424  5.890318  3.781926
  S     5.673105  9.302680  3.559523
