16  
    
  C     8.279533  6.694845  2.240181
  C     8.147260 10.120221  2.584372
  C     7.126759  6.079262  1.695835
  C     7.078757  9.424855  1.929028
  N     9.386451  6.664782  1.479897
  N     9.187390 10.398985  1.822279
  N     7.242587  5.775249  0.396280
  N     7.258348  9.153084  0.644446
  N     6.610866  6.455395  4.205103
  N     6.247677  9.838262  4.308369
  S     5.731603  6.046024  2.809318
  S     5.623050  9.193459  2.913542
  S     8.839868  6.091047 -0.022766
  S     8.735898  9.875787  0.255086
  S     8.146225  7.079600  3.963587
  S     7.789444 10.417504  4.293164
