16  
    
  C    12.415975  9.124521  3.386914
  C    12.317285 12.825627  3.310132
  C    11.151910  8.741450  2.889549
  C    11.165603 12.181666  2.757129
  N    13.369927  9.128288  2.441132
  N    13.411377 12.767514  2.572249
  N    11.149256  8.394993  1.584982
  N    11.320810 11.845894  1.474004
  N    10.733888  9.256421  5.414238
  N    10.605920 12.482421  5.297772
  S     9.921090  8.643691  4.033423
  S     9.800782 11.973760  3.903803
  S    12.693599  8.571037  1.058042
  S    12.933178 12.237503  1.090430
  S    12.425252  9.571183  5.111145
  S    12.119499 13.212029  5.079303
