16  
    
  C     7.640562  6.257445  2.291927
  C     7.779326 10.008745  2.448960
  C     6.351634  5.965480  1.791322
  C     6.583163  9.588726  1.773939
  N     8.525203  6.505362  1.317407
  N     8.813242 10.225332  1.635530
  N     6.289793  5.804336  0.471208
  N     6.694393  9.531867  0.436898
  N     6.025807  6.351649  4.277730
  N     5.877304  9.771472  4.210930
  S     5.140288  5.906562  3.017371
  S     5.216090  9.343781  2.768115
  S     7.774442  6.178769 -0.105212
  S     8.326612  9.887310  0.118895
  S     7.670530  6.622638  3.993672
  S     7.467771 10.316704  4.163066
