16  
    
  C     7.395490  5.979137  2.194804
  C     7.828035  9.774667  2.245877
  C     6.190732  5.552167  1.513476
  C     6.550875  9.411019  1.634658
  N     8.388171  6.275365  1.388081
  N     8.816169  9.968418  1.367516
  N     6.275432  5.502727  0.182215
  N     6.623997  9.297455  0.309274
  N     5.639790  5.632769  4.039879
  N     6.277539  9.361869  4.215801
  S     4.915046  5.169392  2.656236
  S     5.330284  9.271471  2.892887
  S     7.898378  5.972120 -0.172200
  S     8.173743  9.582816 -0.146621
  S     7.249415  6.120118  3.918129
  S     7.871432  9.951294  3.952001
