16  
    
  C     6.027672  5.651327  2.098242
  C     6.045867  9.134437  1.587677
  C     4.718259  5.381711  1.521874
  C     4.802145  8.706165  0.933145
  N     7.074256  5.544228  1.275938
  N     7.041759  9.379095  0.735697
  N     4.742231  5.264730  0.190166
  N     4.936952  8.450463 -0.368027
  N     4.427310  5.839249  4.065065
  N     4.213630  9.150286  3.403739
  S     3.524012  5.723650  2.682805
  S     3.445650  8.699589  2.078514
  S     6.386489  5.341280 -0.216933
  S     6.479298  8.841217 -0.789592
  S     6.000920  5.871153  3.807635
  S     5.872801  9.469481  3.286508
