16  
    
  C     7.153520  6.146196  2.050517
  C     7.410445  9.728743  2.493907
  C     6.081487  5.474708  1.360947
  C     6.138430  9.457008  1.823129
  N     8.280745  6.226828  1.304558
  N     8.461228  9.730134  1.674060
  N     6.230866  5.278097  0.047069
  N     6.229660  9.216258  0.536789
  N     5.149622  5.738602  3.800562
  N     5.464007  9.565647  4.313668
  S     4.720813  5.056440  2.375607
  S     4.767061  9.572243  2.835252
  S     7.824315  5.660959 -0.216923
  S     7.834308  9.360033  0.176053
  S     6.772626  6.286547  3.770633
  S     7.132511  9.992186  4.212145
