16  
    
  C    11.066102  8.328176  2.940651
  C    10.803579 11.895508  2.996536
  C     9.966357  7.601870  2.456842
  C     9.621424 11.321072  2.384602
  N    11.963147  8.641748  2.007763
  N    11.881506 12.002991  2.181420
  N     9.983881  7.289730  1.171875
  N     9.727861 11.171548  1.055554
  N     9.454442  7.950084  4.966566
  N     9.131995 11.353472  4.928920
  S     8.718732  7.270224  3.629161
  S     8.320333 10.897241  3.495520
  S    11.438625  7.896996  0.577279
  S    11.295286 11.614912  0.700450
  S    10.995965  8.610723  4.608104
  S    10.693023 11.909239  4.709342
