16  
    
  C     9.859043  7.875388  2.688099
  C    10.555129 11.587131  3.113349
  C     8.868086  7.116722  2.007000
  C     9.404059 11.142537  2.387940
  N    11.019813  8.097212  1.989486
  N    11.681784 11.621021  2.396108
  N     9.219872  6.742401  0.755986
  N     9.669812 11.004584  1.089066
  N     8.015100  7.197875  4.463838
  N     8.670388 11.274108  4.798174
  S     7.491172  6.692594  2.973493
  S     7.977032 11.100915  3.337974
  S    10.684930  7.423822  0.498849
  S    11.266917 11.221839  0.839100
  S     9.453984  8.099913  4.395169
  S    10.293966 11.701576  4.857323
