16  
    
  C    10.529985  7.302667  2.729406
  C    10.325361 11.313293  2.666311
  C     9.233496  7.320034  2.141951
  C     9.109112 10.925472  2.030463
  N    11.478052  7.274314  1.831272
  N    11.386534 11.288998  1.886214
  N     9.133709  7.291553  0.834487
  N     9.162861 10.695662  0.725559
  N     8.843810  7.591955  4.663893
  N     8.579644 11.225165  4.533659
  S     7.950439  7.604070  3.250575
  S     7.745380 11.075953  3.135112
  S    10.738775  7.203677  0.314345
  S    10.781096 10.912163  0.321350
  S    10.452263  7.487286  4.493502
  S    10.217201 11.459504  4.395613
