16  
    
  C    12.769577  9.235617  3.434069
  C    12.712113 12.879184  3.590081
  C    11.570973  8.747632  2.784469
  C    11.548665 12.237764  3.009628
  N    13.811280  9.466946  2.697081
  N    13.756289 13.070408  2.775270
  N    11.833260  8.400693  1.539780
  N    11.677744 12.129135  1.680875
  N    10.984459  9.267913  5.186367
  N    10.966775 12.667648  5.516462
  S    10.252592  8.615763  3.885376
  S    10.152679 12.298199  4.100412
  S    13.378411  9.003370  1.151801
  S    13.242137 12.608816  1.323741
  S    12.594811  9.581857  5.115094
  S    12.512922 13.196049  5.336822
