16  
    
  C     8.009723  6.502020  2.649091
  C     8.554784 10.332444  2.448587
  C     6.800041  6.144356  1.872847
  C     7.263495  9.918022  1.928939
  N     9.061511  6.790408  1.886604
  N     9.549969 10.408250  1.574992
  N     7.045327  5.918011  0.580252
  N     7.346729  9.666638  0.592719
  N     6.113453  6.243447  4.388426
  N     6.920909 10.365578  4.484503
  S     5.393582  5.935674  2.910944
  S     6.066728  9.721592  3.178730
  S     8.679619  6.374032  0.323198
  S     8.960774  9.865040  0.176678
  S     7.714093  6.832140  4.314806
  S     8.539486 10.601652  4.187686
