16  
    
  C    12.896729  9.331501  3.499587
  C    12.791948 12.943665  3.576132
  C    11.690816  8.900666  2.836303
  C    11.525326 12.463436  3.016649
  N    13.914117  9.477524  2.641855
  N    13.822836 12.901522  2.689990
  N    11.824602  8.603465  1.554553
  N    11.598591 12.149564  1.722213
  N    10.994704  9.035470  5.319574
  N    11.093262 12.788672  5.473172
  S    10.337372  8.509999  3.877114
  S    10.173699 12.401299  4.101160
  S    13.433700  8.817753  1.113821
  S    13.156768 12.491172  1.280968
  S    12.534786  9.756167  5.174767
  S    12.700992 13.203707  5.376847
