16  
    
  C     4.778574  4.894585  2.116475
  C     4.704532  8.849853  1.636920
  C     3.578162  4.713939  1.314562
  C     3.546420  8.324202  0.977705
  N     5.856034  5.079681  1.332382
  N     5.712159  9.155233  0.837550
  N     3.762192  4.526293  0.003462
  N     3.517315  8.470793 -0.336527
  N     2.794676  4.783628  3.756003
  N     3.121365  8.211995  3.476447
  S     2.160968  4.542153  2.223086
  S     2.265077  7.896429  2.069846
  S     5.329670  4.830479 -0.235723
  S     5.086382  8.964348 -0.735481
  S     4.429749  5.111683  3.808751
  S     4.628315  8.864194  3.375134
