16  
    
  C     5.627396  5.312675  1.947796
  C     5.664243  8.953331  1.924996
  C     4.539373  4.581342  1.436900
  C     4.436974  8.509238  1.299151
  N     6.551109  5.634622  1.052223
  N     6.656089  9.277503  1.085524
  N     4.546769  4.424608  0.119694
  N     4.533769  8.450738 -0.022698
  N     3.940172  5.039059  3.953116
  N     3.930160  8.602683  3.874773
  S     3.300889  4.249494  2.614534
  S     3.182500  8.011049  2.439316
  S     6.007118  5.005755 -0.354238
  S     6.035627  8.928432 -0.423870
  S     5.474483  5.662277  3.611460
  S     5.537750  9.150035  3.665474
