16  
    
  C    10.409483  7.609902  2.598012
  C    10.439777 11.435704  2.723473
  C     9.078068  7.455879  2.029466
  C     9.190253 11.183982  1.999193
  N    11.421360  7.411805  1.782618
  N    11.550105 11.297166  1.979907
  N     9.086705  7.223565  0.733831
  N     9.340352 10.997221  0.670624
  N     8.760836  7.815468  4.598855
  N     8.604944 11.259605  4.501494
  S     7.848458  7.324409  3.270218
  S     7.848510 11.388992  3.044688
  S    10.735103  7.202774  0.275703
  S    10.979036 10.987737  0.388712
  S    10.359586  7.761945  4.290092
  S    10.213643 11.571902  4.409379
