16  
    
  C    11.338052  8.527506  3.357212
  C    11.393696 12.348273  3.313428
  C    10.147636  7.914974  2.754102
  C    10.242869 11.661274  2.785799
  N    12.410425  8.616801  2.583696
  N    12.414055 12.502179  2.463906
  N    10.410541  7.511471  1.531931
  N    10.320371 11.329198  1.492222
  N     9.514090  8.434449  5.145721
  N     9.736126 12.433360  5.177123
  S     8.775979  7.775179  3.799340
  S     8.916879 11.733381  3.965731
  S    11.973816  8.001462  1.111710
  S    11.913977 11.689189  1.062434
  S    11.113147  8.965102  4.996541
  S    11.293478 12.753760  4.952011
