16  
    
  C     5.999630  5.676815  2.161604
  C     5.973677  9.210200  1.593808
  C     4.676879  5.568574  1.581168
  C     4.751181  8.908296  0.911478
  N     7.019596  5.464275  1.333202
  N     7.075576  9.203223  0.857502
  N     4.669519  5.394079  0.271076
  N     4.908911  8.570953 -0.373227
  N     4.242619  5.851501  4.068018
  N     4.141353  9.017277  3.415612
  S     3.302601  5.700093  2.647069
  S     3.357621  8.783921  2.012123
  S     6.276827  5.286667 -0.179633
  S     6.503569  8.786369 -0.689790
  S     5.876191  5.834595  3.913358
  S     5.776802  9.533076  3.253855
