16  
    
  C     9.602212  7.324970  2.984663
  C     9.614251 10.883000  2.740937
  C     8.534677  6.765854  2.216651
  C     8.434654 10.480500  2.120588
  N    10.662279  7.676708  2.241253
  N    10.610079 11.166618  1.925915
  N     8.705030  6.780839  0.901441
  N     8.488663 10.382720  0.796298
  N     7.751302  6.632081  4.590563
  N     7.909017 10.658102  4.615084
  S     7.151841  6.207788  3.136351
  S     7.103375 10.236746  3.221219
  S    10.225026  7.334671  0.672399
  S     9.992335 10.847621  0.384023
  S     9.237876  7.344589  4.665098
  S     9.531715 11.022505  4.470856
