16  
    
  C     6.566875  5.826590  2.093453
  C     6.426266  9.417298  1.907783
  C     5.383116  5.377647  1.436556
  C     5.276115  8.936180  1.190282
  N     7.593563  6.005779  1.288509
  N     7.485459  9.622963  1.157401
  N     5.489131  5.230853  0.131107
  N     5.491561  8.744298 -0.106344
  N     4.844554  5.650612  3.977768
  N     4.700297  9.095449  3.707495
  S     4.136183  5.176258  2.556138
  S     3.991821  8.453331  2.282481
  S     7.062628  5.604094 -0.232559
  S     7.071743  9.225994 -0.392144
  S     6.402364  6.068487  3.802611
  S     6.284414  9.480142  3.630538
