16  
    
  C    12.082948  8.519799  3.480431
  C    12.096921 12.387966  3.304335
  C    10.864656  8.149089  2.815683
  C    10.984992 11.720136  2.639631
  N    13.142581  8.735687  2.710624
  N    13.219513 12.378922  2.550370
  N    11.028496  8.093403  1.492472
  N    11.211037 11.408397  1.366082
  N    10.230608  8.330605  5.303219
  N    10.266487 11.949132  5.104320
  S     9.456806  8.057829  3.865777
  S     9.660927 11.280544  3.690616
  S    12.638038  8.406153  1.189666
  S    12.772454 11.794731  1.042065
  S    11.798222  8.776690  5.208067
  S    11.881107 12.446738  4.991687
