16  
    
  C     9.851018  7.607581  2.957878
  C    10.616369 11.461988  3.096731
  C     8.758669  7.097540  2.135240
  C     9.336106 11.050493  2.465885
  N    10.934443  7.905749  2.243292
  N    11.618761 11.658096  2.256111
  N     9.031203  7.012003  0.835230
  N     9.441820 10.821965  1.160426
  N     7.872804  7.295445  4.417421
  N     8.854219 11.440687  5.022903
  S     7.350687  6.662579  3.033690
  S     8.067038 10.850403  3.655638
  S    10.603790  7.668449  0.628857
  S    11.003399 11.250072  0.734095
  S     9.444365  7.705943  4.630197
  S    10.465694 11.955422  4.775684
