16  
    
  C     7.411097  5.959711  2.188680
  C     7.837980  9.790485  2.231365
  C     6.192131  5.571572  1.519573
  C     6.553258  9.416446  1.644440
  N     8.411608  6.295352  1.385709
  N     8.847677  9.976591  1.364156
  N     6.270966  5.478807  0.195818
  N     6.633851  9.302512  0.314660
  N     5.652689  5.647144  4.020844
  N     6.302190  9.351337  4.192824
  S     4.937933  5.167661  2.659813
  S     5.346035  9.264846  2.893750
  S     7.883251  5.976021 -0.165131
  S     8.159993  9.579986 -0.147389
  S     7.254779  6.122865  3.914859
  S     7.875483  9.968305  3.958953
