16  
    
  C     8.246126  6.575027  2.296114
  C     8.069235 10.121070  2.429083
  C     7.023932  6.004968  1.692609
  C     6.889190  9.458736  1.835289
  N     9.277254  6.618073  1.449139
  N     9.023843 10.439501  1.598628
  N     7.108423  5.767009  0.390727
  N     7.028883  9.220076  0.531014
  N     6.410818  6.359394  4.183051
  N     6.282025  9.911375  4.271037
  S     5.673893  5.954587  2.748663
  S     5.551879  9.377663  2.879019
  S     8.668611  6.056043 -0.025395
  S     8.546305  9.812193  0.115390
  S     8.012231  6.832136  4.003180
  S     7.877310 10.298233  4.159307
