16  
    
  C     5.155434  5.366813  1.818697
  C     5.117345  8.824130  1.329717
  C     3.864955  5.057313  1.305430
  C     3.849966  8.283995  0.830908
  N     6.152271  5.341840  0.926038
  N     6.102963  8.901723  0.438410
  N     3.920397  4.526435  0.069328
  N     3.833607  8.064021 -0.475581
  N     3.523777  5.578662  3.764318
  N     3.479275  8.911431  3.300356
  S     2.565479  5.280593  2.485611
  S     2.584317  8.333818  2.012407
  S     5.460046  4.831956 -0.468301
  S     5.371998  8.444158 -0.997854
  S     5.155835  5.890659  3.469836
  S     5.086452  9.123346  3.025562
