16  
    
  C     9.279553  7.022990  2.506399
  C     8.922702 10.968410  2.311200
  C     8.065022  6.488687  2.042627
  C     7.751848 10.407733  1.768118
  N    10.196402  7.151349  1.549734
  N     9.884399 11.202702  1.415793
  N     8.007090  6.307525  0.747863
  N     7.828270 10.136548  0.448114
  N     7.508367  6.958079  4.434206
  N     7.229099 10.507945  4.242211
  S     6.743673  6.328530  3.114069
  S     6.411381 10.136438  2.812324
  S     9.466148  6.697147  0.150309
  S     9.377831 10.625088 -0.005855
  S     9.166521  7.376725  4.267105
  S     8.667871 11.302772  4.051526
