16  
    
  C     4.787339  4.960235  2.121747
  C     4.757714  8.735097  1.600590
  C     3.611524  4.618063  1.366626
  C     3.518777  8.331063  0.935045
  N     5.843902  5.127675  1.330958
  N     5.707847  9.143879  0.757165
  N     3.730469  4.616463  0.048395
  N     3.603951  8.360196 -0.394865
  N     2.745325  4.765241  3.684413
  N     3.046474  8.249132  3.445751
  S     2.116812  4.575612  2.195770
  S     2.286476  7.863071  2.031785
  S     5.345354  4.824878 -0.223559
  S     5.136306  8.925465 -0.736602
  S     4.368167  5.149402  3.859094
  S     4.597526  8.842156  3.310748
