16  
    
  C     5.733605  5.710676  1.830743
  C     5.922345  8.995133  2.093546
  C     4.513868  5.295027  1.221472
  C     4.649498  8.767125  1.440792
  N     6.816646  5.507207  1.089568
  N     6.970901  9.086053  1.271679
  N     4.680892  4.971305 -0.045734
  N     4.816039  8.489336  0.162552
  N     3.997373  5.602353  3.719392
  N     4.078317  8.847565  3.903175
  S     3.203042  5.234348  2.346514
  S     3.286579  8.556466  2.458517
  S     6.274804  5.045073 -0.387978
  S     6.443775  8.702700 -0.213384
  S     5.598553  5.730697  3.541451
  S     5.748232  9.060248  3.816578
