16  
    
  C    12.082142  8.607246  3.334997
  C    12.183202 12.120671  3.287893
  C    10.777649  8.235808  2.765045
  C    10.980464 11.595498  2.624183
  N    13.085158  8.693060  2.425344
  N    13.134647 12.389662  2.404026
  N    10.760844  8.175966  1.446604
  N    11.126513 11.292550  1.348634
  N    10.338272  8.434624  5.215799
  N    10.289562 11.997669  5.028779
  S     9.511384  8.072981  3.891025
  S     9.546124 11.556327  3.643198
  S    12.322736  8.344588  0.936790
  S    12.548477 11.938223  0.860934
  S    11.983610  8.718660  5.078283
  S    11.851970 12.370267  5.006685
