16  
    
  C     6.554461  5.862728  2.081726
  C     6.159005  9.207669  1.853307
  C     5.415120  5.240670  1.433878
  C     4.936908  8.817244  1.175051
  N     7.609556  5.984142  1.262477
  N     7.239765  9.439105  1.078412
  N     5.483785  5.086327  0.101513
  N     5.096438  8.666099 -0.131458
  N     4.620201  5.724671  3.841875
  N     4.369295  8.993580  3.651187
  S     4.017430  5.136372  2.468123
  S     3.614839  8.528983  2.257700
  S     7.039134  5.578535 -0.257489
  S     6.693515  8.968284 -0.465979
  S     6.268962  6.053203  3.789082
  S     5.916134  9.319759  3.593084
