16  
    
  C     5.148615  5.204253  2.051241
  C     5.131158  8.658821  1.639964
  C     3.896822  4.925520  1.405223
  C     3.899235  8.455641  0.935546
  N     6.216112  5.056739  1.231861
  N     6.244816  8.603874  0.921025
  N     3.982308  4.608534  0.127458
  N     4.052100  8.291287 -0.375364
  N     3.225058  5.547947  3.800057
  N     3.308557  8.526226  3.452631
  S     2.454340  5.154036  2.362832
  S     2.524178  8.411843  2.006567
  S     5.567792  4.694130 -0.257420
  S     5.686959  8.304370 -0.636194
  S     4.952389  5.699046  3.713624
  S     4.901937  8.854731  3.345083
