16  
    
  C    12.524875  9.019475  3.412572
  C    12.252445 12.827222  3.576050
  C    11.322273  8.553597  2.746019
  C    11.106366 12.071929  3.053822
  N    13.551706  9.329366  2.628295
  N    13.191385 13.173585  2.704722
  N    11.594647  8.311800  1.446254
  N    11.189284 11.915445  1.737983
  N    10.776248  8.593348  5.229105
  N    10.704303 12.305749  5.530510
  S     9.993206  8.259264  3.869127
  S     9.859135 11.872270  4.155676
  S    13.088629  8.876705  1.082411
  S    12.652135 12.629942  1.245433
  S    12.344009  9.026883  5.099838
  S    12.114870 13.151915  5.283544
