16  
    
  C    10.871000  8.035272  3.128906
  C    10.583661 11.963428  3.163858
  C     9.570349  7.612803  2.559653
  C     9.390375 11.313181  2.708004
  N    11.856689  8.134454  2.229570
  N    11.398814 12.376008  2.198639
  N     9.649331  7.407190  1.257163
  N     9.476474 11.058019  1.399867
  N     9.188252  7.664061  5.083133
  N     9.148882 11.725654  5.246508
  S     8.373107  7.144809  3.772842
  S     8.309881 10.930207  3.992626
  S    11.158517  7.813847  0.746654
  S    10.873872 11.670192  0.793830
  S    10.779098  8.002912  4.936241
  S    10.723872 12.113276  4.922774
