16  
    
  C     5.063323  5.429170  1.853031
  C     5.113457  8.668807  1.392884
  C     3.804935  4.903706  1.337970
  C     3.850761  8.356245  0.868176
  N     6.102334  5.358679  1.036576
  N     6.055311  8.870120  0.464513
  N     3.896029  4.598262  0.021293
  N     3.882004  8.058291 -0.427579
  N     3.443259  5.769034  3.836795
  N     3.403457  8.879730  3.360737
  S     2.500915  5.249644  2.451489
  S     2.576614  8.335605  2.040966
  S     5.530264  4.710155 -0.385089
  S     5.389048  8.416847 -0.965182
  S     5.096203  5.800589  3.513334
  S     5.046285  9.024913  3.106811
