16  
    
  C     3.802891  4.637700  1.594203
  C     3.810086  8.491439  1.666384
  C     2.515781  4.561844  0.950637
  C     2.587113  7.856965  1.109837
  N     4.782487  4.703350  0.666062
  N     4.893866  8.443072  0.864427
  N     2.540912  4.372417 -0.375811
  N     2.750013  7.531750 -0.186257
  N     1.900623  4.630859  3.499547
  N     2.006712  8.412694  3.595390
  S     1.167673  4.375534  1.980496
  S     1.220657  7.917137  2.172659
  S     4.042982  4.593998 -0.871388
  S     4.319869  7.822990 -0.611439
  S     3.516405  4.905886  3.373075
  S     3.607596  8.751956  3.373008
