16  
    
  C     9.399498  7.007981  2.928124
  C     9.650761 10.780271  2.603050
  C     8.188546  6.581524  2.261100
  C     8.430909 10.270317  1.981144
  N    10.419652  7.334164  2.082951
  N    10.622502 11.177450  1.758453
  N     8.300958  6.492028  0.937282
  N     8.535158 10.236441  0.649601
  N     7.538682  6.529775  4.773990
  N     7.954760 10.320398  4.551055
  S     6.973603  5.967694  3.300247
  S     7.188322  9.825821  3.130070
  S     9.780595  7.064394  0.540845
  S    10.019195 10.903646  0.224868
  S     9.185426  6.902998  4.727464
  S     9.515789 10.871498  4.331706
