16  
    
  C    11.051929  8.343542  2.940905
  C    10.809405 11.923422  3.003843
  C     9.938763  7.629942  2.438254
  C     9.614384 11.318244  2.412528
  N    11.989124  8.639281  2.038353
  N    11.880092 12.047169  2.183386
  N     9.980342  7.291537  1.152348
  N     9.713280 11.183835  1.081706
  N     9.457243  7.941491  4.931666
  N     9.116735 11.387251  4.944256
  S     8.715429  7.287308  3.621144
  S     8.326751 10.902586  3.486975
  S    11.446630  7.898105  0.579355
  S    11.305873 11.607176  0.704247
  S    10.997996  8.590892  4.609110
  S    10.685255 11.918561  4.706700
