16  
    
  C    11.904948  8.648521  3.350686
  C    11.697477 12.097157  3.190214
  C    10.678620  8.043241  2.890192
  C    10.470202 11.680991  2.582663
  N    12.847827  8.729781  2.438281
  N    12.641621 12.408885  2.316904
  N    10.699447  7.767261  1.600027
  N    10.454220 11.556002  1.245189
  N    10.356759  8.589390  5.401342
  N     9.963841 11.980849  4.994604
  S     9.483894  7.951549  4.105215
  S     9.200117 11.473157  3.689266
  S    12.155394  8.316413  0.976957
  S    12.056929 12.012873  0.822314
  S    11.894377  9.066040  5.091177
  S    11.530868 12.363862  4.934379
