16  
    
  C    11.998440  8.775524  3.388968
  C    11.883621 12.178475  3.273681
  C    10.752117  8.551827  2.714114
  C    10.621991 11.757390  2.752721
  N    13.099765  8.867899  2.654710
  N    12.787911 12.411532  2.330200
  N    10.892968  8.419228  1.388811
  N    10.542749 11.793487  1.409152
  N    10.213607  8.481948  5.242681
  N    10.290714 12.107271  5.347648
  S     9.409185  8.265216  3.799980
  S     9.321740 11.856283  3.920249
  S    12.529738  8.654636  1.060612
  S    12.035372 12.178955  0.845774
  S    11.901226  8.760756  5.115708
  S    11.923251 12.172811  4.969921
