16  
    
  C    11.901657  8.709208  3.443455
  C    11.746020 11.959994  3.212781
  C    10.733255  8.113749  2.870336
  C    10.488819 11.768570  2.533737
  N    12.944293  8.828482  2.618298
  N    12.746510 12.215533  2.390761
  N    10.875823  7.773930  1.581712
  N    10.564511 11.712364  1.198737
  N    10.299942  8.377168  5.430734
  N    10.212870 11.868458  5.176018
  S     9.469535  7.876006  4.064251
  S     9.307840 11.564494  3.822406
  S    12.431117  8.301396  1.177448
  S    12.177104 11.925072  0.849612
  S    11.919142  8.908633  5.175506
  S    11.762152 12.305508  4.909867
