16  
    
  C     9.865776  7.588572  2.610965
  C     9.859121 11.225692  2.965034
  C     8.607113  7.284665  2.019402
  C     8.761316 10.686602  2.292026
  N    10.901496  7.802131  1.817252
  N    10.884641 11.616034  2.210741
  N     8.682884  7.201974  0.697695
  N     8.993619 10.453890  0.992010
  N     8.163216  7.406113  4.564452
  N     8.061157 10.710272  4.769138
  S     7.294570  7.142469  3.171125
  S     7.381361 10.377358  3.290598
  S    10.258390  7.492371  0.299727
  S    10.468720 11.079546  0.627735
  S     9.809429  7.728290  4.349863
  S     9.586283 11.460413  4.685125
