16  
    
  C    12.629049  8.945317  3.700078
  C    12.430740 12.739094  3.951371
  C    11.435293  8.378159  3.066333
  C    11.362719 12.130935  3.197355
  N    13.662998  9.125471  2.898101
  N    13.512859 12.982093  3.259363
  N    11.534809  8.271169  1.738220
  N    11.643614 11.955395  1.893066
  N    11.030962  8.453004  5.727352
  N    10.578934 12.316407  5.714859
  S    10.192534  8.188591  4.233239
  S     9.972201 11.897984  4.272728
  S    13.132710  8.664843  1.449108
  S    13.110746 12.671386  1.653870
  S    12.578372  9.072601  5.418224
  S    12.086514 13.046650  5.575780
