16  
    
  C     4.562579  5.184514  1.641995
  C     4.409343  8.439406  1.524756
  C     3.352788  4.708626  1.052337
  C     3.158846  7.975390  0.884862
  N     5.533882  5.243736  0.743377
  N     5.425807  8.612048  0.694137
  N     3.320678  4.556570 -0.271963
  N     3.332301  7.640593 -0.388067
  N     2.779235  4.842813  3.525030
  N     2.593046  8.628790  3.308817
  S     2.023062  4.502113  2.109529
  S     1.878342  7.916902  2.021280
  S     4.863923  4.860867 -0.789979
  S     4.885332  8.038663 -0.803585
  S     4.331043  5.474126  3.405852
  S     4.221595  8.884996  3.173215
