16  
    
  C     6.712202  5.813452  2.017557
  C     6.694560  9.525719  2.129233
  C     5.443406  5.444046  1.479890
  C     5.426415  9.142400  1.620772
  N     7.703022  5.844022  1.126754
  N     7.645020  9.774428  1.255540
  N     5.461608  5.447373  0.155100
  N     5.389857  9.001487  0.300054
  N     5.023999  5.721643  3.943729
  N     5.093272  9.293147  4.156067
  S     4.076884  5.360985  2.575376
  S     4.179610  9.084139  2.825063
  S     7.037949  5.583232 -0.385257
  S     6.921382  9.366323 -0.239693
  S     6.661060  5.957554  3.785390
  S     6.683355  9.834473  3.835980
