16  
    
  C     9.654938  7.371804  2.840815
  C     9.734932 10.959149  2.840469
  C     8.503326  6.875245  2.093361
  C     8.461565 10.544250  2.169894
  N    10.731879  7.697178  2.150905
  N    10.724519 11.252672  2.031625
  N     8.775572  6.877421  0.796799
  N     8.652550 10.463625  0.858079
  N     7.837185  6.835587  4.604654
  N     7.901939 10.761283  4.708389
  S     7.163795  6.497300  3.143959
  S     7.214203 10.217952  3.284853
  S    10.338207  7.412381  0.577666
  S    10.163918 10.926424  0.464811
  S     9.349844  7.549054  4.555629
  S     9.523806 11.148528  4.577348
