16  
    
  C     9.089565  7.040264  2.392097
  C     9.163617 10.854155  2.551848
  C     7.893671  6.743458  1.657891
  C     7.941643 10.456100  1.937540
  N    10.123783  7.285372  1.590533
  N    10.149185 11.109734  1.710376
  N     7.991936  6.643568  0.346992
  N     8.029346 10.261260  0.616324
  N     7.192253  6.797053  4.099515
  N     7.434347 10.578796  4.427720
  S     6.479286  6.504524  2.595215
  S     6.575557 10.421100  3.041301
  S     9.526270  7.026335  0.034385
  S     9.498246 10.785904  0.193998
  S     8.822449  7.062127  4.138057
  S     8.994218 11.200339  4.303816
