16  
    
  C     7.831393  6.411306  2.204825
  C     8.101670 10.509504  2.165801
  C     6.666990  5.948820  1.500829
  C     6.881601  9.960166  1.605972
  N     8.888326  6.603090  1.408256
  N     9.111860 10.629079  1.305851
  N     6.790196  5.872108  0.163001
  N     6.949149  9.745989  0.272141
  N     5.975928  6.156131  4.047227
  N     6.440181 10.258761  4.132563
  S     5.381747  5.587933  2.634515
  S     5.669608  9.670905  2.782670
  S     8.394107  6.318480 -0.131641
  S     8.420475 10.217777 -0.220085
  S     7.645642  6.398180  3.919910
  S     7.904612 10.973914  3.826455
