16  
    
  C     9.710097  7.532433  2.830408
  C     9.964651 11.125417  2.709518
  C     8.596919  6.970587  2.152315
  C     8.705058 10.866872  2.083369
  N    10.765177  7.814299  2.069912
  N    10.945598 11.335123  1.843475
  N     8.766207  6.799400  0.831736
  N     8.747921 10.670490  0.755339
  N     7.788881  7.367115  4.630638
  N     8.237530 11.198204  4.649985
  S     7.178193  6.705583  3.213709
  S     7.380638 10.831022  3.221614
  S    10.333708  7.292018  0.527078
  S    10.337902 11.029347  0.362758
  S     9.357273  7.997313  4.427943
  S     9.896839 11.269612  4.458024
