16  
    
  C     6.759118  6.181501  2.397981
  C     7.289736  9.623122  2.206554
  C     5.674331  5.434830  1.815967
  C     5.981634  9.418818  1.577731
  N     7.588706  6.667975  1.492658
  N     8.237037  9.755759  1.297082
  N     5.715278  5.342015  0.504494
  N     5.976455  9.338330  0.253121
  N     5.361134  5.204896  4.361010
  N     5.494006  9.479583  4.027719
  S     4.549545  4.728214  2.919986
  S     4.618630  9.457401  2.623916
  S     7.075320  6.122476 -0.001146
  S     7.574430  9.479996 -0.242870
  S     6.595882  6.221865  4.114721
  S     7.099544  9.821216  3.950134
