16  
    
  C    11.424688  8.843800  3.233509
  C    11.394552 12.300876  3.248168
  C    10.321509  8.028947  2.679457
  C    10.236266 11.856785  2.549769
  N    12.352538  9.085465  2.315882
  N    12.498386 12.518714  2.505775
  N    10.501166  7.676485  1.420824
  N    10.458531 11.790391  1.251766
  N     9.830754  8.354748  5.197898
  N     9.534736 11.786657  5.071103
  S     9.035280  7.764155  3.881118
  S     8.889844 11.333467  3.566043
  S    11.924655  8.295592  0.920907
  S    12.046394 12.202811  0.985276
  S    11.319331  9.050034  4.958208
  S    11.085476 12.433648  4.937104
