16  
    
  C     7.015550  5.999374  1.914062
  C     7.249625  9.723483  2.498904
  C     5.943565  5.239091  1.262298
  C     5.995654  9.436751  1.838812
  N     8.047045  6.191742  1.115816
  N     8.292460  9.776137  1.672356
  N     6.144076  5.001807 -0.039562
  N     6.117004  9.147437  0.516103
  N     5.221384  5.810662  3.672185
  N     5.489636  9.837264  4.344913
  S     4.590863  4.966566  2.398661
  S     4.656073  9.591271  2.956047
  S     7.650196  5.625508 -0.361230
  S     7.803107  9.395625  0.197343
  S     6.830658  6.427609  3.568706
  S     7.180797 10.082981  4.177502
