16  
    
  C     8.825410  6.836794  2.273579
  C     9.026783 10.460631  2.537853
  C     7.591100  6.428034  1.537443
  C     7.758797 10.117925  1.867045
  N     9.861148  7.130329  1.510246
  N    10.074458 10.556876  1.687207
  N     7.767983  6.302691  0.228245
  N     7.858255  9.859512  0.571161
  N     6.981074  6.724843  4.057216
  N     7.277237 10.259865  4.432660
  S     6.251811  6.196871  2.659450
  S     6.449624  9.996940  3.032102
  S     9.332312  6.855972 -0.089940
  S     9.418924 10.121444  0.127232
  S     8.587772  7.213556  3.918880
  S     8.873012 10.647242  4.223530
