16  
    
  C    11.365668  8.511853  3.360479
  C    11.360512 12.414439  3.299444
  C    10.243245  7.877769  2.737168
  C    10.226461 11.730151  2.727701
  N    12.432727  8.648880  2.586646
  N    12.394364 12.529150  2.490115
  N    10.367319  7.560977  1.462983
  N    10.451647 11.303139  1.487548
  N     9.517947  8.524953  5.148100
  N     9.617396 12.484059  5.163354
  S     8.843828  7.748796  3.852354
  S     8.947722 11.647049  3.829000
  S    11.927573  8.045325  1.102743
  S    11.975668 11.809639  1.057790
  S    11.059175  9.055482  4.997921
  S    11.305276 12.745352  5.012741
