16  
    
  C     8.932076  6.979539  2.246357
  C     9.003517 10.552969  2.428175
  C     7.713994  6.558243  1.573328
  C     7.777595 10.084366  1.804162
  N     9.947187  7.219364  1.441984
  N    10.004748 10.711799  1.619348
  N     7.900571  6.335039  0.267118
  N     7.894707  9.812437  0.498632
  N     7.187088  6.710930  4.118776
  N     7.298463 10.380967  4.273797
  S     6.414330  6.300455  2.746696
  S     6.425154 10.097372  2.880398
  S     9.458791  6.746575 -0.090773
  S     9.465973 10.229161  0.062034
  S     8.794085  7.226526  3.920437
  S     8.905990 10.777859  4.117456
