16  
    
  C     6.811611  5.786002  1.910201
  C     7.181303  9.972841  2.436208
  C     5.770733  5.177310  1.117309
  C     5.985401  9.513071  1.803218
  N     7.987669  5.731992  1.309983
  N     8.169642 10.158345  1.572389
  N     6.158513  4.864163 -0.116445
  N     6.045868  9.326090  0.480256
  N     4.675406  6.060339  3.288861
  N     5.445779  9.831694  4.350190
  S     4.246350  5.176280  1.975676
  S     4.719643  9.301541  2.974731
  S     7.797681  5.189566 -0.212784
  S     7.639197  9.751289  0.084640
  S     6.375497  6.127347  3.571596
  S     7.125754 10.131148  4.138181
