16  
    
  C    12.807627  9.393603  3.425774
  C    12.754141 12.780907  3.661844
  C    11.680544  8.768520  2.802754
  C    11.546733 12.405915  3.021078
  N    13.894110  9.426158  2.690166
  N    13.749069 13.013580  2.839121
  N    11.814889  8.530871  1.501548
  N    11.629189 12.106449  1.729691
  N    10.996460  9.154084  5.295568
  N    11.005968 12.698240  5.532463
  S    10.317143  8.554609  3.841282
  S    10.240634 12.387245  4.129421
  S    13.366231  8.913766  1.204700
  S    13.172045 12.553614  1.285758
  S    12.578424  9.684632  5.140348
  S    12.585817 13.181951  5.280165
