16  
    
  C    11.918933  8.546367  3.197489
  C    11.390621 12.062471  3.499124
  C    10.639931  8.223110  2.604857
  C    10.216705 11.615460  2.791966
  N    12.916793  8.753426  2.365605
  N    12.407292 12.464616  2.736861
  N    10.673883  8.189394  1.290834
  N    10.385772 11.536674  1.459779
  N    10.234620  8.013117  5.144321
  N     9.612864 11.649467  5.367445
  S     9.323652  8.019320  3.757104
  S     9.027939 11.105363  3.875676
  S    12.240421  8.609508  0.832805
  S    11.959480 11.960585  1.172405
  S    11.817194  8.413984  4.926386
  S    11.233852 12.271104  5.210089
