16  
    
  C     8.312385  6.679573  2.281247
  C     8.137701 10.109069  2.568860
  C     7.069802  6.114673  1.675026
  C     7.023065  9.392826  1.905784
  N     9.345966  6.643054  1.453462
  N     9.188755 10.406994  1.762414
  N     7.246258  5.752523  0.410922
  N     7.257050  9.126460  0.622673
  N     6.532313  6.430389  4.129750
  N     6.220738  9.871828  4.314503
  S     5.740927  6.030456  2.776138
  S     5.623885  9.241506  2.900160
  S     8.766560  6.059212 -0.001472
  S     8.640462  9.860719  0.204549
  S     8.117033  7.046992  3.986737
  S     7.802908 10.380955  4.302095
