16  
    
  C     7.057591  5.971914  1.954381
  C     7.285619  9.743277  2.476211
  C     5.916854  5.415460  1.297736
  C     6.015671  9.440182  1.834584
  N     8.118555  6.207773  1.186888
  N     8.348061  9.729311  1.696436
  N     6.214601  5.093858  0.044910
  N     6.185375  9.152842  0.572128
  N     5.247152  5.822373  3.727808
  N     5.543248  9.764035  4.324914
  S     4.649578  4.977257  2.401091
  S     4.654715  9.597118  2.922606
  S     7.724956  5.647757 -0.319360
  S     7.824840  9.391468  0.162788
  S     6.782461  6.375811  3.626221
  S     7.141671 10.040329  4.197594
