16  
    
  C     8.058046  6.614689  2.665445
  C     8.654484 10.419330  2.771198
  C     6.911814  6.082458  1.893914
  C     7.468312  9.927156  2.061543
  N     9.184154  6.817509  2.002641
  N     9.716121 10.555574  1.967115
  N     7.209014  5.937076  0.596160
  N     7.644562  9.687934  0.763929
  N     6.161316  6.345700  4.379798
  N     6.891291 10.264132  4.628984
  S     5.504435  5.799308  2.945285
  S     6.092084  9.964024  3.219699
  S     8.848481  6.429725  0.411081
  S     9.227296 10.128483  0.463106
  S     7.802317  6.783379  4.339296
  S     8.503910 10.653008  4.471147
