16  
    
  C     9.805004  7.620712  2.746280
  C     9.811435 11.186502  2.950263
  C     8.618657  7.143204  2.035687
  C     8.647602 10.691018  2.242358
  N    10.802695  7.788984  1.905419
  N    10.826890 11.444403  2.175490
  N     8.735185  6.909849  0.736272
  N     8.854575 10.461165  0.952564
  N     7.969234  7.177575  4.556403
  N     8.012915 10.675811  4.741678
  S     7.250071  6.911024  3.107533
  S     7.320299 10.221936  3.281200
  S    10.254048  7.423415  0.357923
  S    10.355396 10.974500  0.601819
  S     9.604736  7.651311  4.511617
  S     9.559363 11.323738  4.631827
