16  
    
  C     8.540967  6.679901  2.308588
  C     8.169959 10.374322  2.615959
  C     7.321984  6.184574  1.784581
  C     7.129544  9.759339  1.879325
  N     9.498093  6.765930  1.409346
  N     9.311602 10.469821  1.912379
  N     7.314428  5.890134  0.512611
  N     7.467572  9.417223  0.652709
  N     6.821183  6.422299  4.272407
  N     6.285520  9.762008  4.271757
  S     5.997754  5.950686  2.863806
  S     5.781666  9.190785  2.794854
  S     8.852549  6.325482 -0.051875
  S     9.049904  9.890563  0.413067
  S     8.431409  7.032392  4.064274
  S     7.751004 10.540183  4.331214
