16  
    
  C     4.578114  5.070238  2.023223
  C     4.720011  8.742418  1.485324
  C     3.399291  4.812638  1.217171
  C     3.581895  8.170038  0.832585
  N     5.756057  5.164379  1.384211
  N     5.734390  9.024193  0.687700
  N     3.754380  4.538657 -0.034126
  N     3.662294  8.133532 -0.489825
  N     2.661581  4.969018  3.752636
  N     2.948263  8.362581  3.300164
  S     2.014113  4.511864  2.317291
  S     2.215823  7.840761  1.921996
  S     5.398183  4.898931 -0.179157
  S     5.231681  8.713194 -0.877165
  S     4.326999  5.133063  3.727880
  S     4.541480  8.783526  3.263087
