16  
    
  C    10.978837  7.699041  3.143193
  C    11.447972 11.786949  2.958081
  C     9.802645  7.535921  2.406793
  C    10.265601 11.109302  2.406121
  N    12.120322  7.795839  2.425961
  N    12.396295 12.002991  2.041939
  N    10.060617  7.502748  1.084889
  N    10.371637 10.789723  1.105344
  N     9.004110  7.521112  4.780991
  N     9.760357 11.600695  4.867911
  S     8.300151  7.421935  3.296013
  S     8.963042 10.912755  3.613273
  S    11.683921  7.611677  0.873841
  S    11.782955 11.404328  0.586788
  S    10.655117  7.746448  4.855699
  S    11.233591 12.299743  4.612417
