16  
    
  C     9.837815  7.436803  2.602108
  C    10.337591 11.399254  2.578102
  C     8.669036  6.697140  2.075742
  C     9.115764 10.836884  1.969864
  N    10.743577  7.680279  1.627754
  N    11.292673 11.546050  1.662623
  N     8.668021  6.396021  0.780834
  N     9.184814 10.653933  0.647912
  N     7.976231  7.363786  4.411643
  N     8.654813 11.096426  4.441497
  S     7.297036  6.550204  3.149133
  S     7.790401 10.845729  3.078776
  S    10.068270  7.057890  0.191469
  S    10.703741 11.107130  0.191359
  S     9.527531  7.929823  4.214665
  S    10.252055 11.544646  4.275017
