16  
    
  C     9.885881  7.580068  2.956412
  C    10.569178 11.558914  3.082973
  C     8.812066  7.076620  2.148882
  C     9.379497 11.024116  2.519112
  N    10.935641  7.948171  2.247799
  N    11.552839 11.673038  2.196599
  N     9.011419  7.081659  0.843581
  N     9.462377 10.774342  1.206001
  N     7.904387  7.229838  4.562690
  N     8.906973 11.410110  5.028587
  S     7.348413  6.707394  3.034526
  S     8.081167 10.857149  3.702136
  S    10.580783  7.655865  0.642238
  S    10.947420 11.242762  0.706296
  S     9.508772  7.662857  4.695224
  S    10.499460 11.967788  4.746287
