16  
    
  C    12.082666  8.516910  3.477267
  C    12.087884 12.376955  3.296873
  C    10.856263  8.131316  2.811380
  C    10.969424 11.713472  2.627065
  N    13.149293  8.736123  2.705925
  N    13.208921 12.392499  2.559094
  N    11.018478  8.097416  1.478507
  N    11.228816 11.397369  1.368256
  N    10.249902  8.337626  5.303007
  N    10.272746 11.951400  5.083264
  S     9.448869  8.059366  3.873879
  S     9.661897 11.293253  3.695157
  S    12.633425  8.407419  1.180336
  S    12.771075 11.799404  1.046034
  S    11.800274  8.777256  5.199693
  S    11.884150 12.440432  4.983648
