16  
    
  C    12.741830  8.829911  3.854601
  C    12.625138 12.776852  3.889441
  C    11.510849  8.366293  3.248511
  C    11.487306 12.307570  3.132039
  N    13.668142  9.257495  3.052594
  N    13.704374 12.927185  3.136216
  N    11.554776  8.319950  1.937408
  N    11.736138 12.006710  1.845714
  N    11.084033  8.602561  5.751384
  N    10.744226 12.372172  5.639358
  S    10.292462  8.084335  4.398374
  S    10.164784 11.846072  4.202781
  S    13.104963  8.917912  1.506879
  S    13.303539 12.526344  1.608142
  S    12.599748  9.103870  5.556699
  S    12.359267 12.665967  5.612304
