16  
    
  C     4.646928  5.045060  1.992432
  C     4.678283  8.697520  1.426069
  C     3.442466  4.720342  1.278605
  C     3.486562  8.112819  0.775084
  N     5.655283  5.358526  1.140556
  N     5.740010  8.760512  0.622621
  N     3.551882  4.536731 -0.025936
  N     3.641322  7.930294 -0.532999
  N     2.635746  4.895261  3.705784
  N     2.869063  8.313570  3.226901
  S     2.016090  4.471884  2.209722
  S     2.117247  7.958066  1.828051
  S     5.108983  4.942692 -0.379390
  S     5.238178  8.338104 -0.877904
  S     4.289347  5.214045  3.701534
  S     4.432225  8.821458  3.130260
