16  
    
  C     7.631749  6.314257  2.232101
  C     7.832880 10.102340  2.443677
  C     6.425179  5.824505  1.648246
  C     6.750001  9.445000  1.837009
  N     8.580059  6.440773  1.290709
  N     8.734725 10.461017  1.534899
  N     6.380311  5.729716  0.328734
  N     6.787767  9.250984  0.515321
  N     5.902002  5.935011  4.172621
  N     6.109755  9.584623  4.305351
  S     5.155380  5.476358  2.740211
  S     5.395508  9.143714  2.874647
  S     7.973028  6.041781 -0.202967
  S     8.247821  9.909075  0.036403
  S     7.549389  6.363301  3.996299
  S     7.684154 10.173753  4.200828
