16  
    
  C     9.639157  7.281767  3.019159
  C     9.641943 10.865354  2.747289
  C     8.527552  6.748914  2.260059
  C     8.363250 10.484072  2.078321
  N    10.611638  7.702488  2.227173
  N    10.570200 11.165811  1.852437
  N     8.671329  6.744253  0.955416
  N     8.439099 10.359669  0.755776
  N     7.729895  6.602487  4.645467
  N     7.893316 10.609881  4.641690
  S     7.160145  6.160875  3.112170
  S     7.098771 10.226354  3.209147
  S    10.182708  7.304408  0.672382
  S     9.991757 10.827804  0.359247
  S     9.220610  7.278450  4.691816
  S     9.524864 10.994900  4.448120
