16  
    
  C    11.790678  8.768128  3.525290
  C    11.584683 12.191946  3.270154
  C    10.575797  8.377373  2.845595
  C    10.422620 11.787324  2.540834
  N    12.864712  8.792124  2.729703
  N    12.702832 12.340113  2.583779
  N    10.701474  8.212197  1.505539
  N    10.734175 11.457844  1.295229
  N    10.006557  8.533552  5.347024
  N     9.648303 11.850871  4.945038
  S     9.226495  8.227899  3.907938
  S     8.981623 11.539431  3.501272
  S    12.300623  8.415520  1.196178
  S    12.270744 11.892677  1.009500
  S    11.597138  8.983609  5.277914
  S    11.226573 12.194689  4.984376
