16  
    
  C     9.597030  7.500365  2.585608
  C    10.279445 11.400869  2.534393
  C     8.509856  6.717148  2.049143
  C     8.989529 10.956709  1.939460
  N    10.546369  7.740774  1.678102
  N    11.261303 11.580336  1.636275
  N     8.714164  6.313822  0.792219
  N     9.107689 10.659809  0.628596
  N     7.863015  7.512687  4.450766
  N     8.584774 11.143988  4.525649
  S     7.249366  6.539525  3.191384
  S     7.739358 10.752625  3.139653
  S    10.114039  7.037543  0.277248
  S    10.647592 11.061957  0.190721
  S     9.475802  7.919977  4.274872
  S    10.183733 11.577510  4.257535
