16  
    
  C     9.999553  7.757906  2.982456
  C    10.529516 11.743041  2.999333
  C     8.817179  7.340178  2.254424
  C     9.318736 11.057649  2.593716
  N    11.111105  7.928991  2.251074
  N    11.397463 11.938615  1.988222
  N     9.068986  7.178407  0.956390
  N     9.366376 10.718562  1.308013
  N     8.323894  6.998098  4.809826
  N     9.095632 11.412935  5.121065
  S     7.498333  6.847271  3.310550
  S     8.174082 10.851895  3.827717
  S    10.621378  7.642067  0.705618
  S    10.802942 11.202374  0.647842
  S     9.897584  7.545609  4.719813
  S    10.621593 12.010207  4.729803
