16  
    
  C     7.011064  6.000611  1.908318
  C     7.246129  9.723424  2.498482
  C     5.946915  5.223088  1.258751
  C     6.000721  9.434680  1.836812
  N     8.044850  6.192918  1.109516
  N     8.289803  9.781711  1.676238
  N     6.134954  4.993359 -0.044504
  N     6.113620  9.149241  0.511453
  N     5.219044  5.810640  3.671434
  N     5.486489  9.843040  4.348843
  S     4.587268  4.966553  2.396928
  S     4.657510  9.590592  2.958398
  S     7.643218  5.622419 -0.366294
  S     7.796917  9.394720  0.199090
  S     6.832563  6.430861  3.563030
  S     7.182647 10.086838  4.175490
