16  
    
  C     9.426112  7.030114  2.945361
  C     9.558123 10.824121  2.591059
  C     8.306435  6.450659  2.265217
  C     8.396091 10.311904  1.975244
  N    10.426707  7.496441  2.218624
  N    10.568160 11.114587  1.782288
  N     8.442038  6.524940  0.952536
  N     8.447513 10.351415  0.663838
  N     7.712468  6.414976  4.763197
  N     7.953056 10.361674  4.489258
  S     6.984596  6.008988  3.313678
  S     7.121453  9.999366  3.117086
  S     9.921132  7.163278  0.673355
  S     9.945156 10.828552  0.235212
  S     9.273602  6.961491  4.684688
  S     9.524302 10.893155  4.351125
