16  
    
  C     8.532455  6.708294  2.297432
  C     8.282347 10.300870  2.610908
  C     7.342537  6.182637  1.759761
  C     7.244278  9.643195  1.884379
  N     9.543733  6.868038  1.474014
  N     9.403573 10.618687  1.932007
  N     7.341621  6.022269  0.452634
  N     7.494275  9.427566  0.612456
  N     6.953909  6.410006  4.319791
  N     6.299510  9.859494  4.231505
  S     6.113178  5.890501  2.983573
  S     5.793966  9.339180  2.749417
  S     8.883288  6.383715 -0.054864
  S     9.046752  9.976939  0.366721
  S     8.476332  6.875273  4.052546
  S     7.813243 10.556123  4.286873
