16  
    
  C     9.093479  6.966307  2.656723
  C     9.715387 10.824683  2.766980
  C     7.966386  6.407085  1.936754
  C     8.547060 10.135597  2.200546
  N    10.126301  7.189286  1.862435
  N    10.601020 11.180380  1.861421
  N     8.116258  6.279676  0.614568
  N     8.558008 10.034547  0.853474
  N     7.400696  6.502707  4.433910
  N     8.177253 10.146780  4.697876
  S     6.670458  6.014899  3.030439
  S     7.323647  9.666714  3.337546
  S     9.707146  6.788902  0.334689
  S    10.025519 10.748310  0.387237
  S     9.032926  6.795182  4.350262
  S     9.593062 10.968623  4.486111
