16  
    
  C     6.593633  5.805051  2.037473
  C     6.563464  9.391914  1.889391
  C     5.362842  5.312572  1.468625
  C     5.398626  8.906052  1.252997
  N     7.631504  5.910744  1.208063
  N     7.556311  9.700980  1.049125
  N     5.437649  5.231834  0.145782
  N     5.495293  8.796862 -0.053780
  N     4.883520  5.827506  3.986147
  N     4.762130  9.067996  3.709244
  S     3.975455  5.234153  2.630158
  S     4.083296  8.514321  2.337834
  S     6.979063  5.609940 -0.309397
  S     7.070454  9.253070 -0.437829
  S     6.502714  6.082565  3.767057
  S     6.338205  9.542044  3.601574
