16  
    
  C    11.905477  8.565086  3.193646
  C    11.416916 12.123076  3.500638
  C    10.641758  8.232044  2.630082
  C    10.228657 11.646430  2.794962
  N    12.894957  8.771145  2.357176
  N    12.420762 12.462498  2.710970
  N    10.655359  8.218324  1.319504
  N    10.351186 11.542895  1.474000
  N    10.263687  8.003251  5.136162
  N     9.619513 11.636932  5.332840
  S     9.318149  7.985640  3.757554
  S     9.016613 11.107196  3.860260
  S    12.233667  8.603424  0.804541
  S    11.947749 11.960862  1.178827
  S    11.811109  8.418356  4.927398
  S    11.201377 12.273304  5.193921
