16  
    
  C     3.558603  4.669266  1.523597
  C     3.806070  8.353742  1.669560
  C     2.335229  4.400656  0.857995
  C     2.604233  7.882773  1.101607
  N     4.601850  5.038466  0.783449
  N     4.880754  8.289639  0.886695
  N     2.563198  4.308474 -0.452659
  N     2.631265  7.741785 -0.237572
  N     1.996525  4.319115  3.449424
  N     2.152603  8.291328  3.601511
  S     1.058058  4.205418  2.037047
  S     1.308173  7.875824  2.215264
  S     4.126835  4.650291 -0.738513
  S     4.216163  7.954582 -0.632785
  S     3.568296  4.871242  3.200950
  S     3.748979  8.687906  3.391183
