16  
    
  C     6.305777  5.724213  2.025473
  C     6.033825  9.148870  1.657195
  C     5.034810  5.509634  1.414454
  C     4.814165  8.686959  1.072112
  N     7.313527  5.764544  1.159112
  N     7.051591  9.270154  0.802556
  N     5.110332  5.150510  0.130819
  N     4.897160  8.632533 -0.255700
  N     4.602716  5.669185  3.999680
  N     4.313664  8.978306  3.664027
  S     3.789365  5.404454  2.581622
  S     3.521056  8.566736  2.225500
  S     6.678242  5.349922 -0.302326
  S     6.515345  8.927465 -0.681893
  S     6.185560  6.093986  3.697280
  S     5.932558  9.418347  3.355541
