16  
    
  C    12.829347  9.026557  3.454153
  C    12.784386 12.796848  3.453195
  C    11.558867  8.598300  2.964652
  C    11.673614 12.147100  2.782998
  N    13.747964  9.232253  2.493801
  N    13.798723 13.001461  2.630034
  N    11.520258  8.369660  1.665602
  N    11.740886 12.098942  1.453728
  N    11.122103  9.028802  5.334247
  N    10.948379 12.373961  5.241086
  S    10.242429  8.388641  4.103916
  S    10.199993 11.976552  3.793670
  S    12.935810  8.845160  1.035675
  S    13.313334 12.594865  1.076720
  S    12.725727  9.383121  5.186893
  S    12.516378 13.010306  5.207130
