16  
    
  C    11.348069  8.762412  3.267243
  C    11.385523 12.292637  3.305292
  C    10.230625  8.010799  2.695623
  C    10.269930 11.787625  2.522881
  N    12.317858  8.991702  2.411256
  N    12.502684 12.455742  2.625162
  N    10.381324  7.636838  1.448139
  N    10.505821 11.630600  1.233523
  N     9.713091  8.404285  5.252043
  N     9.666593 11.773239  5.017600
  S     9.019510  7.743249  3.887829
  S     8.912153 11.420091  3.592290
  S    11.940121  8.217277  1.001428
  S    12.086334 12.195795  0.994548
  S    11.214096  9.153338  4.932403
  S    11.090808 12.601790  4.981398
