16  
    
  C     5.583709  5.489682  1.899576
  C     5.403675  8.873930  1.757812
  C     4.348277  4.938144  1.410531
  C     4.257228  8.417919  1.046727
  N     6.536945  5.566109  0.976071
  N     6.438648  9.172507  0.991887
  N     4.244607  4.848110  0.089477
  N     4.479710  8.161325 -0.235318
  N     4.048972  5.134863  3.992580
  N     3.440910  8.894979  3.467754
  S     3.138063  4.741832  2.629881
  S     2.923322  8.089456  2.086296
  S     5.725650  5.308105 -0.510673
  S     6.086389  8.721889 -0.563600
  S     5.673672  5.493684  3.691003
  S     5.132258  9.140993  3.469944
