16  
    
  C     4.299287  4.997450  1.133360
  C     4.355542  8.478741  1.429696
  C     3.009396  4.824561  0.461220
  C     3.280076  7.887490  0.736157
  N     5.347748  5.072084  0.324027
  N     5.430249  8.665793  0.674049
  N     3.168905  4.508684 -0.824905
  N     3.394144  7.810229 -0.580301
  N     2.731660  4.729355  3.087504
  N     2.452367  8.263171  3.119870
  S     1.741223  4.696041  1.744847
  S     1.855978  7.676894  1.678399
  S     4.762528  4.826648 -1.152257
  S     4.934665  8.341888 -0.850319
  S     4.340118  5.217246  2.820689
  S     4.140915  8.361088  3.139741
