16  
    
  C    12.102375  8.520982  3.621997
  C    11.995156 12.167033  3.262504
  C    10.917299  8.105758  2.937542
  C    10.759494 11.761909  2.687237
  N    13.162990  8.752891  2.839838
  N    12.949681 12.388350  2.367338
  N    11.021184  7.983732  1.595262
  N    10.814926 11.449514  1.404111
  N    10.175047  8.338512  5.417128
  N    10.223673 11.975469  5.221625
  S     9.479855  7.907042  3.889428
  S     9.498444 11.553958  3.789727
  S    12.584985  8.382202  1.269700
  S    12.289115 11.818135  0.912706
  S    11.785120  8.803382  5.313200
  S    11.900173 12.214520  5.052275
