16  
    
  C    12.839134  9.418366  3.412386
  C    12.798934 12.955932  3.572242
  C    11.680128  8.783199  2.803912
  C    11.529181 12.596211  2.993209
  N    13.973550  9.384384  2.651072
  N    13.830015 12.978152  2.709953
  N    11.861198  8.508677  1.501180
  N    11.609106 12.261187  1.719262
  N    11.093697  9.020776  5.307120
  N    11.042228 12.951226  5.497948
  S    10.380066  8.501562  3.893975
  S    10.272715 12.436730  4.109389
  S    13.430409  8.845965  1.183521
  S    13.189871 12.372998  1.208743
  S    12.529585  9.741777  5.162300
  S    12.731140 13.199165  5.266019
