16  
    
  C     6.776276  5.925144  1.491636
  C     7.230587  9.949347  2.470952
  C     5.696829  5.110780  0.985036
  C     5.953069  9.527068  1.914025
  N     7.879835  6.000500  0.716302
  N     8.254168 10.040356  1.612687
  N     5.852566  4.697985 -0.280679
  N     6.045333  9.199193  0.600196
  N     5.114204  5.808497  3.430143
  N     5.695000  9.751148  4.512272
  S     4.424039  4.926280  2.210576
  S     4.701319  9.510834  3.144476
  S     7.420336  5.174526 -0.652371
  S     7.603390  9.461015  0.163766
  S     6.592840  6.336765  3.101500
  S     7.202358 10.298923  4.133444
