16  
    
  C     5.764827  5.012005  1.854456
  C     5.704314  9.389322  1.984410
  C     4.619532  4.618199  1.109537
  C     4.623912  8.615986  1.489155
  N     6.883528  5.221586  1.150706
  N     6.695086  9.581851  1.104154
  N     4.925739  4.270709 -0.139433
  N     4.662880  8.344924  0.200637
  N     3.919238  4.700117  3.630640
  N     4.169068  8.795754  3.960338
  S     3.232126  4.298803  2.168426
  S     3.336888  8.278263  2.593253
  S     6.515696  4.733009 -0.395103
  S     6.153852  8.973598 -0.353168
  S     5.534303  5.269976  3.559548
  S     5.575235  9.514601  3.719242
