16  
    
  C    10.343121  7.140286  2.778643
  C    10.294159 10.974692  2.829068
  C     9.052209  7.121707  2.045785
  C     9.021624 10.841570  2.128120
  N    11.387394  7.194484  1.980488
  N    11.313724 11.148889  2.015704
  N     9.119589  7.183064  0.731039
  N     9.116033 10.675271  0.815985
  N     8.566207  7.431448  4.597445
  N     8.503501 10.802549  4.653912
  S     7.741016  7.111102  3.203757
  S     7.688840 10.853453  3.233542
  S    10.800297  7.188604  0.413997
  S    10.712591 10.958600  0.427380
  S    10.246583  7.365108  4.453552
  S    10.191397 11.005814  4.505923
