16  
    
  C     4.037742  4.710854  1.633529
  C     3.966641  8.453699  1.525210
  C     2.771908  4.491517  1.000550
  C     2.825318  7.938240  0.861708
  N     5.119243  4.759552  0.856457
  N     5.070981  8.499867  0.745257
  N     2.900182  4.290049 -0.319282
  N     3.018462  7.701953 -0.437065
  N     2.332879  4.812703  3.578476
  N     2.116329  8.369356  3.349579
  S     1.467757  4.328928  2.208492
  S     1.426374  7.917060  1.882213
  S     4.599087  4.353566 -0.655039
  S     4.601284  8.062438 -0.751674
  S     4.008522  4.992885  3.369431
  S     3.724644  8.657922  3.269805
