16  
    
  C     8.807184  7.334310  2.492185
  C     9.190419 10.652926  2.154806
  C     7.597287  6.898346  1.779969
  C     7.862974 10.561129  1.494598
  N     9.781992  7.762630  1.687633
  N    10.216066 10.780964  1.340126
  N     7.668469  6.889262  0.470367
  N     7.960520 10.579157  0.166043
  N     6.947823  6.717043  4.243674
  N     7.372166 10.646844  4.022825
  S     6.379744  6.218681  2.782205
  S     6.577453 10.419909  2.606325
  S     9.219637  7.429508  0.095520
  S     9.511567 10.696582 -0.243551
  S     8.584224  7.114497  4.257455
  S     8.998855 10.881498  3.901728
