16  
    
  C     4.455237  5.252820  1.635281
  C     4.553231  8.431415  1.506076
  C     3.269369  4.705847  1.032004
  C     3.284704  8.007174  0.869349
  N     5.498064  5.359091  0.823705
  N     5.598043  8.483520  0.685632
  N     3.386747  4.523218 -0.287742
  N     3.404918  7.717162 -0.413075
  N     2.802363  4.862410  3.595294
  N     2.591460  8.769079  3.218553
  S     1.986978  4.450106  2.241772
  S     1.951742  7.832645  1.960840
  S     4.931808  4.921274 -0.658504
  S     5.018876  8.044972 -0.838016
  S     4.364320  5.347197  3.357948
  S     4.285038  8.896845  3.164814
