16  
    
  C     6.628367  5.942723  2.083697
  C     6.442823  9.364668  1.917420
  C     5.446804  5.400442  1.465091
  C     5.298088  8.876336  1.219576
  N     7.698616  6.053789  1.290080
  N     7.507846  9.580301  1.142526
  N     5.573776  5.192206  0.169741
  N     5.458223  8.702687 -0.080489
  N     4.809719  5.452141  3.956087
  N     4.568045  8.978721  3.682462
  S     4.011534  5.110282  2.520846
  S     3.912514  8.504314  2.273293
  S     7.133180  5.614231 -0.241151
  S     7.019518  9.206106 -0.419142
  S     6.419699  6.096758  3.853921
  S     6.175248  9.457517  3.661502
