16  
    
  C     5.576775  5.401528  1.942281
  C     5.478974  8.999152  1.781112
  C     4.312794  4.941225  1.401153
  C     4.350232  8.384934  1.081895
  N     6.436193  5.703755  0.981201
  N     6.539448  9.217494  0.999053
  N     4.337965  4.719036  0.077263
  N     4.560734  8.171247 -0.217018
  N     4.052186  5.062103  4.003705
  N     3.559173  8.819559  3.524945
  S     3.123259  4.674634  2.639978
  S     2.968420  8.120665  2.111878
  S     5.800861  5.268252 -0.456652
  S     6.074425  8.728533 -0.528797
  S     5.702638  5.537616  3.679055
  S     5.149085  9.087980  3.484909
