16  
    
  C     8.460825  6.718095  2.323208
  C     8.126184 10.332813  2.619526
  C     7.255251  6.068234  1.749347
  C     7.067519  9.667729  1.840628
  N     9.484688  6.739729  1.470257
  N     9.280413 10.459258  1.965508
  N     7.312848  5.856232  0.427942
  N     7.404188  9.395164  0.581710
  N     6.822045  6.457345  4.259468
  N     6.290610  9.741363  4.304157
  S     5.964939  6.014231  2.864521
  S     5.759409  9.153786  2.865404
  S     8.848714  6.272878 -0.033068
  S     9.020882  9.855718  0.426221
  S     8.321737  7.061682  3.997053
  S     7.745460 10.524138  4.306537
