16  
    
  C     7.858840  6.212981  2.160047
  C     8.016823 10.294414  2.178524
  C     6.645437  5.891534  1.521425
  C     6.867305  9.807358  1.525236
  N     8.861303  6.554446  1.396094
  N     9.039162 10.502865  1.384711
  N     6.723173  5.798746  0.211665
  N     7.003196  9.592634  0.211432
  N     6.224025  5.830207  4.042691
  N     6.311909 10.134367  4.082186
  S     5.420338  5.460129  2.695416
  S     5.525351  9.668881  2.666574
  S     8.342200  6.324891 -0.126605
  S     8.625735 10.146982 -0.129011
  S     7.837426  6.262639  3.866997
  S     7.886627 10.566623  3.874013
