16  
    
  C     5.670035  5.192528  1.968339
  C     5.657935  9.036778  1.985500
  C     4.453417  4.592697  1.382304
  C     4.490598  8.434680  1.349282
  N     6.607709  5.588982  1.099458
  N     6.620238  9.284748  1.106713
  N     4.591205  4.328778  0.084281
  N     4.485712  8.464347  0.013258
  N     3.937282  5.066898  3.911078
  N     3.942229  8.683524  3.815292
  S     3.300075  4.206934  2.617249
  S     3.259850  8.019051  2.491070
  S     6.070135  5.003151 -0.384611
  S     6.003956  8.954030 -0.416134
  S     5.459788  5.636640  3.609270
  S     5.581014  9.166977  3.730900
