16  
    
  C    11.711668  8.538883  3.198496
  C    11.358801 12.164750  3.327711
  C    10.506642  8.070883  2.616168
  C    10.214980 11.612080  2.625248
  N    12.653050  8.906742  2.309447
  N    12.354486 12.642753  2.618369
  N    10.470030  8.055972  1.265678
  N    10.457331 11.499841  1.341240
  N    10.113993  8.183091  5.233121
  N     9.486113 11.822006  5.108229
  S     9.236359  7.720726  3.809513
  S     8.820391 11.354999  3.644782
  S    12.014649  8.613341  0.787068
  S    11.891020 12.260491  1.006579
  S    11.629832  8.793676  4.917799
  S    11.126611 12.229840  4.987515
