16  
    
  C    12.341037  9.130582  3.667285
  C    12.529082 12.844812  3.497477
  C    11.218811  8.477882  2.962385
  C    11.248208 12.388776  2.942620
  N    13.306924  9.608058  2.886111
  N    13.501413 13.080470  2.609325
  N    11.427471  8.275573  1.656496
  N    11.333433 12.293943  1.610661
  N    10.621827  8.396614  5.437854
  N    10.866010 12.729625  5.474543
  S     9.945096  7.940262  4.036746
  S    10.024002 12.225528  4.124056
  S    12.857541  9.142296  1.363106
  S    12.874058 12.555101  1.134513
  S    12.075964  9.216423  5.334680
  S    12.465836 12.867929  5.285207
