16  
    
  C     6.569684  5.842544  2.098483
  C     6.427923  9.413967  1.909227
  C     5.387687  5.372117  1.438239
  C     5.267194  8.938561  1.193529
  N     7.597658  6.005083  1.289351
  N     7.481577  9.617428  1.151443
  N     5.496094  5.232440  0.129553
  N     5.492417  8.739515 -0.102415
  N     4.848750  5.641507  3.979992
  N     4.697552  9.090596  3.700364
  S     4.130623  5.172511  2.552398
  S     3.987589  8.454613  2.282330
  S     7.064962  5.603806 -0.232794
  S     7.072778  9.226700 -0.393199
  S     6.400508  6.068763  3.805227
  S     6.278640  9.478889  3.634590
