16  
    
  C     7.976560  6.494728  2.607756
  C     8.532583 10.329861  2.432915
  C     6.836516  6.109782  1.850060
  C     7.281262  9.894056  1.888689
  N     9.068675  6.786846  1.925579
  N     9.554868 10.439135  1.586261
  N     7.052017  5.931990  0.543968
  N     7.306457  9.658511  0.580245
  N     6.126480  6.258715  4.392223
  N     6.922341 10.391068  4.441693
  S     5.414128  5.953298  2.921641
  S     6.045023  9.715024  3.176296
  S     8.669647  6.385575  0.320341
  S     8.926286  9.847981  0.148954
  S     7.733422  6.823326  4.273051
  S     8.559758 10.567677  4.151935
