16  
    
  C     9.780575  7.534591  2.763528
  C     9.761618 11.137503  2.903293
  C     8.604282  7.106689  2.116423
  C     8.603139 10.667203  2.243484
  N    10.805755  7.789883  1.918897
  N    10.833440 11.397896  2.115311
  N     8.747931  6.895640  0.807832
  N     8.784522 10.478527  0.943051
  N     7.911257  7.088912  4.579318
  N     7.980339 10.710469  4.728731
  S     7.240878  6.818806  3.054131
  S     7.296216 10.196646  3.271141
  S    10.250005  7.405689  0.411403
  S    10.320180 10.960054  0.598273
  S     9.542540  7.640584  4.536831
  S     9.562622 11.282084  4.627497
