16  
    
  C    12.745391  8.923825  3.821010
  C    12.651094 12.615028  3.828608
  C    11.551560  8.418644  3.234479
  C    11.529299 12.119216  3.102777
  N    13.730616  9.192451  2.984783
  N    13.728508 12.877804  3.109468
  N    11.595388  8.428273  1.906193
  N    11.701516 12.127137  1.772206
  N    11.112084  8.482444  5.806768
  N    10.868833 12.370734  5.608221
  S    10.211383  8.060837  4.467856
  S    10.129968 11.825662  4.137694
  S    13.059764  8.971479  1.497927
  S    13.306008 12.526496  1.514215
  S    12.660271  9.200567  5.502258
  S    12.524917 12.671305  5.537546
