16  
    
  C     5.181096  5.172008  2.020105
  C     5.157694  8.492224  1.956011
  C     3.917922  4.907123  1.378318
  C     3.979831  8.362308  1.147920
  N     6.192913  5.159282  1.159629
  N     6.290300  8.595840  1.245645
  N     3.925187  4.890016  0.040572
  N     4.259401  8.113897 -0.137031
  N     3.291209  5.129168  3.873676
  N     3.183690  8.959716  3.549838
  S     2.581454  4.911721  2.410421
  S     2.490737  8.440377  2.080657
  S     5.502106  4.884618 -0.371562
  S     5.879161  8.275360 -0.340519
  S     4.996209  5.180729  3.785973
  S     4.857991  8.800094  3.638125
