16  
    
  C     7.523251  6.230809  2.160005
  C     7.888759  9.920272  2.332108
  C     6.370733  5.593037  1.594789
  C     6.686935  9.350686  1.739447
  N     8.540875  6.433160  1.342110
  N     8.819418 10.267714  1.481524
  N     6.431573  5.476615  0.273944
  N     6.770950  9.264522  0.410252
  N     5.905721  5.709314  4.153751
  N     6.201244  9.724336  4.302646
  S     5.110356  5.333438  2.740247
  S     5.446681  9.042724  2.969908
  S     7.992196  6.044859 -0.159325
  S     8.239995  9.885559 -0.038583
  S     7.478975  6.257548  3.844726
  S     7.825678 10.152758  4.001588
