16  
    
  C     5.500615  5.312121  1.817923
  C     5.239123  8.902543  1.702371
  C     4.175075  5.154919  1.297457
  C     4.060508  8.451432  0.989352
  N     6.460716  5.317436  0.910218
  N     6.337435  8.994418  0.926742
  N     4.121091  5.055424 -0.037682
  N     4.235779  8.339788 -0.328941
  N     4.060435  5.135774  3.834623
  N     3.393862  8.660918  3.517531
  S     3.000558  5.041183  2.629656
  S     2.724430  8.188146  2.069770
  S     5.711639  5.280834 -0.537524
  S     5.786849  8.692528 -0.632493
  S     5.665412  5.440138  3.553663
  S     4.902605  9.289552  3.394583
