16  
    
  C     8.776219  6.831459  2.257759
  C     9.013886 10.433309  2.527046
  C     7.604999  6.459540  1.592142
  C     7.755058 10.117297  1.962553
  N     9.802739  7.094901  1.445536
  N    10.039813 10.436071  1.708381
  N     7.752667  6.299511  0.276956
  N     7.814844  9.878872  0.650676
  N     6.853549  6.697591  4.047169
  N     7.267559 10.274895  4.460917
  S     6.263106  6.160151  2.620507
  S     6.444473  9.937610  3.062782
  S     9.253718  6.831788 -0.085910
  S     9.409061 10.126318  0.152929
  S     8.458548  7.172350  3.983431
  S     8.866476 10.617356  4.315019
