16  
    
  C     6.845726  5.728666  1.644764
  C     7.244417  9.966303  2.486561
  C     5.746225  5.003445  1.063614
  C     6.002518  9.488580  1.939864
  N     7.966530  5.745904  0.909653
  N     8.224681 10.184336  1.584433
  N     5.935088  4.731197 -0.220097
  N     6.051995  9.246816  0.620895
  N     4.870952  5.867622  3.282436
  N     5.581679  9.660357  4.472108
  S     4.319924  5.025332  1.954803
  S     4.759663  9.435958  3.061859
  S     7.502028  5.104736 -0.549129
  S     7.531557  9.592384  0.123787
  S     6.435068  6.304503  3.236792
  S     7.159045 10.290828  4.208762
