16  
    
  C     8.204385  6.633826  2.501160
  C     8.538815 10.125567  2.336871
  C     6.998642  6.223506  1.847485
  C     7.258995  9.689546  1.842853
  N     9.251289  6.782184  1.693892
  N     9.504312 10.285575  1.413280
  N     7.128767  6.077614  0.530970
  N     7.198224  9.512372  0.544772
  N     6.324590  6.317235  4.327640
  N     6.866636 10.317233  4.341759
  S     5.597848  5.930365  2.825737
  S     6.015284  9.790031  3.034005
  S     8.651968  6.408020  0.128372
  S     8.687562  9.915299 -0.084966
  S     7.954080  6.751514  4.305384
  S     8.514922 10.504161  4.090625
