16  
    
  C    10.948131  7.761182  3.106111
  C    11.064157 11.664458  2.753397
  C     9.715733  7.340892  2.532034
  C     9.827279 11.203406  2.148765
  N    11.913153  8.029184  2.222472
  N    12.000130 11.901941  1.842067
  N     9.661152  7.249291  1.196318
  N     9.872066 10.885525  0.850960
  N     9.350679  7.560485  5.142246
  N     9.443214 11.284920  4.657352
  S     8.494912  7.123199  3.756714
  S     8.545451 11.033463  3.309947
  S    11.183434  7.756140  0.681132
  S    11.450176 11.387510  0.397080
  S    10.991855  7.923230  4.849428
  S    10.902984 11.996997  4.476166
