16  
    
  C     7.860166  6.441850  2.223885
  C     8.113328 10.529287  2.178289
  C     6.669861  5.917878  1.521736
  C     6.881560  9.957837  1.606468
  N     8.893038  6.587207  1.413215
  N     9.082438 10.605284  1.264698
  N     6.776407  5.874817  0.191068
  N     6.912945  9.725475  0.296159
  N     5.950824  6.185305  4.032962
  N     6.453868 10.262704  4.130099
  S     5.384263  5.604013  2.623430
  S     5.674316  9.679120  2.778454
  S     8.404405  6.327798 -0.135216
  S     8.405101 10.214057 -0.235465
  S     7.634211  6.408939  3.943980
  S     7.906627 10.970477  3.839904
