16  
    
  C    12.619684  8.956536  3.705887
  C    12.444409 12.692205  3.964992
  C    11.473114  8.383295  3.125140
  C    11.376689 12.168323  3.182417
  N    13.684189  9.155024  2.912346
  N    13.520311 12.991182  3.271879
  N    11.582007  8.274029  1.787841
  N    11.648780 11.929968  1.900436
  N    11.001351  8.447962  5.731111
  N    10.616744 12.303096  5.713271
  S    10.199256  8.184793  4.248809
  S     9.981747 11.907099  4.249707
  S    13.118814  8.667184  1.448523
  S    13.134355 12.666794  1.669336
  S    12.580703  9.058664  5.432530
  S    12.107402 13.029149  5.596085
