16  
    
  C    11.086822  8.191340  3.074319
  C    11.512928 11.700210  3.221732
  C     9.862345  7.557397  2.631450
  C    10.257619 11.505524  2.510261
  N    12.057107  8.325183  2.204994
  N    12.583801 11.794843  2.460373
  N     9.903148  7.103144  1.384965
  N    10.428611 11.369343  1.208067
  N     9.501707  8.075594  5.161810
  N     9.659220 11.445825  4.937130
  S     8.593401  7.439932  3.871581
  S     8.839465 11.337919  3.528494
  S    11.387012  7.651505  0.780711
  S    12.073353 11.335382  0.884729
  S    11.110071  8.449909  4.794399
  S    11.237909 11.864259  4.902756
