16  
    
  C    11.378627  8.524670  3.372270
  C    11.495719 12.421532  3.313024
  C    10.243700  7.901198  2.784427
  C    10.327931 11.779294  2.709465
  N    12.386148  8.684783  2.524848
  N    12.527841 12.600574  2.494136
  N    10.359462  7.645898  1.501973
  N    10.530834 11.358039  1.468823
  N     9.481238  8.554888  5.201097
  N     9.584477 12.286806  5.092209
  S     8.936384  7.711040  3.865799
  S     8.924170 11.577520  3.732562
  S    11.907399  8.103279  1.047686
  S    12.012412 11.939037  1.002756
  S    11.062269  9.162724  4.989267
  S    11.184022 12.712943  5.041572
