16  
    
  C     9.211958  6.816396  2.351489
  C     9.152380 10.849641  2.950511
  C     8.046390  6.219190  1.796903
  C     7.946828 10.418981  2.399322
  N    10.336813  6.741239  1.626255
  N    10.241701 10.763549  2.183181
  N     8.218037  5.736975  0.572264
  N     8.051298 10.044688  1.112852
  N     7.424657  6.914899  4.178957
  N     7.376964 10.975489  4.803311
  S     6.649974  6.349412  2.818972
  S     6.563474 10.624850  3.405060
  S     9.797985  6.026752  0.207850
  S     9.604751 10.183382  0.715042
  S     9.040455  7.225579  4.012842
  S     9.045804 11.099133  4.668358
