16  
    
  C    12.068717  8.673331  3.569483
  C    12.169156 12.092471  3.388980
  C    10.904057  8.248653  2.828929
  C    10.999229 11.674898  2.678124
  N    13.199826  8.723095  2.859945
  N    13.193635 12.300273  2.553603
  N    11.073283  8.047800  1.543242
  N    11.129167 11.513268  1.351494
  N    10.173324  8.325816  5.285666
  N    10.300967 11.900718  5.087477
  S     9.493450  8.021807  3.773677
  S     9.705890 11.283609  3.755096
  S    12.674123  8.393713  1.280013
  S    12.673816 11.794366  1.004941
  S    11.758792  8.736743  5.345397
  S    11.825423 12.518665  5.087167
