16  
    
  C    12.918786  9.339131  3.482944
  C    12.802056 12.996777  3.568115
  C    11.714633  8.912575  2.828852
  C    11.559496 12.476682  3.019742
  N    13.909082  9.461749  2.630656
  N    13.803782 12.890544  2.688265
  N    11.830239  8.595504  1.546870
  N    11.601128 12.185773  1.718468
  N    11.018375  9.015915  5.289295
  N    11.088340 12.823680  5.473750
  S    10.341835  8.505264  3.903624
  S    10.169539 12.405481  4.098344
  S    13.443127  8.812317  1.117163
  S    13.160407 12.461167  1.258676
  S    12.516937  9.760162  5.183090
  S    12.726748 13.205017  5.372319
