16  
    
  C     7.825380  6.326118  2.155725
  C     8.095930 10.480118  2.169258
  C     6.576170  5.993543  1.453527
  C     6.888166  9.934383  1.562950
  N     8.861059  6.658989  1.408079
  N     9.104850 10.711322  1.345635
  N     6.821650  5.870641  0.142760
  N     6.987433  9.795324  0.259442
  N     6.128956  6.041375  4.042272
  N     6.413729 10.238561  4.123296
  S     5.327333  5.534304  2.631094
  S     5.627184  9.651047  2.783290
  S     8.361432  6.284318 -0.129067
  S     8.542462 10.233261 -0.158931
  S     7.701758  6.387442  3.868915
  S     7.900220 10.964480  3.798765
