16  
    
  C     6.795153  5.816902  1.503492
  C     7.229545 10.032821  2.428011
  C     5.654434  5.161361  0.981102
  C     5.999289  9.529848  1.952230
  N     7.873770  5.835206  0.713115
  N     8.232909 10.022574  1.560099
  N     5.913376  4.703727 -0.239258
  N     6.041627  9.169534  0.683956
  N     4.989689  5.765060  3.406171
  N     5.620979  9.685030  4.476095
  S     4.342343  4.932365  2.110347
  S     4.698388  9.489394  3.146631
  S     7.469211  5.132945 -0.704760
  S     7.595575  9.524939  0.123261
  S     6.560889  6.371780  3.145538
  S     7.213590 10.300894  4.195655
