16  
    
  C     9.940033  7.613734  2.704010
  C     9.882939 11.257034  2.938083
  C     8.700523  7.306587  2.044221
  C     8.746563 10.842118  2.222436
  N    10.966969  7.791547  1.890507
  N    10.933235 11.476784  2.180186
  N     8.725971  7.319548  0.722155
  N     8.866809 10.691986  0.920089
  N     8.179131  7.325289  4.552288
  N     8.000812 11.117695  4.725131
  S     7.314507  7.214321  3.150397
  S     7.343182 10.550950  3.296118
  S    10.330213  7.556277  0.313963
  S    10.488854 11.102128  0.620623
  S     9.748028  7.772754  4.401938
  S     9.631576 11.381237  4.707851
