16  
    
  C    11.311204  8.535542  3.357487
  C    11.459979 12.222053  3.291654
  C    10.171841  7.899169  2.711702
  C    10.189627 11.751483  2.828512
  N    12.391881  8.623404  2.569656
  N    12.432454 12.298475  2.359340
  N    10.426829  7.488566  1.440682
  N    10.279373 11.283607  1.585171
  N     9.511816  8.359230  5.204741
  N     9.769163 12.266697  5.387275
  S     8.776508  7.819288  3.738723
  S     8.877534 11.790322  4.017042
  S    11.968264  7.912424  1.135854
  S    11.795530 11.612850  1.024958
  S    11.114890  8.850085  5.040926
  S    11.336000 12.799588  4.940859
