16  
    
  C    11.683582  8.547909  3.208236
  C    11.371708 12.173965  3.313415
  C    10.493805  8.036337  2.625864
  C    10.198150 11.660336  2.624877
  N    12.604843  8.919589  2.314543
  N    12.381622 12.643706  2.588495
  N    10.463037  8.026892  1.276079
  N    10.454889 11.486463  1.336444
  N    10.090703  8.197115  5.224707
  N     9.464124 11.845640  5.121011
  S     9.238468  7.732083  3.809310
  S     8.819569 11.350788  3.613682
  S    12.011628  8.603528  0.782312
  S    11.887407 12.273802  0.997213
  S    11.613238  8.813998  4.927970
  S    11.131660 12.227993  4.994166
