16  
    
  C     7.660441  6.499056  2.288435
  C     7.819736 10.022140  2.459073
  C     6.358571  6.023709  1.846782
  C     6.605685  9.629366  1.726667
  N     8.579009  6.549532  1.317531
  N     8.868811 10.143585  1.658871
  N     6.231729  5.792977  0.554417
  N     6.736144  9.567417  0.394752
  N     6.100054  6.329572  4.388318
  N     5.809451  9.936528  4.146024
  S     5.113677  6.024359  3.048374
  S     5.170689  9.447255  2.688850
  S     7.753088  6.114784 -0.102461
  S     8.274741  9.862268  0.047672
  S     7.657961  6.690147  4.030208
  S     7.425216 10.295978  4.135200
