16  
    
  C     8.768024  7.278669  2.502746
  C     9.141187 10.667041  2.149016
  C     7.576171  6.870208  1.849567
  C     7.907920 10.526162  1.493020
  N     9.709351  7.760180  1.678840
  N    10.171483 10.794942  1.309783
  N     7.697034  6.809633  0.516084
  N     7.907702 10.563552  0.172276
  N     6.980598  6.713358  4.331267
  N     7.350773 10.590017  4.005922
  S     6.304588  6.207608  2.881696
  S     6.522792 10.412257  2.573826
  S     9.194891  7.465173  0.107999
  S     9.561019 10.765423 -0.260607
  S     8.560134  7.149104  4.248566
  S     8.978808 10.902814  3.855342
