16  
    
  C     6.767760  6.162206  2.400280
  C     7.282539  9.618890  2.192165
  C     5.675739  5.453129  1.810284
  C     5.988774  9.403868  1.570889
  N     7.589638  6.671216  1.496585
  N     8.247314  9.745456  1.303419
  N     5.726511  5.331949  0.496178
  N     5.989218  9.334470  0.246188
  N     5.350726  5.199746  4.358311
  N     5.506600  9.500966  4.032517
  S     4.556492  4.739141  2.911102
  S     4.627577  9.455955  2.612150
  S     7.081600  6.129132  0.002916
  S     7.568688  9.481173 -0.250465
  S     6.586294  6.221100  4.107184
  S     7.102821  9.818162  3.948672
