16  
    
  C    10.972459  7.845784  3.156265
  C    11.514484 11.905780  2.993490
  C     9.791042  7.545751  2.367618
  C    10.350798 11.215343  2.470938
  N    12.092201  7.856348  2.413172
  N    12.502401 12.193138  2.139535
  N    10.069103  7.318658  1.064677
  N    10.521039 10.912451  1.194728
  N     8.957346  7.740355  4.785890
  N     9.879714 11.478655  4.908079
  S     8.339130  7.423661  3.311682
  S     9.075009 10.877248  3.636583
  S    11.674841  7.624391  0.862908
  S    12.006932 11.336576  0.718923
  S    10.622890  7.959659  4.838839
  S    11.280554 12.283922  4.685969
