16  
    
  C    11.240210  8.192983  3.204680
  C    11.459779 11.612305  3.265655
  C     9.988793  7.775274  2.610352
  C    10.132784 11.429817  2.726540
  N    12.272045  8.178568  2.380036
  N    12.442726 11.707729  2.366392
  N    10.042094  7.447806  1.335894
  N    10.163227 11.310046  1.404329
  N     9.465483  8.182609  5.119257
  N     9.716655 11.830554  5.138089
  S     8.709646  7.627539  3.778839
  S     8.795479 11.657974  3.801169
  S    11.622146  7.692393  0.902988
  S    11.750553 11.477435  0.904123
  S    11.139720  8.461840  4.930104
  S    11.337387 11.956989  4.992773
