16  
    
  C     6.002463  5.039607  1.616193
  C     5.977099  9.176651  1.938129
  C     4.761947  4.784395  0.992176
  C     4.770317  8.706862  1.360471
  N     7.002856  5.254932  0.745724
  N     7.044868  9.183060  1.123488
  N     4.890127  4.483173 -0.292599
  N     4.895826  8.463510  0.069319
  N     4.210299  4.764227  3.579602
  N     4.193218  8.838902  3.854828
  S     3.438112  4.504781  2.068669
  S     3.362998  8.600672  2.463664
  S     6.408185  4.845988 -0.748501
  S     6.484037  8.747338 -0.348960
  S     5.800766  5.073640  3.347363
  S     5.869525  9.201683  3.686558
