16  
    
  C     8.016681  6.550885  2.650860
  C     8.564730 10.343519  2.496554
  C     6.795676  6.151238  1.914516
  C     7.283967  9.937238  1.942259
  N     9.063367  6.777076  1.849259
  N     9.556136 10.371635  1.594018
  N     7.054907  5.923192  0.624820
  N     7.383144  9.665591  0.633745
  N     6.120694  6.235821  4.378459
  N     6.916439 10.332173  4.513952
  S     5.385551  5.919452  2.895402
  S     6.085457  9.733570  3.177550
  S     8.674826  6.361678  0.332821
  S     8.982995  9.886987  0.189414
  S     7.688959  6.832452  4.358902
  S     8.520863 10.635891  4.220555
