16  
    
  C    11.107601  8.185300  3.107269
  C    11.460729 11.764975  3.216721
  C     9.869092  7.585596  2.657004
  C    10.242090 11.477810  2.507829
  N    12.087982  8.349348  2.175657
  N    12.525744 11.698624  2.410313
  N     9.955978  7.202076  1.386409
  N    10.361997 11.348143  1.192799
  N     9.514475  8.063609  5.109803
  N     9.663335 11.494243  4.993446
  S     8.613498  7.499004  3.885129
  S     8.840311 11.414537  3.601592
  S    11.447397  7.643710  0.794811
  S    12.018518 11.375719  0.913355
  S    11.122392  8.446958  4.825126
  S    11.253864 11.854537  4.940599
