16  
    
  C     9.570346  7.331302  2.911426
  C     9.696776 10.942974  2.808190
  C     8.500377  6.880880  2.085974
  C     8.517728 10.514846  2.170249
  N    10.667741  7.628363  2.221589
  N    10.697287 11.191154  1.956018
  N     8.765790  6.799535  0.769661
  N     8.533657 10.405399  0.840159
  N     7.816491  6.761696  4.687174
  N     7.899981 10.743808  4.680084
  S     7.146383  6.365943  3.142681
  S     7.142154 10.228135  3.265351
  S    10.349564  7.422190  0.619330
  S    10.105088 10.918675  0.450744
  S     9.309978  7.491070  4.590778
  S     9.525717 11.100579  4.531124
