16  
    
  C     3.498721  4.446357  1.486620
  C     3.569746  8.429790  1.199458
  C     2.295485  3.986339  0.777113
  C     2.245285  7.979678  0.682903
  N     4.516369  4.813507  0.695852
  N     4.541554  8.502148  0.285483
  N     2.511249  3.835086 -0.531911
  N     2.233087  8.023083 -0.646548
  N     1.722382  4.321392  3.339018
  N     1.929227  8.136961  3.163332
  S     1.072827  3.520006  2.024861
  S     0.995664  7.812059  1.870367
  S     4.152055  4.280596 -0.778215
  S     3.783429  8.316054 -1.172037
  S     3.348866  4.772220  3.179926
  S     3.526992  8.544390  2.940675
