16  
    
  C     7.853124  6.380518  2.340387
  C     7.975359 10.500763  2.073129
  C     6.737858  5.881691  1.655747
  C     6.782286  9.894659  1.616207
  N     8.934099  6.630303  1.605191
  N     8.893139 10.746506  1.151722
  N     6.845681  5.853015  0.326829
  N     6.776550  9.593399  0.313220
  N     5.885169  6.356882  4.007152
  N     6.493552 10.249238  4.137946
  S     5.299670  5.766565  2.565342
  S     5.536414  9.800085  2.841559
  S     8.464837  6.352585  0.043948
  S     8.297331 10.074136 -0.267548
  S     7.579354  6.569505  4.018800
  S     8.024102 10.803866  3.749526
