16  
    
  C    11.105434  8.309290  2.926356
  C    10.806103 11.799504  2.982950
  C     9.962624  7.528164  2.474938
  C     9.620584 11.332602  2.329946
  N    11.929934  8.632078  1.952336
  N    11.849154 11.939508  2.193596
  N    10.006672  7.281128  1.185604
  N     9.763342 11.152556  1.026013
  N     9.474909  7.967913  5.008189
  N     9.155631 11.296187  4.885422
  S     8.723393  7.242579  3.646427
  S     8.323900 10.896275  3.508101
  S    11.415544  7.900486  0.579924
  S    11.278508 11.625208  0.675413
  S    10.982387  8.647750  4.629140
  S    10.703300 11.894641  4.721837
