16  
    
  C     5.570412  5.476690  1.934220
  C     5.433537  8.913858  1.766578
  C     4.330799  4.927115  1.402320
  C     4.292861  8.420505  1.054767
  N     6.491758  5.611621  0.979486
  N     6.478744  9.194922  0.991752
  N     4.291661  4.792556  0.079349
  N     4.504960  8.149347 -0.219063
  N     4.037055  5.106888  4.012657
  N     3.484997  8.880241  3.505425
  S     3.129063  4.711625  2.626568
  S     2.952365  8.100808  2.093370
  S     5.755108  5.295673 -0.493230
  S     6.090706  8.727389 -0.551235
  S     5.700666  5.512462  3.690018
  S     5.134177  9.112869  3.474237
