16  
    
  C     6.822585  5.876990  1.584654
  C     7.248778  9.948017  2.493449
  C     5.676812  5.178040  1.039735
  C     5.980173  9.489318  1.926854
  N     7.764814  6.098767  0.671058
  N     8.215865  9.951246  1.576245
  N     5.923826  4.693841 -0.168624
  N     5.984281  9.221532  0.610417
  N     5.142461  5.814515  3.459220
  N     5.610645  9.800591  4.432689
  S     4.472698  4.902426  2.230098
  S     4.746422  9.533309  3.113109
  S     7.407955  5.240356 -0.655100
  S     7.636976  9.422602  0.164678
  S     6.713665  6.402260  3.217962
  S     7.189360 10.302578  4.165451
