16  
    
  C     6.654375  5.691908  1.935759
  C     6.635308  9.476482  2.023872
  C     5.390324  5.459738  1.343571
  C     5.366940  9.113957  1.449163
  N     7.697127  5.785731  1.101596
  N     7.637635  9.594875  1.151826
  N     5.414588  5.332968  0.027128
  N     5.394551  8.927102  0.122639
  N     4.991378  5.875884  3.900289
  N     5.075794  9.340731  4.046448
  S     4.155801  5.416281  2.514458
  S     4.136357  9.036822  2.769614
  S     7.007991  5.615651 -0.395428
  S     6.926616  9.373530 -0.347953
  S     6.585394  5.934074  3.649656
  S     6.632627  9.828696  3.756413
