16  
    
  C     5.666696  5.204864  1.962060
  C     5.656553  9.020634  1.968145
  C     4.468128  4.598411  1.401446
  C     4.494350  8.448565  1.335675
  N     6.593849  5.607999  1.089633
  N     6.628740  9.281032  1.106275
  N     4.577598  4.349029  0.089950
  N     4.501743  8.471304 -0.006089
  N     3.933050  5.067936  3.934231
  N     3.931181  8.663308  3.821923
  S     3.305369  4.214367  2.616186
  S     3.238982  8.013965  2.481980
  S     6.056851  5.003691 -0.374488
  S     6.003930  8.945204 -0.416172
  S     5.460012  5.640775  3.601943
  S     5.578588  9.164438  3.720310
