16  
    
  C    12.626568  8.797896  3.535267
  C    12.219009 12.967658  3.677509
  C    11.444812  8.423023  2.851913
  C    11.084246 12.319419  3.096588
  N    13.563806  9.113015  2.679216
  N    13.261226 13.184518  2.888470
  N    11.498950  8.324888  1.528120
  N    11.277584 11.977359  1.829234
  N    10.884074  8.717387  5.306254
  N    10.520696 12.519490  5.598619
  S    10.119913  8.242936  3.977290
  S     9.930535 11.732665  4.255062
  S    13.006183  8.770610  1.131711
  S    12.797577 12.601656  1.399581
  S    12.472927  9.100311  5.250292
  S    12.041153 13.112217  5.422070
