16  
    
  C     3.738475  4.385222  1.560426
  C     3.559812  8.507592  1.215872
  C     2.550784  3.748213  0.973104
  C     2.291050  7.964045  0.698937
  N     4.672461  4.729786  0.670526
  N     4.446720  8.786270  0.273538
  N     2.566848  3.601211 -0.343960
  N     2.331919  7.776798 -0.605975
  N     1.870671  4.049383  3.401959
  N     1.974474  8.115303  3.166700
  S     1.200319  3.488885  1.934831
  S     1.004180  7.841907  1.835301
  S     3.977991  4.297391 -0.844154
  S     3.785378  8.340608 -1.171135
  S     3.393076  4.673942  3.309803
  S     3.533673  8.512205  2.934034
