16  
    
  C    10.995837  7.829282  3.076674
  C    10.965943 11.703625  2.749758
  C     9.708492  7.314382  2.556680
  C     9.757370 11.191786  2.151002
  N    11.873754  8.141942  2.130758
  N    11.957339 11.835817  1.893895
  N     9.658617  7.259477  1.221120
  N     9.872309 10.900614  0.872287
  N     9.393489  7.518141  5.165537
  N     9.398252 11.209434  4.661444
  S     8.496903  7.102583  3.786680
  S     8.503635 11.040326  3.246369
  S    11.161987  7.722863  0.690351
  S    11.378309 11.412723  0.364268
  S    11.028048  8.037371  4.819581
  S    10.905317 11.967990  4.487842
