16  
    
  C     9.951642  7.634432  2.998300
  C    10.592301 11.658179  3.032321
  C     8.836663  7.195717  2.231482
  C     9.371583 11.036299  2.543919
  N    10.993451  7.977015  2.262521
  N    11.516808 11.870216  2.081188
  N     9.007524  7.136430  0.928791
  N     9.342814 10.684524  1.251959
  N     8.086851  7.055008  4.649061
  N     9.034536 11.386298  5.077515
  S     7.421742  6.813276  3.193193
  S     8.135615 10.872022  3.769577
  S    10.591088  7.641966  0.687151
  S    10.855583 11.194258  0.685032
  S     9.642786  7.573438  4.667613
  S    10.533844 11.974749  4.726207
