16  
    
  C    10.879826  8.189492  2.938592
  C    10.775133 11.885160  3.045157
  C     9.668839  7.779375  2.252826
  C     9.674946 11.322331  2.376744
  N    11.944193  8.317264  2.145523
  N    11.866015 12.030501  2.296017
  N     9.820060  7.587941  0.908556
  N     9.822267 11.238053  1.047155
  N     9.129706  7.980267  4.818780
  N     8.935017 11.715441  4.832299
  S     8.318991  7.627294  3.353705
  S     8.319546 11.162090  3.389557
  S    11.368885  8.028065  0.587331
  S    11.433077 11.624906  0.738272
  S    10.751282  8.416909  4.650370
  S    10.554552 12.243521  4.746249
