16  
    
  C     5.896469  5.312533  1.704991
  C     6.042386  8.804216  2.147542
  C     4.646852  4.857490  1.131085
  C     4.749060  8.616223  1.486858
  N     6.928955  5.281114  0.845213
  N     7.078522  8.946125  1.319903
  N     4.645859  4.768564 -0.188833
  N     4.843275  8.497965  0.175121
  N     4.130556  5.292164  3.587391
  N     4.198863  8.739931  3.934211
  S     3.302033  4.872318  2.253127
  S     3.353524  8.555558  2.527889
  S     6.218016  5.024097 -0.679046
  S     6.467529  8.813711 -0.245381
  S     5.694665  5.554462  3.404927
  S     5.816412  9.106595  3.838114
