16  
    
  C     7.678969  6.585683  2.381502
  C     7.777826 10.113912  2.215322
  C     6.405513  6.148825  1.852224
  C     6.564991  9.857024  1.531548
  N     8.628017  6.625720  1.461398
  N     8.812036 10.146321  1.406036
  N     6.446264  5.778607  0.597893
  N     6.671397  9.590561  0.240628
  N     5.960924  6.769455  4.352213
  N     5.876224  9.983817  4.021620
  S     5.086295  6.171868  3.024345
  S     5.110136  9.894149  2.514419
  S     7.992645  6.075711  0.029539
  S     8.343511  9.754038 -0.092034
  S     7.571243  6.996915  4.075373
  S     7.502859 10.210106  3.937201
