16  
    
  C     9.403952  7.008900  2.933479
  C     9.647203 10.768197  2.598791
  C     8.204789  6.584551  2.263574
  C     8.443169 10.291818  1.974918
  N    10.413171  7.338207  2.089909
  N    10.617126 11.173806  1.751571
  N     8.303917  6.485626  0.943974
  N     8.516934 10.234557  0.652068
  N     7.544979  6.521065  4.773210
  N     7.953769 10.325829  4.556764
  S     6.979909  5.971154  3.299498
  S     7.178680  9.835119  3.129492
  S     9.789524  7.072631  0.542367
  S    10.020199 10.903482  0.223316
  S     9.191745  6.903387  4.734346
  S     9.513659 10.872092  4.332150
