16  
    
  C    12.020606  8.541195  3.614747
  C    12.044679 12.005956  3.294021
  C    10.890504  8.122429  2.860339
  C    10.831890 11.489820  2.703514
  N    13.135179  8.658745  2.903048
  N    13.036517 12.323903  2.498468
  N    11.105966  8.013759  1.538305
  N    10.959429 11.376935  1.392011
  N    10.170583  8.346223  5.308412
  N    10.344416 11.999428  5.159481
  S     9.467163  7.963568  3.897446
  S     9.489465 11.498642  3.857442
  S    12.715496  8.469361  1.357987
  S    12.494476 11.916477  0.953036
  S    11.768601  8.757076  5.318469
  S    11.914753 12.337132  5.034484
