16  
    
  C     5.789322  5.460114  1.798230
  C     5.885633  8.960711  2.113575
  C     4.525228  5.246309  1.116436
  C     4.677232  8.605571  1.395088
  N     6.821431  5.512802  0.958188
  N     7.006729  9.010195  1.383850
  N     4.601197  4.890395 -0.157746
  N     4.831378  8.558891  0.061371
  N     3.984399  5.496631  3.630745
  N     4.168010  8.757450  3.995181
  S     3.197141  5.053950  2.245819
  S     3.372032  8.528632  2.534161
  S     6.251706  4.991997 -0.512490
  S     6.443438  8.723749 -0.189484
  S     5.738753  5.692123  3.537486
  S     5.772161  9.056219  3.862544
