16  
    
  C    12.889560  9.383980  3.447427
  C    12.805300 13.010910  3.578789
  C    11.700753  8.857196  2.811531
  C    11.572236 12.528375  3.015162
  N    13.954802  9.420376  2.615016
  N    13.790628 12.922129  2.713189
  N    11.849272  8.564928  1.521504
  N    11.607889 12.237076  1.725334
  N    11.073565  9.012624  5.276059
  N    11.058602 12.884631  5.488378
  S    10.359453  8.503707  3.915991
  S    10.206203 12.418103  4.099721
  S    13.439503  8.823134  1.149879
  S    13.172321 12.409362  1.217096
  S    12.502545  9.752926  5.185620
  S    12.745019 13.202263  5.326418
