16  
    
  C    10.002951  7.800530  2.650894
  C    10.602807 11.492473  3.073109
  C     8.932559  6.996433  2.018013
  C     9.394201 11.186180  2.288183
  N    11.005073  8.149007  1.848695
  N    11.709876 11.635784  2.361922
  N     9.250423  6.711888  0.766841
  N     9.684150 10.947554  1.040448
  N     8.179046  7.505664  4.383517
  N     8.575956 11.319382  4.715208
  S     7.554654  6.744060  3.063527
  S     7.934526 11.268315  3.193488
  S    10.693777  7.368747  0.444695
  S    11.320872 11.266378  0.825926
  S     9.702903  8.154044  4.355075
  S    10.239568 11.597452  4.773143
