16  
    
  C     3.504473  4.667307  1.521154
  C     3.553957  8.407500  1.305596
  C     2.326085  4.124211  0.859522
  C     2.304057  8.050831  0.680415
  N     4.481796  4.923414  0.617846
  N     4.565356  8.424958  0.455487
  N     2.463434  3.781392 -0.403407
  N     2.302847  8.104808 -0.662976
  N     1.623705  4.173092  3.271417
  N     1.872653  8.073938  3.227153
  S     0.965358  3.802896  1.819550
  S     1.032025  7.793850  1.872297
  S     3.939972  4.358627 -0.840386
  S     3.915150  8.298184 -1.074173
  S     3.111881  5.019322  3.261617
  S     3.428412  8.622764  3.080038
