16  
    
  C     3.780831  4.728191  1.590401
  C     3.794033  8.387645  1.719365
  C     2.493121  4.471335  0.978669
  C     2.568190  7.920183  1.053532
  N     4.802129  4.652586  0.745218
  N     4.814016  8.507288  0.874177
  N     2.467397  4.500007 -0.350117
  N     2.790332  7.428208 -0.167485
  N     1.970694  4.762998  3.390532
  N     1.954570  8.400484  3.474913
  S     1.169019  4.448869  2.031406
  S     1.237169  7.923789  2.099592
  S     4.122135  4.424757 -0.763752
  S     4.360786  7.846430 -0.535556
  S     3.644019  4.903154  3.343091
  S     3.569018  8.802344  3.380694
