16  
    
  C     8.950917  7.247199  2.551691
  C     8.776243 11.140318  2.314002
  C     7.833223  6.496138  2.107045
  C     7.686497 10.439814  1.719231
  N     9.973223  7.326815  1.709283
  N     9.783212 11.507704  1.533004
  N     7.905194  6.186804  0.802373
  N     7.841572 10.251265  0.434280
  N     7.530538  6.992641  4.683657
  N     7.131953 10.712157  4.266805
  S     6.596639  6.298663  3.427156
  S     6.412644 10.086350  2.888480
  S     9.438760  6.662253  0.288273
  S     9.342433 10.938725 -0.009270
  S     9.040120  7.475831  4.268593
  S     8.726631 11.213508  4.037735
