16  
    
  C     9.966461  7.689166  2.995148
  C    10.585699 11.645060  3.007767
  C     8.804556  7.267928  2.258315
  C     9.366371 11.082416  2.530730
  N    11.037396  7.951250  2.270978
  N    11.455114 11.934009  2.062307
  N     9.003286  7.125849  0.965669
  N     9.367470 10.692728  1.274270
  N     8.202248  7.020309  4.660662
  N     9.030612 11.378708  5.104690
  S     7.453328  6.833536  3.258094
  S     8.155523 10.867735  3.794168
  S    10.617277  7.651289  0.692630
  S    10.819440 11.176716  0.668806
  S     9.715049  7.551797  4.671549
  S    10.573616 11.990088  4.724321
