16  
    
  C     7.649127  6.335068  2.239912
  C     7.833987 10.107657  2.449110
  C     6.418353  5.814474  1.653404
  C     6.705093  9.447773  1.828937
  N     8.612240  6.435848  1.308007
  N     8.754427 10.508166  1.574143
  N     6.361946  5.762030  0.321254
  N     6.819034  9.285371  0.501548
  N     5.912202  6.019398  4.224645
  N     6.099855  9.549982  4.343269
  S     5.171242  5.508822  2.756419
  S     5.373317  9.165165  2.871045
  S     7.958199  6.059610 -0.202610
  S     8.246959  9.892313  0.048536
  S     7.539868  6.372347  3.988972
  S     7.655308 10.186770  4.205354
