16  
    
  C     3.582995  4.691214  1.534050
  C     3.822125  8.337651  1.678484
  C     2.371666  4.382201  0.871685
  C     2.574074  7.904863  1.077905
  N     4.612766  4.973832  0.787232
  N     4.874557  8.321923  0.886587
  N     2.554578  4.323106 -0.437229
  N     2.637403  7.711295 -0.223398
  N     2.011484  4.346647  3.443436
  N     2.149436  8.310686  3.584104
  S     1.040689  4.240033  2.039589
  S     1.298078  7.878666  2.212785
  S     4.135316  4.664705 -0.765125
  S     4.229634  7.924936 -0.624730
  S     3.559607  4.879638  3.203944
  S     3.736534  8.703988  3.389600
