16  
    
  C     9.840378  7.758478  2.768141
  C     9.889487 11.128522  2.892200
  C     8.647954  7.307466  2.074618
  C     8.618805 10.878345  2.214097
  N    10.935189  7.936348  2.033483
  N    10.941989 11.250516  2.091711
  N     8.857281  7.123123  0.792625
  N     8.748755 10.767808  0.901175
  N     8.007343  7.355030  4.567130
  N     8.113662 10.814825  4.728572
  S     7.292619  7.121183  3.097515
  S     7.273647 10.794861  3.268870
  S    10.431104  7.568097  0.448127
  S    10.365763 11.041398  0.583274
  S     9.631734  7.756762  4.530833
  S     9.681652 11.375216  4.625608
