16  
    
  C    11.364973  8.514427  3.360262
  C    11.356417 12.413237  3.294094
  C    10.227715  7.884384  2.743861
  C    10.223116 11.709674  2.739444
  N    12.437825  8.646539  2.590579
  N    12.388957 12.529646  2.502827
  N    10.364634  7.547731  1.468870
  N    10.432302 11.310964  1.489690
  N     9.516937  8.510799  5.137018
  N     9.633421 12.485551  5.159655
  S     8.832089  7.752560  3.849520
  S     8.948394 11.659042  3.845873
  S    11.935909  8.041146  1.104193
  S    11.970287 11.791336  1.056552
  S    11.066613  9.044045  4.997087
  S    11.307069 12.746179  5.004648
