16  
    
  C    12.076995  8.503208  3.641194
  C    12.012450 12.156459  3.300869
  C    10.889493  8.137027  2.902241
  C    10.820625 11.613270  2.693917
  N    13.149854  8.701599  2.888977
  N    12.941531 12.377630  2.375334
  N    11.063870  7.973253  1.608840
  N    10.790776 11.431403  1.362524
  N    10.178640  8.343540  5.380508
  N    10.215236 12.000306  5.280216
  S     9.477822  7.918055  3.869148
  S     9.530804 11.549797  3.784272
  S    12.617364  8.422222  1.285784
  S    12.365320 11.840074  0.933582
  S    11.791591  8.796213  5.329010
  S    11.918364 12.242450  5.057782
