16  
    
  C     9.103796  7.189580  2.282465
  C     9.042083 10.672624  2.360276
  C     7.947832  6.605424  1.729869
  C     7.870822 10.155442  1.777077
  N    10.082279  7.174486  1.365127
  N    10.028812 10.766356  1.462083
  N     7.960227  6.336459  0.423455
  N     7.895213  9.912259  0.487189
  N     7.342845  6.739821  4.173239
  N     7.180957 10.650984  4.224570
  S     6.601031  6.344755  2.771022
  S     6.463224 10.070772  2.807280
  S     9.486237  6.652832 -0.070971
  S     9.447766 10.366113 -0.003718
  S     8.960208  7.220081  4.087316
  S     8.796886 10.915315  4.084496
