16  
    
  C     9.801565  7.498425  2.824778
  C     9.781608 11.144616  2.895874
  C     8.609195  7.009166  2.131933
  C     8.563906 10.580384  2.215531
  N    10.798230  7.787308  2.005775
  N    10.787204 11.331307  2.077293
  N     8.727617  6.909233  0.834424
  N     8.693682 10.497680  0.900508
  N     7.913158  7.014087  4.577598
  N     7.960242 10.739235  4.701663
  S     7.205927  6.718996  3.053021
  S     7.273954 10.193940  3.281107
  S    10.260537  7.388672  0.461030
  S    10.289887 10.949315  0.572760
  S     9.463310  7.614525  4.530032
  S     9.548127 11.235541  4.621573
