16  
    
  C     6.458850  5.720902  2.054869
  C     6.118097  9.272168  1.836313
  C     5.272670  5.361152  1.391886
  C     4.942881  8.804309  1.167075
  N     7.480999  5.961106  1.248859
  N     7.153725  9.345674  1.019925
  N     5.407055  5.105794  0.091939
  N     5.018798  8.657759 -0.161867
  N     4.673088  5.728225  3.937866
  N     4.299838  8.896911  3.676142
  S     3.994084  5.176338  2.466341
  S     3.587102  8.545059  2.187529
  S     6.971867  5.506628 -0.266584
  S     6.596017  8.934526 -0.510121
  S     6.241462  6.101494  3.746913
  S     5.958759  9.358446  3.579240
