16  
    
  C     8.806704  7.327043  2.453553
  C     9.191602 10.808381  2.209730
  C     7.675029  6.881892  1.713436
  C     7.906726 10.587948  1.587192
  N     9.824727  7.601784  1.653862
  N    10.164919 10.778979  1.335408
  N     7.773357  6.977133  0.406163
  N     7.899597 10.529658  0.255630
  N     7.063774  6.667852  4.175029
  N     7.411940 10.710062  4.109959
  S     6.400604  6.279585  2.664358
  S     6.587585 10.425045  2.675018
  S     9.322620  7.399886  0.125557
  S     9.570086 10.629618 -0.155493
  S     8.633859  7.124877  4.180360
  S     9.077816 10.840766  3.939649
