16  
    
  C    11.822880  8.600515  3.540244
  C    11.717868 11.941898  3.354192
  C    10.607644  8.192776  2.814944
  C    10.489364 11.647417  2.670542
  N    12.822446  8.828523  2.714506
  N    12.846047 11.921839  2.588121
  N    10.727630  8.081064  1.519211
  N    10.606244 11.619387  1.353405
  N     9.898691  8.589454  5.241743
  N     9.751141 11.850834  5.033414
  S     9.185142  8.267995  3.788334
  S     9.019789 11.494476  3.646402
  S    12.338518  8.460168  1.193061
  S    12.188138 11.912305  0.995081
  S    11.566835  8.866475  5.220949
  S    11.324387 11.987679  5.074277
