16  
    
  C    12.170342  8.948458  3.545492
  C    12.021392 12.403064  3.421218
  C    11.016827  8.462464  2.790389
  C    10.671729 12.195380  2.815551
  N    13.253031  9.065624  2.729552
  N    12.942698 12.570142  2.478110
  N    11.235760  8.343114  1.493984
  N    10.602888 12.128279  1.501714
  N    10.230620  8.582700  5.157009
  N    10.245949 12.044264  5.318030
  S     9.544222  8.352363  3.712784
  S     9.391031 11.862437  3.906440
  S    12.756159  8.835200  1.180252
  S    12.200848 12.218468  1.025355
  S    11.789671  9.051809  5.276374
  S    11.893688 12.445219  5.146070
