16  
    
  C     9.922393  7.508358  2.490045
  C    10.405390 11.057409  2.641123
  C     8.732353  6.997081  1.926841
  C     9.131971 11.059712  1.955401
  N    10.930543  7.577961  1.638543
  N    11.446672 11.096021  1.842520
  N     8.825328  6.691496  0.643962
  N     9.181271 10.994355  0.631846
  N     8.316570  7.214430  4.495366
  N     8.632091 11.150681  4.542924
  S     7.502707  6.567965  3.180193
  S     7.781744 10.860901  3.099180
  S    10.394147  7.023490  0.191684
  S    10.812788 11.034218  0.278251
  S     9.885464  7.730332  4.165244
  S    10.292636 11.237820  4.357761
