16  
    
  C     4.475772  5.028378  1.632331
  C     4.274527  8.670357  1.477683
  C     3.223402  4.714141  0.980717
  C     3.115880  8.070676  0.915597
  N     5.537583  5.165056  0.866284
  N     5.317106  8.755090  0.666495
  N     3.404015  4.465188 -0.307986
  N     3.243464  7.744983 -0.363038
  N     2.797018  4.906659  3.532510
  N     2.605258  8.356333  3.367116
  S     1.919338  4.604087  2.162961
  S     1.757316  7.946566  2.042003
  S     5.022023  4.877422 -0.688827
  S     4.777920  8.134026 -0.817403
  S     4.354586  5.479787  3.247397
  S     4.171265  8.865941  3.225156
