16  
    
  C    12.658407  9.108334  3.556178
  C    12.736316 12.733424  3.433238
  C    11.443436  8.573115  3.025899
  C    11.547458 12.174652  2.825475
  N    13.596939  9.436774  2.655928
  N    13.798264 12.898799  2.656138
  N    11.562827  8.240434  1.721249
  N    11.647868 12.178694  1.511023
  N    11.200871  8.870653  5.580784
  N    11.140059 12.337192  5.371197
  S    10.297206  8.308628  4.371603
  S    10.285669 11.889941  3.981478
  S    12.989817  8.896613  1.239397
  S    13.248103 12.449317  1.120212
  S    12.801220  9.215195  5.307114
  S    12.708491 12.736571  5.154456
