16  
    
  C    12.727499  9.218838  3.691099
  C    12.841739 12.484895  3.532200
  C    11.548190  8.580516  3.217531
  C    11.568469 12.199599  2.895951
  N    13.652391  9.405992  2.756875
  N    13.823817 12.739821  2.662589
  N    11.471737  8.414157  1.919226
  N    11.627996 12.071661  1.585605
  N    11.231666  8.568714  5.760848
  N    11.053990 12.282303  5.455185
  S    10.274510  8.220345  4.340179
  S    10.284826 11.875505  4.031724
  S    12.967574  8.853635  1.292282
  S    13.207089 12.547871  1.169162
  S    12.766844  9.235984  5.401624
  S    12.682327 12.736959  5.312501
