16  
    
  C     5.843408  5.001918  1.858139
  C     5.810568  9.296426  1.996914
  C     4.724627  4.452739  1.115891
  C     4.590615  8.691142  1.399606
  N     6.972164  5.137933  1.142606
  N     6.764644  9.557961  1.100105
  N     4.928442  4.423552 -0.202652
  N     4.747185  8.398467  0.105581
  N     3.950233  4.818966  3.498203
  N     4.080150  8.856097  3.925117
  S     3.297876  4.270531  2.080576
  S     3.334723  8.273158  2.584804
  S     6.539355  4.720080 -0.379254
  S     6.192183  8.951702 -0.350835
  S     5.513062  5.166319  3.500092
  S     5.627942  9.584946  3.725862
