16  
    
  C     4.982855  4.848098  1.768018
  C     4.689077  8.863255  1.732326
  C     3.645344  4.612888  1.238106
  C     3.417325  8.472690  1.206803
  N     5.896430  4.887200  0.783038
  N     5.614122  9.218577  0.855245
  N     3.562704  4.433077 -0.060942
  N     3.345166  8.420967 -0.112349
  N     3.316066  4.451388  3.724649
  N     3.191758  8.530209  3.774910
  S     2.363260  4.448143  2.387679
  S     2.206703  8.205208  2.444051
  S     5.024030  4.748072 -0.656150
  S     4.879901  8.932816 -0.653568
  S     4.871732  4.890241  3.545815
  S     4.796853  8.849244  3.470458
