16  
    
  C    10.990552  7.708457  3.160899
  C    11.473599 11.761613  2.947008
  C     9.798657  7.548938  2.400277
  C    10.266801 11.117513  2.404966
  N    12.115249  7.774626  2.432342
  N    12.393197 12.015572  2.006871
  N    10.056914  7.502550  1.085615
  N    10.345436 10.799526  1.108912
  N     9.010569  7.521693  4.820450
  N     9.735404 11.624560  4.854461
  S     8.303633  7.409201  3.299088
  S     8.946369 10.908972  3.611138
  S    11.672621  7.618392  0.862705
  S    11.773270 11.401259  0.583163
  S    10.659670  7.730773  4.849252
  S    11.218742 12.286562  4.606592
