16  
    
  C    12.325269  8.928649  3.600592
  C    12.428448 12.686950  3.425065
  C    11.085684  8.387352  3.025502
  C    11.211824 12.182269  2.813681
  N    13.363510  9.000298  2.808565
  N    13.452043 12.882386  2.601766
  N    11.204791  8.169250  1.722657
  N    11.419489 11.903413  1.512365
  N    10.694516  9.067799  5.527834
  N    10.732914 12.676834  5.356444
  S     9.786021  8.635946  4.228150
  S     9.902303 12.047874  3.980001
  S    12.829315  8.486167  1.318360
  S    12.892901 12.507169  1.049811
  S    12.292014  9.443476  5.278459
  S    12.421460 12.977886  5.123132
