16  
    
  C    11.383998  8.534181  3.368690
  C    11.496465 12.421846  3.317163
  C    10.254625  7.915165  2.779995
  C    10.334034 11.759259  2.719966
  N    12.388411  8.693648  2.526699
  N    12.542909 12.611171  2.502409
  N    10.347335  7.643318  1.508583
  N    10.530618 11.383544  1.469465
  N     9.487046  8.549295  5.194652
  N     9.588036 12.253596  5.079441
  S     8.934580  7.706215  3.871009
  S     8.927372 11.576237  3.725607
  S    11.906922  8.110310  1.043024
  S    12.017481 11.945955  0.991503
  S    11.066870  9.170684  4.987251
  S    11.167207 12.707561  5.037961
