16  
    
  C    10.520184  7.234426  2.766537
  C    10.278466 11.092458  2.733100
  C     9.233163  7.346136  2.140295
  C     9.050151 10.891120  2.087691
  N    11.547539  7.118105  1.933426
  N    11.293590 11.210812  1.877486
  N     9.207994  7.245974  0.823263
  N     9.122491 10.678474  0.765079
  N     8.802363  7.359414  4.715927
  N     8.570387 11.076568  4.644838
  S     7.931721  7.713247  3.342305
  S     7.695875 10.828493  3.221817
  S    10.816969  7.220783  0.402021
  S    10.699076 10.894766  0.356353
  S    10.455412  7.331851  4.489940
  S    10.158389 11.440799  4.404703
