16  
    
  C    10.293278  7.703373  2.628758
  C    10.567217 11.397673  2.943539
  C     9.069767  7.154026  2.032601
  C     9.382279 11.255277  2.127268
  N    11.289715  7.815037  1.773291
  N    11.657288 11.356474  2.206387
  N     9.126173  6.854400  0.745465
  N     9.603623 11.136327  0.828960
  N     8.426414  7.701800  4.430099
  N     8.534451 11.434959  4.551727
  S     7.690992  7.046230  3.145475
  S     7.919425 11.407817  3.049720
  S    10.631572  7.325305  0.312151
  S    11.208434 11.211605  0.617672
  S    10.042056  8.072282  4.290172
  S    10.181107 11.601602  4.599602
