16  
    
  C     7.125069  6.049280  2.007752
  C     7.332839  9.765023  2.503200
  C     5.984000  5.483979  1.321880
  C     6.111773  9.446289  1.846494
  N     8.209620  6.224520  1.258824
  N     8.422167  9.717287  1.722523
  N     6.208217  5.170351  0.055226
  N     6.244593  9.171064  0.527708
  N     5.203367  5.802174  3.793441
  N     5.511837  9.674303  4.321440
  S     4.698770  5.007692  2.396907
  S     4.691552  9.594626  2.892938
  S     7.777251  5.654526 -0.279026
  S     7.801956  9.373038  0.152722
  S     6.752715  6.322569  3.675239
  S     7.124883 10.011225  4.198495
