16  
    
  C     9.649167  7.623297  2.780588
  C    10.054325 11.197845  2.684241
  C     8.549220  6.934855  2.148431
  C     8.780490 10.789246  2.065184
  N    10.674238  7.752723  1.937856
  N    11.055234 11.296427  1.837412
  N     8.697787  6.609113  0.854011
  N     8.824392 10.732953  0.738918
  N     7.885973  7.231911  4.579071
  N     8.319310 11.076349  4.595684
  S     7.185989  6.668888  3.175139
  S     7.468828 10.798606  3.229083
  S    10.218602  7.131585  0.472749
  S    10.377677 11.060139  0.270112
  S     9.286579  8.057622  4.473900
  S     9.939627 11.422771  4.384072
