16  
    
  C    11.996982  8.463337  3.254487
  C    11.907558 12.175441  3.158585
  C    10.697585  8.302089  2.725267
  C    10.635185 11.956939  2.576758
  N    13.004973  8.677583  2.369566
  N    12.929960 12.100346  2.338003
  N    10.694395  8.288751  1.393461
  N    10.642168 11.858496  1.257408
  N    10.379116  8.438441  5.301488
  N    10.301972 11.967523  5.224791
  S     9.421913  8.183387  3.882691
  S     9.422395 11.604521  3.892099
  S    12.273333  8.553284  0.915178
  S    12.278375 11.953711  0.820085
  S    12.008154  8.702631  4.974695
  S    11.916686 12.309883  4.854947
