16  
    
  C    10.980705  7.880878  3.058499
  C    10.940387 11.745520  2.736690
  C     9.721146  7.344294  2.599716
  C     9.778726 11.175936  2.152528
  N    11.852464  8.194024  2.066347
  N    11.967839 11.819284  1.890256
  N     9.691323  7.256138  1.262175
  N     9.868704 10.936195  0.842786
  N     9.475077  7.519489  5.117728
  N     9.346665 11.202433  4.688809
  S     8.512498  7.086518  3.808701
  S     8.446746 11.025658  3.248801
  S    11.151471  7.708519  0.698149
  S    11.335751 11.423136  0.377475
  S    11.015710  8.102312  4.792897
  S    10.896318 11.926511  4.470817
