16  
    
  C    12.786671  9.095498  3.421717
  C    12.809176 12.732928  3.464738
  C    11.505504  8.602040  2.954464
  C    11.650379 12.150348  2.797817
  N    13.750452  9.149617  2.511107
  N    13.808970 13.045048  2.614854
  N    11.490070  8.403438  1.654050
  N    11.761580 12.105325  1.459847
  N    11.137659  8.997664  5.365130
  N    10.892643 12.397161  5.248728
  S    10.258138  8.409479  4.035909
  S    10.209469 11.998398  3.769827
  S    12.970759  8.840845  1.018927
  S    13.319542 12.629117  1.122533
  S    12.711861  9.421002  5.152022
  S    12.465135 13.063253  5.186513
