16  
    
  C     8.396303  6.629774  2.557816
  C     8.826376 10.405402  2.830729
  C     7.210264  6.217035  1.796757
  C     7.585402 10.055117  2.165776
  N     9.409607  6.964015  1.735055
  N     9.811062 10.545301  1.978913
  N     7.501131  6.008479  0.510799
  N     7.683164  9.871587  0.847373
  N     6.468662  6.287888  4.272533
  N     6.989160 10.313532  4.632945
  S     5.789234  5.891722  2.750853
  S     6.247424  9.948605  3.215316
  S     9.015720  6.539876  0.220690
  S     9.269194 10.189506  0.461130
  S     8.006369  6.882267  4.255181
  S     8.644971 10.506733  4.566865
