16  
    
  C    10.358686  7.155838  2.786431
  C    10.299122 10.983939  2.833830
  C     9.067265  7.155680  2.046861
  C     9.007849 10.841336  2.126815
  N    11.411920  7.164506  1.989618
  N    11.299757 11.154314  2.008617
  N     9.126357  7.222717  0.732687
  N     9.126353 10.675288  0.829098
  N     8.570303  7.441298  4.619913
  N     8.501919 10.823162  4.667889
  S     7.752785  7.121994  3.193877
  S     7.678240 10.832880  3.237427
  S    10.801798  7.183713  0.418612
  S    10.711367 10.954608  0.425327
  S    10.259837  7.353615  4.476973
  S    10.190528 11.010125  4.507684
