16  
    
  C     9.685351  7.629186  2.835043
  C     9.907829 11.201970  2.747953
  C     8.589535  7.071730  2.117466
  C     8.659302 10.830738  2.145875
  N    10.778342  7.804018  2.123192
  N    10.938078 11.312150  1.927007
  N     8.863145  6.906309  0.814646
  N     8.721586 10.699828  0.833999
  N     7.844362  7.575537  4.497330
  N     8.155165 11.090804  4.643565
  S     7.233498  6.785295  3.179153
  S     7.309627 10.889934  3.264842
  S    10.412809  7.482145  0.578604
  S    10.291013 10.986784  0.434967
  S     9.455525  7.897757  4.544570
  S     9.821914 11.196220  4.500522
