16  
    
  C     8.874546  7.196204  2.420798
  C     9.155687 10.823430  2.249626
  C     7.633596  6.920669  1.696571
  C     7.860790 10.623839  1.620111
  N     9.924737  7.544420  1.678088
  N    10.206807 10.844305  1.421323
  N     7.829828  6.923089  0.370563
  N     7.956837 10.451424  0.313921
  N     7.090407  6.601242  4.141432
  N     7.458249 10.701985  4.146290
  S     6.353380  6.314466  2.690732
  S     6.572600 10.432003  2.748337
  S     9.425745  7.404861  0.097985
  S     9.572274 10.619282 -0.128706
  S     8.667226  7.154116  4.111925
  S     9.104288 10.850259  3.971121
