16  
    
  C     6.618158  5.956061  2.092070
  C     6.439354  9.371546  1.916649
  C     5.450591  5.379501  1.464909
  C     5.273250  8.900675  1.216067
  N     7.686443  6.035955  1.290179
  N     7.498419  9.580037  1.126260
  N     5.563099  5.207111  0.150651
  N     5.468269  8.702808 -0.072784
  N     4.822465  5.485028  3.966073
  N     4.587920  8.994733  3.661764
  S     4.024911  5.118284  2.524079
  S     3.927431  8.494186  2.281469
  S     7.117550  5.610712 -0.239841
  S     7.038500  9.214371 -0.414265
  S     6.416097  6.091083  3.847920
  S     6.195686  9.462107  3.663530
