16  
    
  C     6.550629  5.895706  2.109719
  C     6.350767  9.165297  1.975602
  C     5.459828  5.221213  1.419564
  C     5.175563  8.741917  1.227029
  N     7.627301  6.132582  1.357803
  N     7.337645  9.480400  1.147995
  N     5.632690  5.135311  0.087615
  N     5.334301  8.613933 -0.086649
  N     4.796920  5.424694  3.920924
  N     4.476233  8.912102  3.618311
  S     4.137396  5.136403  2.466751
  S     3.766625  8.589245  2.212911
  S     7.187818  5.639092 -0.146621
  S     6.887376  9.173828 -0.372468
  S     6.325270  6.050443  3.818276
  S     6.056204  9.416806  3.651400
