16  
    
  C     9.943030  7.652796  2.670419
  C     9.881968 11.344464  2.974938
  C     8.694226  7.370895  2.040569
  C     8.794451 10.698828  2.307156
  N    10.905330  7.663422  1.765388
  N    10.936083 11.575756  2.177226
  N     8.669143  7.238248  0.719795
  N     8.960578 10.522647  0.977612
  N     8.169666  7.407712  4.535684
  N     8.045835 10.942595  4.716166
  S     7.362387  7.188528  3.127988
  S     7.374927 10.435782  3.280694
  S    10.239934  7.551182  0.238992
  S    10.475600 11.122865  0.683388
  S     9.795160  7.765922  4.441594
  S     9.611653 11.427450  4.675546
