16  
    
  C    10.670895  8.354322  3.102992
  C    10.797462 11.765275  3.145941
  C     9.483522  7.771511  2.506523
  C     9.630121 11.359375  2.434462
  N    11.687833  8.549095  2.285727
  N    11.889897 11.988100  2.410869
  N     9.624122  7.534493  1.225781
  N     9.798056 11.106573  1.153937
  N     9.053336  8.031546  5.004806
  N     8.815011 11.730111  4.914526
  S     8.216072  7.654199  3.672718
  S     8.172052 11.296813  3.422581
  S    11.212168  8.051331  0.785501
  S    11.380238 11.572424  0.855542
  S    10.499737  8.747702  4.775215
  S    10.430467 12.062968  4.836815
