16  
    
  C     9.511516  7.242272  3.021239
  C     9.579234 10.933045  2.688525
  C     8.448553  6.612299  2.224668
  C     8.340750 10.428640  2.023445
  N    10.524894  7.609408  2.247445
  N    10.575157 11.118180  1.808910
  N     8.634587  6.580404  0.893007
  N     8.442609 10.358374  0.698352
  N     7.691547  6.503534  4.701916
  N     7.920647 10.475876  4.580867
  S     7.118517  6.063400  3.231875
  S     7.064110 10.164680  3.213924
  S    10.098921  7.292566  0.652706
  S     9.955886 10.792104  0.256577
  S     9.246418  7.106195  4.772091
  S     9.493390 10.930070  4.386843
