16  
    
  C     6.667919  5.724489  1.940406
  C     6.643641  9.465801  2.026407
  C     5.391088  5.432253  1.349591
  C     5.347694  9.122402  1.441150
  N     7.695093  5.767058  1.093214
  N     7.645762  9.600438  1.147492
  N     5.411099  5.336838  0.032396
  N     5.395273  8.930501  0.120537
  N     4.994789  5.885392  3.886680
  N     5.062463  9.337107  4.011755
  S     4.140814  5.420450  2.511131
  S     4.127166  9.028664  2.754968
  S     7.001961  5.615310 -0.404618
  S     6.922619  9.364486 -0.366918
  S     6.584566  5.932051  3.639513
  S     6.639505  9.831733  3.752282
