16  
    
  C     6.572486  5.845536  1.910515
  C     6.573003  9.608526  1.847407
  C     5.303774  5.529794  1.375817
  C     5.359402  9.111762  1.276796
  N     7.571002  5.857018  1.027611
  N     7.579821  9.680019  0.965036
  N     5.308425  5.247309  0.072338
  N     5.453772  8.857869 -0.023411
  N     5.005947  5.754229  3.947604
  N     4.980978  9.132715  3.906033
  S     4.038437  5.429952  2.610767
  S     4.071035  8.897241  2.467666
  S     6.860092  5.466529 -0.426757
  S     7.026061  9.264817 -0.498214
  S     6.586082  6.007892  3.614340
  S     6.568110  9.700062  3.626319
